data_image0
_chemical_formula_structural       HNH5C2H2CHSH3CFeHFeC2HCS2H5CHCHCHSH2CFeH2SH5CHC3H2CHS2CH5CHNCFeH8SC2SFeH2FeHFeHCH2SCH4S2HCHSCSNH5C2NHC2HSH2CNHCSHCH2C2H2FeCHCS2HC3H3CHCSC2HCHFeH2C3HC3H3CH2CHCHCHFe2H2C6H6C2SCSCHC2SHFeC2HCH2CH2C4H4CHCH2CHC2SCSHCH3C3HC3SHCH6NFeCFeCSH6SCHSH5CH3SH5SFeNHCNHC2SCH2CH4CS2H4FeHC3SHC2FeNFeHSHFeCH3C3H4C3HCH2CH2CHSHCHCSCH2CSCH2CFeC2H6CHSHCHFeH2SH2FeH2CHCSH2SHCHCHCHCH3CHCH2C4H2SHNHSHC3H4CHS2CH2CHC2H3FeH2CH4CH2CHCSHSHCH2SH4CFeHC2NH7S2H6NC2H4CH2NSH7CHC3HCH9C2FeCH3C2H3CH4CH2FeHC2H6C2H2SHSC5HCSHCSHC5H2C3FeH2C2HCH4C3SH4CH3FeC2H3CHCHSFeH2CH2FeHC3HC2HS2CHSH2S2FeCNHCHSC2NHC3H2CSH2C2H2SCH2C3H2CHNH4CSH4CHCSH4SCHCH3CH4SH3SCH5SC5HCH3FeC3FeH3SCH2CHFeH5CHSH4CHCH3C2H2C3HC2H7C2H3CH3NHCFeC3HC5SH2C4SCH7CH3C2S2CH4FeH3CNHC2H2CH3CFeS2CH2CFeCSH5NH3CSH3SH6CH2CH2CH2CSCSFeC2H2FeCFeH3CHC2H2CH2NH3NHNHCSH2CH3C2H4FeHCH3SH5CHCH9CSFeH4C2HCSH4CHCSC2H4CHNH2SC2HSH4CH2C2H2SCHCFeSH2SHSHC2H4NHC2HSH2CHC2H7CH2C3HSH2CH2CH3C2HCHCNCHC2SHSHSHCSHFeCH4CHCSCHC2HNC2NH5CSH2FeCFeH2CH2CHC3H5CHSHC2SHNC2HNFeH2FeC4H3FeH2FeH6C5FeH8C4H5C2NH3CH6NSC2HSH2C2FeHCFeH2CH2FeCH2CSC2SFeHSH2FeHSH2CHCHFeCHC3H4SCHSCHCH5Fe2SCHSH3CH4CH14CH2CH2C2HC3HCHCHFeHCNSHCSC2SH3C2H2CHSH2CH3SHCHC2SC2SHSHCHCHC2H3SH6CH2SCHCH3C3H4CHC2HC2H3CHC2H2CHCSC2H3FeSH2FeHSC2FeH2SCFeNH2CHC2H4C3HCHCH5SH2S2HNFeCHCHCH4CH2SH2C2H2C2HC2HCH3NC2H2CNFeHCH2CNH8C3SHC2HFeH4C3H2CHSH2CHCFeHCH7CH2C3NH3C2SC2HCH8CH2CH2CHCHCHFeH3C3HSCH4SFeCSHSCSH2CHCH2CHSC4HCH2CFeH2S2H3C2SNH2CH3CH2SCHCHSFeH2C2H3CH2C5SHFeNH2CH2CH2CH5CH3CHCH2CHSH2C2H3C3HCSHFeH2C2NH3CSCSCH2CHCFeH4CH4C5H2CHSH4CHSC3HSHCHSCHSHCHCSHCH2CH2CHFeSHFeCFeHFeNHCFeHCHSCHCH2CH2CH2CH2CHSCH2SHC2H2CHC2SHSHCHFeCH3C2H3NCSC3H2CHC3HFeH3SC4H5C2HFeSCH7CHC2H3CSCSH8CHCH3C2H2CHC2H6CHCH2C2H2SCHCH2CH4CSC2H2CHCH2SHNH2SC3NHFeH2CH2CH2FeCHSH2SC2HC2SFeHS2HFeCH4FeHCSC3SCHCSH4CH7SH2CH3C2HC3HFeH2C2H3CHCHCH2CH2CNH3CS2H5CH2NHSC2HCH4C3H2SHS2FeSHSHSHCFeH3CH3C2HNH3CHCH2CH4S2HCH3SH3CHCH2C2H2CH4NC2SH2FeHCH2CHCHCH5C3HCHCH2CHFeH3NHCH2CHFeSHC2H4C3HC4NHFeSH4SCH2CSHCHCH3CHFeH2C4HNHCSCHNCFeHCSC2HCH3FeH3FeSH4FeHCH7C2HCHC2H4CHSH7FeCH3CH2SHCH2CHSHCH4C4HCHCFeSH2SH2CH3FeH3CSH3SH3CNCHSCH4CHSH5FeHFeC3SHFeH2FeC4NHC5HCFeSCH3C2HCHCH3SCH3CH2CHFeC2H2CH5SH5SHCH2C2HSHCHFeSFeH3C3FeCHC2HSH2C3H2CHC2H3CH6C2H3S2HCHCH8CHCH3C2FeHCSH2CHCFe2H3C2H4FeHCHCH2SHC2SHC2HNC2HCHC2FeCSCHSHSHC2FeCH2S2H2FeCH6C2NCH4CH2CH3S3H5SNC2HFeH2C3HCSCSNH2C2FeC3SH2C3HSC2HCN2C3H4C2FeCHSHSCHCHCH2SHFeCH3CHC2SH2CHSC2H3CHSH3FeHFe2H3S2CH4CHFeCH3CHCSH2CH7CHC3H2CH5SHSH5SH3CHCH2FeSH3NHC2HSCSCHC2H3CH5FeH2C2H2C2SHC5HCFeHCSHC2H5C2HNC2H2CSFeC3HSCHCHCH3FeC3H3CHSNHSH2CS2H2CHFeHS2C2HC2SFeH4CH7CHFe2SCH3CH2CH2CHSCFeSCHCFeSCHCFeSCHCSHC2HCH4CNCHC4H2SCH2C3HC2HCH2FeH14CH3CHSCH3CH2SH3SH3CFeHCH2CH2C2H5NHC2HCHCHC6H3C2HC2H2CH4SC6HC2H2NH4CH2C2NCH4S2CHCHCH3CH3CNH2SCH2C3HSC2H4CH3CH2SH5C2HC2H4CHCH3CHCSCH4S2FeCHNC2H3CH4CHFeH3CHCH5SH2CHCH3SHCH5CSHFeCSCHCSCH2NHCFeHSFeH2CHC3SHS2HC3HC2HSC3HCHCHCH3CSHFeHC3HSFeC2H3CH4SH4CH2C2H2SCH2CHCH4FeHSC3H3C2H4CSCH3S2CH3CHNC7HCFeH4CHFeH5CH2SH2C3SH2C2H2NHC2HCFeH2CH5NCFeH2CHC2FeSH3FeNSCNCH15CH3CH2SCHCHCH4C4HSHNSHC4HSCH2S2HCH2CH9SHC2HC2H4CH4SCH3FeH2SHNH2C2SFeH5C2HCHNH4FeHC3H2CHCNCH4CHCH2CH3CH2C2H2CSH3CHCH2CH4CH7CH2C3SHCHCSH2SC2H5C2H2CH2C3FeCH4CH3SH2C2HCH
_chemical_formula_sum              "H1920 N80 C1120 S320 Fe160"
_cell_length_a       42.902
_cell_length_b       44.7581
_cell_length_c       24.8898
_cell_angle_alpha    69.2127
_cell_angle_beta     80.4556
_cell_angle_gamma    92.1058

_space_group_name_H-M_alt    "P 1"
_space_group_IT_number       1

loop_
  _space_group_symop_operation_xyz
  'x, y, z'

loop_
  _atom_site_type_symbol
  _atom_site_label
  _atom_site_symmetry_multiplicity
  _atom_site_fract_x
  _atom_site_fract_y
  _atom_site_fract_z
  _atom_site_occupancy
  H   H1        1.0  0.05679  0.33068  0.93415  1.0000
  N   N1        1.0  0.07249  0.30034  0.74390  1.0000
  H   H2        1.0  0.40245  0.24070  0.72238  1.0000
  H   H3        1.0  0.47445  0.13500  0.76529  1.0000
  H   H4        1.0  0.15655  0.30505  0.92544  1.0000
  H   H5        1.0  0.29057  0.37130  0.83401  1.0000
  H   H6        1.0  0.41861  0.14153  0.80570  1.0000
  C   C1        1.0  0.42420  0.13957  0.89137  1.0000
  C   C2        1.0  0.46336  0.07527  0.78800  1.0000
  H   H7        1.0  0.35777  0.23755  0.81880  1.0000
  H   H8        1.0  0.22299  0.28652  0.84871  1.0000
  C   C3        1.0  0.47715  0.23606  0.85283  1.0000
  H   H9        1.0  0.16656  0.15832  0.78146  1.0000
  S   S1        1.0  0.37526  0.44921  0.77043  1.0000
  H   H10       1.0  0.17000  0.27621  0.72344  1.0000
  H   H11       1.0  0.10300  0.29933  0.90543  1.0000
  H   H12       1.0  0.13722  0.10818  0.84950  1.0000
  C   C4        1.0  0.19723  0.27769  0.78768  1.0000
  Fe  Fe1       1.0  0.50081  0.36062  0.89198  1.0000
  H   H13       1.0  0.36049  0.14399  0.82431  1.0000
  Fe  Fe2       1.0  0.52248  0.29727  0.89107  1.0000
  C   C5        1.0  0.13457  0.11513  0.80307  1.0000
  C   C6        1.0  0.22855  0.44932  0.87321  1.0000
  H   H14       1.0  0.49882  0.30165  0.74116  1.0000
  C   C7        1.0  0.37829  0.03453  0.75358  1.0000
  S   S2        1.0  0.21421  0.95752  0.82463  1.0000
  S   S3        1.0  0.48003  0.96878  0.84921  1.0000
  H   H15       1.0  0.05834  0.34261  0.81423  1.0000
  H   H16       1.0  0.11936  0.05682  0.80099  1.0000
  H   H17       1.0  0.12150  0.40328  0.91939  1.0000
  H   H18       1.0  0.33191  0.04869  0.77698  1.0000
  H   H19       1.0  0.20304  0.33144  0.92191  1.0000
  C   C8        1.0  0.16454  0.38278  0.89071  1.0000
  H   H20       1.0  0.45404  0.05393  0.78074  1.0000
  C   C9        1.0  0.19614  0.43262  0.87479  1.0000
  H   H21       1.0  0.43796  0.27327  0.79001  1.0000
  C   C10       1.0  0.51738  0.08035  0.72712  1.0000
  H   H22       1.0  0.54947  0.37931  0.73374  1.0000
  S   S4        1.0  0.50732  0.41370  0.84243  1.0000
  H   H23       1.0  0.28435  0.30604  0.72972  1.0000
  H   H24       1.0  0.52931  0.07518  0.76530  1.0000
  C   C11       1.0  0.17861  0.32449  0.72080  1.0000
  Fe  Fe3       1.0  0.45253  0.30262  0.93069  1.0000
  H   H25       1.0  0.07489  0.10173  0.73433  1.0000
  H   H26       1.0  0.54700  0.13365  0.73546  1.0000
  S   S5        1.0  0.22760  0.99200  0.91583  1.0000
  H   H27       1.0  0.32153  0.34030  0.75206  1.0000
  H   H28       1.0  0.53458  0.00731  0.86169  1.0000
  H   H29       1.0  0.14769  0.96492  0.81195  1.0000
  H   H30       1.0  0.23822  0.12632  0.92080  1.0000
  H   H31       1.0  0.14765  0.13300  0.92269  1.0000
  C   C12       1.0  0.09995  0.06602  0.82406  1.0000
  H   H32       1.0  0.08492  0.36415  0.74580  1.0000
  C   C13       1.0  0.16004  0.25435  0.96197  1.0000
  C   C14       1.0  0.08252  0.34419  0.78839  1.0000
  C   C15       1.0  0.41638  0.21980  0.72898  1.0000
  H   H33       1.0  0.09508  0.97707  0.85554  1.0000
  H   H34       1.0  0.45568  0.21884  0.87572  1.0000
  C   C16       1.0  0.11477  0.27811  0.92325  1.0000
  H   H35       1.0  0.43513  0.28131  0.71724  1.0000
  S   S6        1.0  0.43381  0.01018  0.72677  1.0000
  S   S7        1.0  0.33239  0.19726  0.75542  1.0000
  C   C17       1.0  0.19216  0.34406  0.74564  1.0000
  H   H36       1.0  0.44531  0.45177  0.90966  1.0000
  H   H37       1.0  0.39190  0.33782  0.73859  1.0000
  H   H38       1.0  0.09690  0.02396  0.90331  1.0000
  H   H39       1.0  0.17744  0.44762  0.88436  1.0000
  H   H40       1.0  0.39550  0.39055  0.83979  1.0000
  C   C18       1.0  0.47467  0.06299  0.84665  1.0000
  H   H41       1.0  0.14020  0.42413  0.84336  1.0000
  N   N2        1.0  0.46630  0.24496  0.74936  1.0000
  C   C19       1.0  0.14244  0.15195  0.77545  1.0000
  Fe  Fe4       1.0  0.45021  0.96554  0.78566  1.0000
  H   H42       1.0  0.12461  0.05575  0.89896  1.0000
  H   H43       1.0  0.23355  0.07042  0.82650  1.0000
  H   H44       1.0  0.20956  0.10119  0.90859  1.0000
  H   H45       1.0  0.05677  0.25464  0.73950  1.0000
  H   H46       1.0  0.35709  0.36037  0.94659  1.0000
  H   H47       1.0  0.27867  0.41103  0.79968  1.0000
  H   H48       1.0  0.17606  0.38102  0.84844  1.0000
  H   H49       1.0  0.08215  0.05720  0.91778  1.0000
  S   S8        1.0  0.29137  0.23170  0.83860  1.0000
  C   C20       1.0  0.36817  0.25920  0.82140  1.0000
  C   C21       1.0  0.09703  0.24631  0.78083  1.0000
  S   S9        1.0  0.53294  0.10024  0.94992  1.0000
  Fe  Fe5       1.0  0.27874  0.99915  0.87269  1.0000
  H   H50       1.0  0.45409  0.04915  0.88104  1.0000
  H   H51       1.0  0.39916  0.19802  0.74898  1.0000
  Fe  Fe6       1.0  0.49050  0.12807  0.95186  1.0000
  H   H52       1.0  0.49341  0.04659  0.84683  1.0000
  Fe  Fe7       1.0  0.28729  0.19197  0.72432  1.0000
  H   H53       1.0  0.53579  0.03694  0.72009  1.0000
  C   C22       1.0  0.18082  0.29134  0.74221  1.0000
  H   H54       1.0  0.40964  0.33531  0.83023  1.0000
  H   H55       1.0  0.08274  0.11179  0.87692  1.0000
  S   S10       1.0  0.19076  0.38580  0.71626  1.0000
  C   C23       1.0  0.37381  0.14273  0.85812  1.0000
  H   H56       1.0  0.11538  0.31129  0.77253  1.0000
  H   H57       1.0  0.45608  0.99737  0.93975  1.0000
  H   H58       1.0  0.12731  0.98432  0.88762  1.0000
  H   H59       1.0  0.44913  0.19462  0.78138  1.0000
  S   S11       1.0  0.08393  0.01468  0.73975  1.0000
  S   S12       1.0  0.31743  0.14728  0.92436  1.0000
  H   H60       1.0  0.19650  0.43513  0.82843  1.0000
  C   C24       1.0  0.39803  0.31409  0.82773  1.0000
  H   H61       1.0  0.37308  0.23555  0.91014  1.0000
  S   S13       1.0  0.53876  0.33182  0.93026  1.0000
  C   C25       1.0  0.45247  0.27566  0.74717  1.0000
  S   S14       1.0  0.48733  0.32807  0.84706  1.0000
  N   N3        1.0  0.10237  0.10224  0.79941  1.0000
  H   H62       1.0  0.09967  0.35064  0.81237  1.0000
  H   H63       1.0  0.37598  0.99750  0.92080  1.0000
  H   H64       1.0  0.07647  0.14077  0.81112  1.0000
  H   H65       1.0  0.09513  0.13969  0.72064  1.0000
  H   H66       1.0  0.51940  0.96916  0.95876  1.0000
  C   C26       1.0  0.37526  0.13837  0.95718  1.0000
  C   C27       1.0  0.40672  0.14104  0.84787  1.0000
  N   N4        1.0  0.48742  0.09623  0.73536  1.0000
  H   H67       1.0  0.26822  0.08539  0.94139  1.0000
  C   C28       1.0  0.53936  0.96265  0.93187  1.0000
  C   C29       1.0  0.06717  0.26405  0.76904  1.0000
  H   H68       1.0  0.47241  0.26031  0.85232  1.0000
  S   S15       1.0  0.26862  0.01887  0.78215  1.0000
  H   H69       1.0  0.11348  0.24921  0.73965  1.0000
  H   H70       1.0  0.24812  0.44157  0.84775  1.0000
  C   C30       1.0  0.17025  0.14814  0.91388  1.0000
  N   N5        1.0  0.18805  0.39782  0.91518  1.0000
  H   H71       1.0  0.49581  0.22822  0.87949  1.0000
  C   C31       1.0  0.22169  0.10406  0.94296  1.0000
  S   S16       1.0  0.40219  0.28328  0.94295  1.0000
  H   H72       1.0  0.44701  0.37634  0.86734  1.0000
  C   C32       1.0  0.29949  0.35047  0.73864  1.0000
  H   H73       1.0  0.14313  0.16133  0.72772  1.0000
  H   H74       1.0  0.15585  0.35773  0.92077  1.0000
  C   C33       1.0  0.35109  0.02367  0.85334  1.0000
  C   C34       1.0  0.11225  0.96508  0.88269  1.0000
  H   H75       1.0  0.42258  0.99434  0.85193  1.0000
  H   H76       1.0  0.23558  0.38997  0.93329  1.0000
  Fe  Fe8       1.0  0.30182  0.18182  0.84482  1.0000
  C   C35       1.0  0.23146  0.08658  0.78334  1.0000
  H   H77       1.0  0.07790  0.05561  0.81694  1.0000
  C   C36       1.0  0.13453  0.40032  0.87956  1.0000
  S   S17       1.0  0.25742  0.17306  0.81383  1.0000
  S   S18       1.0  0.19977  0.23616  0.81335  1.0000
  H   H78       1.0  0.49468  0.03101  0.75096  1.0000
  C   C37       1.0  0.40335  0.01816  0.77470  1.0000
  C   C38       1.0  0.48942  0.23635  0.79076  1.0000
  C   C39       1.0  0.52459  0.13246  0.76614  1.0000
  H   H79       1.0  0.11000  0.25368  0.80987  1.0000
  H   H80       1.0  0.44225  0.08809  0.79521  1.0000
  H   H81       1.0  0.16403  0.17331  0.90091  1.0000
  C   C40       1.0  0.38798  0.31552  0.77597  1.0000
  H   H82       1.0  0.15366  0.10431  0.78264  1.0000
  C   C41       1.0  0.40838  0.13774  0.94644  1.0000
  S   S19       1.0  0.31634  0.02161  0.90283  1.0000
  C   C42       1.0  0.25228  0.11474  0.75530  1.0000
  C   C43       1.0  0.40311  0.00634  0.83493  1.0000
  H   H83       1.0  0.12574  0.16462  0.79668  1.0000
  C   C44       1.0  0.20852  0.07898  0.75503  1.0000
  H   H84       1.0  0.32868  0.42573  0.72345  1.0000
  Fe  Fe9       1.0  0.21745  0.00726  0.82545  1.0000
  H   H85       1.0  0.21807  0.34522  0.81214  1.0000
  H   H86       1.0  0.51200  0.25252  0.77250  1.0000
  C   C45       1.0  0.39196  0.28541  0.87676  1.0000
  C   C46       1.0  0.44495  0.40063  0.83995  1.0000
  C   C47       1.0  0.09929  0.24753  0.93675  1.0000
  H   H87       1.0  0.49672  0.21191  0.79688  1.0000
  C   C48       1.0  0.21740  0.38032  0.91500  1.0000
  C   C49       1.0  0.37239  0.28811  0.77348  1.0000
  C   C50       1.0  0.32009  0.39988  0.74733  1.0000
  H   H88       1.0  0.39225  0.38211  0.94811  1.0000
  H   H89       1.0  0.48244  0.08274  0.85968  1.0000
  H   H90       1.0  0.52682  0.42361  0.94808  1.0000
  C   C51       1.0  0.20786  0.33033  0.79227  1.0000
  H   H91       1.0  0.31343  0.40619  0.83097  1.0000
  H   H92       1.0  0.23387  0.44518  0.91680  1.0000
  C   C52       1.0  0.07713  0.11449  0.83363  1.0000
  H   H93       1.0  0.25556  0.38989  0.74190  1.0000
  C   C53       1.0  0.21088  0.29720  0.81264  1.0000
  H   H94       1.0  0.47057  0.40453  0.95885  1.0000
  C   C54       1.0  0.08921  0.31139  0.78360  1.0000
  H   H95       1.0  0.52467  0.15550  0.77350  1.0000
  Fe  Fe10      1.0  0.26606  0.96816  0.78630  1.0000
  Fe  Fe11      1.0  0.24990  0.22417  0.79925  1.0000
  H   H96       1.0  0.46582  0.32402  0.74230  1.0000
  H   H97       1.0  0.23520  0.33436  0.95706  1.0000
  C   C55       1.0  0.24281  0.07611  0.96005  1.0000
  C   C56       1.0  0.09751  0.11345  0.73696  1.0000
  C   C57       1.0  0.37696  0.00885  0.87421  1.0000
  C   C58       1.0  0.47115  0.42389  0.82009  1.0000
  C   C59       1.0  0.29908  0.39663  0.80619  1.0000
  C   C60       1.0  0.41563  0.40869  0.82449  1.0000
  H   H98       1.0  0.11802  0.38581  0.86617  1.0000
  H   H99       1.0  0.22885  0.38426  0.86913  1.0000
  H   H100      1.0  0.34167  0.38788  0.75861  1.0000
  H   H101      1.0  0.23704  0.05798  0.94121  1.0000
  H   H102      1.0  0.42478  0.21746  0.81274  1.0000
  H   H103      1.0  0.08955  0.22017  0.80335  1.0000
  C   C61       1.0  0.41235  0.44000  0.78877  1.0000
  C   C62       1.0  0.35812  0.14224  0.91233  1.0000
  S   S20       1.0  0.46583  0.14139  0.87488  1.0000
  C   C63       1.0  0.14517  0.28146  0.93507  1.0000
  S   S21       1.0  0.18415  0.04269  0.78874  1.0000
  C   C64       1.0  0.49512  0.12839  0.74004  1.0000
  H   H104      1.0  0.08226  0.29429  0.82906  1.0000
  C   C65       1.0  0.35193  0.03706  0.79294  1.0000
  C   C66       1.0  0.43957  0.21830  0.77088  1.0000
  S   S22       1.0  0.05983  0.24400  0.92665  1.0000
  H   H105      1.0  0.40652  0.06644  0.93785  1.0000
  Fe  Fe12      1.0  0.32008  0.24669  0.74721  1.0000
  C   C67       1.0  0.47625  0.30611  0.72508  1.0000
  C   C68       1.0  0.37731  0.25798  0.87322  1.0000
  H   H106      1.0  0.52488  0.11337  0.80881  1.0000
  C   C69       1.0  0.21213  0.34368  0.94867  1.0000
  H   H107      1.0  0.27083  0.11979  0.77638  1.0000
  H   H108      1.0  0.28164  0.34334  0.78002  1.0000
  C   C70       1.0  0.10106  0.05038  0.88973  1.0000
  H   H109      1.0  0.18672  0.14680  0.87572  1.0000
  H   H110      1.0  0.20497  0.16030  0.95655  1.0000
  C   C71       1.0  0.11478  0.22033  0.96096  1.0000
  C   C72       1.0  0.46452  0.45435  0.93319  1.0000
  C   C73       1.0  0.51334  0.04841  0.71723  1.0000
  C   C74       1.0  0.36710  0.20701  0.12834  1.0000
  H   H111      1.0  0.30873  0.06313  0.08350  1.0000
  H   H112      1.0  0.34294  0.27860  0.11718  1.0000
  H   H113      1.0  0.19189  0.40306  0.19436  1.0000
  H   H114      1.0  0.10120  0.02360  0.02794  1.0000
  C   C75       1.0  0.35396  0.15340  0.12314  1.0000
  H   H115      1.0  0.06717  0.30359  0.03504  1.0000
  C   C76       1.0  0.31282  0.32700  0.05083  1.0000
  H   H116      1.0  0.54459  0.02995  0.19631  1.0000
  H   H117      1.0  0.31928  0.21745  0.16314  1.0000
  C   C77       1.0  0.50690  0.20009  0.09755  1.0000
  H   H118      1.0  0.30067  0.34940  0.04221  1.0000
  C   C78       1.0  0.09704  0.32798  0.09754  1.0000
  C   C79       1.0  0.37588  0.35982  0.97247  1.0000
  S   S23       1.0  0.29420  0.42442  0.01138  1.0000
  C   C80       1.0  0.05936  0.06184  0.10770  1.0000
  S   S24       1.0  0.06860  0.44947  0.04617  1.0000
  H   H119      1.0  0.37739  0.98631  0.05660  1.0000
  C   C81       1.0  0.24088  0.32675  0.20294  1.0000
  H   H120      1.0  0.05487  0.26216  0.13278  1.0000
  H   H121      1.0  0.22523  0.04864  0.20178  1.0000
  H   H122      1.0  0.36252  0.37492  0.12999  1.0000
  C   C82       1.0  0.26251  0.99625  0.04257  1.0000
  C   C83       1.0  0.31924  0.18793  0.02317  1.0000
  C   C84       1.0  0.47877  0.43715  0.06283  1.0000
  H   H123      1.0  0.40561  0.28351  0.08379  1.0000
  C   C85       1.0  0.34015  0.20589  0.17877  1.0000
  C   C86       1.0  0.42028  0.20423  0.04507  1.0000
  C   C87       1.0  0.17237  0.39504  0.97614  1.0000
  S   S25       1.0  0.23729  0.35452  0.13457  1.0000
  H   H124      1.0  0.34883  0.21983  0.20322  1.0000
  C   C88       1.0  0.47262  0.96541  0.09765  1.0000
  H   H125      1.0  0.34470  0.34882  0.20157  1.0000
  H   H126      1.0  0.24115  0.06383  0.00762  1.0000
  H   H127      1.0  0.35998  0.97226  0.18770  1.0000
  H   H128      1.0  0.38762  0.28740  0.15149  1.0000
  H   H129      1.0  0.48620  0.42512  0.10546  1.0000
  H   H130      1.0  0.33936  0.18654  0.99044  1.0000
  N   N6        1.0  0.34206  0.32983  0.07601  1.0000
  Fe  Fe13      1.0  0.16006  0.15583  0.15742  1.0000
  C   C89       1.0  0.18519  0.07659  0.18722  1.0000
  Fe  Fe14      1.0  0.33213  0.44028  0.05061  1.0000
  C   C90       1.0  0.49117  0.38543  0.05587  1.0000
  S   S26       1.0  0.08932  0.36253  0.04170  1.0000
  H   H131      1.0  0.38793  0.19848  0.14847  1.0000
  H   H132      1.0  0.40479  0.32181  0.08721  1.0000
  H   H133      1.0  0.19567  0.11606  0.07221  1.0000
  H   H134      1.0  0.33512  0.14775  0.16242  1.0000
  H   H135      1.0  0.34259  0.07787  0.02578  1.0000
  H   H136      1.0  0.50120  0.37263  0.02687  1.0000
  S   S27       1.0  0.53553  0.10104  0.08036  1.0000
  C   C91       1.0  0.08737  0.02716  0.06526  1.0000
  H   H137      1.0  0.15969  0.42697  0.17785  1.0000
  S   S28       1.0  0.20305  0.98488  0.20932  1.0000
  H   H138      1.0  0.36294  0.13663  0.99982  1.0000
  H   H139      1.0  0.42611  0.03125  0.18797  1.0000
  H   H140      1.0  0.32214  0.30951  0.16922  1.0000
  H   H141      1.0  0.06019  0.27800  0.99845  1.0000
  H   H142      1.0  0.15213  0.08675  0.04630  1.0000
  C   C92       1.0  0.41970  0.02083  0.15647  1.0000
  H   H143      1.0  0.20909  0.29000  0.19753  1.0000
  H   H144      1.0  0.43728  0.20644  0.00466  1.0000
  H   H145      1.0  0.23804  0.00300  0.05133  1.0000
  S   S29       1.0  0.19555  0.25882  0.98607  1.0000
  H   H146      1.0  0.37731  0.33652  0.16288  1.0000
  H   H147      1.0  0.53890  0.24536  0.20884  1.0000
  H   H148      1.0  0.18622  0.03973  0.99772  1.0000
  H   H149      1.0  0.29572  0.97437  0.09899  1.0000
  H   H150      1.0  0.17906  0.39495  0.06070  1.0000
  S   S30       1.0  0.48652  0.26889  0.97073  1.0000
  Fe  Fe15      1.0  0.49341  0.12909  0.07250  1.0000
  N   N7        1.0  0.35966  0.18915  0.08993  1.0000
  H   H151      1.0  0.44288  0.36349  0.06495  1.0000
  C   C93       1.0  0.38616  0.19737  0.03709  1.0000
  N   N8        1.0  0.48956  0.42046  0.02063  1.0000
  H   H152      1.0  0.27986  0.29782  0.13373  1.0000
  C   C94       1.0  0.16963  0.08292  0.01136  1.0000
  C   C95       1.0  0.27787  0.09673  0.18765  1.0000
  S   S31       1.0  0.46692  0.09578  0.04236  1.0000
  C   C96       1.0  0.52181  0.43412  0.98276  1.0000
  H   H153      1.0  0.20997  0.37826  0.02744  1.0000
  H   H154      1.0  0.37395  0.23286  0.10112  1.0000
  C   C97       1.0  0.35829  0.29969  0.08353  1.0000
  H   H155      1.0  0.33554  0.01941  0.05799  1.0000
  H   H156      1.0  0.06088  0.20432  0.12542  1.0000
  H   H157      1.0  0.26482  0.98824  0.00513  1.0000
  H   H158      1.0  0.42352  0.22734  0.05163  1.0000
  C   C98       1.0  0.48018  0.00774  0.00194  1.0000
  S   S32       1.0  0.08933  0.08994  0.99378  1.0000
  S   S33       1.0  0.38444  0.44081  0.02506  1.0000
  H   H159      1.0  0.16764  0.14392  0.00324  1.0000
  H   H160      1.0  0.44746  0.37806  0.12244  1.0000
  H   H161      1.0  0.50746  0.38268  0.08740  1.0000
  H   H162      1.0  0.19746  0.09825  0.18675  1.0000
  Fe  Fe16      1.0  0.26800  0.40118  0.10429  1.0000
  H   H163      1.0  0.38195  0.21925  0.00164  1.0000
  C   C99       1.0  0.51463  0.23222  0.08975  1.0000
  C   C100      1.0  0.06051  0.22801  0.09045  1.0000
  C   C101      1.0  0.15343  0.02076  0.18821  1.0000
  S   S34       1.0  0.50239  0.28873  0.10209  1.0000
  H   H164      1.0  0.25070  0.12737  0.07037  1.0000
  C   C102      1.0  0.06050  0.00586  0.16695  1.0000
  C   C103      1.0  0.15386  0.07653  0.17775  1.0000
  Fe  Fe17      1.0  0.21586  0.18609  0.18520  1.0000
  N   N9        1.0  0.37895  0.02540  0.08867  1.0000
  Fe  Fe18      1.0  0.08596  0.44759  0.12736  1.0000
  H   H165      1.0  0.33275  0.18116  0.21052  1.0000
  S   S35       1.0  0.20893  0.17550  0.10593  1.0000
  H   H166      1.0  0.08523  0.23986  0.07284  1.0000
  Fe  Fe19      1.0  0.15148  0.21257  0.19786  1.0000
  C   C104      1.0  0.33503  0.06381  0.07326  1.0000
  H   H167      1.0  0.51931  0.97981  0.20685  1.0000
  H   H168      1.0  0.10354  0.19667  0.97001  1.0000
  H   H169      1.0  0.14480  0.26760  0.11832  1.0000
  C   C105      1.0  0.10819  0.27149  0.18557  1.0000
  C   C106      1.0  0.26482  0.12452  0.19021  1.0000
  C   C107      1.0  0.38438  0.99156  0.09373  1.0000
  H   H170      1.0  0.13394  0.31603  0.04071  1.0000
  H   H171      1.0  0.07097  0.08552  0.21394  1.0000
  H   H172      1.0  0.44132  0.41419  0.00744  1.0000
  H   H173      1.0  0.13785  0.34262  0.19293  1.0000
  C   C108      1.0  0.21213  0.10709  0.04320  1.0000
  C   C109      1.0  0.07839  0.00128  0.11870  1.0000
  C   C110      1.0  0.45927  0.36650  0.09292  1.0000
  H   H174      1.0  0.38356  0.36509  0.05076  1.0000
  C   C111      1.0  0.46583  0.42177  0.98151  1.0000
  H   H175      1.0  0.36106  0.29383  0.04317  1.0000
  H   H176      1.0  0.08486  0.97773  0.12212  1.0000
  C   C112      1.0  0.24480  0.12657  0.02919  1.0000
  H   H177      1.0  0.39012  0.05904  0.12950  1.0000
  H   H178      1.0  0.27990  0.01789  0.02793  1.0000
  C   C113      1.0  0.39938  0.04837  0.03281  1.0000
  H   H179      1.0  0.36743  0.04723  0.97137  1.0000
  S   S36       1.0  0.13938  0.20218  0.12214  1.0000
  H   H180      1.0  0.53520  0.24598  0.05819  1.0000
  C   C114      1.0  0.12621  0.28134  0.12878  1.0000
  H   H181      1.0  0.31078  0.34804  0.13241  1.0000
  C   C115      1.0  0.12033  0.30918  0.08471  1.0000
  S   S37       1.0  0.51224  0.01754  0.08197  1.0000
  C   C116      1.0  0.39272  0.04594  0.97542  1.0000
  H   H182      1.0  0.30518  0.16402  0.04442  1.0000
  H   H183      1.0  0.31921  0.32414  0.00789  1.0000
  C   C117      1.0  0.36632  0.96457  0.15003  1.0000
  S   S38       1.0  0.20052  0.23576  0.15168  1.0000
  C   C118      1.0  0.38284  0.13625  0.14274  1.0000
  H   H184      1.0  0.46366  0.34201  0.12064  1.0000
  H   H185      1.0  0.37459  0.11101  0.17224  1.0000
  C   C119      1.0  0.18487  0.02064  0.19622  1.0000
  Fe  Fe20      1.0  0.18913  0.22296  0.07727  1.0000
  C   C120      1.0  0.46738  0.23019  0.15935  1.0000
  C   C121      1.0  0.45990  0.19776  0.16821  1.0000
  H   H186      1.0  0.15796  0.37140  0.99950  1.0000
  H   H187      1.0  0.15319  0.03226  0.05558  1.0000
  H   H188      1.0  0.39761  0.07368  0.02944  1.0000
  H   H189      1.0  0.24932  0.13571  0.16097  1.0000
  H   H190      1.0  0.25807  0.97704  0.13481  1.0000
  H   H191      1.0  0.29580  0.27518  0.08979  1.0000
  C   C122      1.0  0.48649  0.99570  0.05878  1.0000
  H   H192      1.0  0.15505  0.41311  0.97449  1.0000
  S   S39       1.0  0.53334  0.39503  0.18501  1.0000
  H   H193      1.0  0.42712  0.18486  0.08159  1.0000
  C   C123      1.0  0.35575  0.34919  0.15765  1.0000
  H   H194      1.0  0.30874  0.19211  0.10629  1.0000
  Fe  Fe21      1.0  0.50009  0.30559  0.00706  1.0000
  H   H195      1.0  0.52190  0.18893  0.07245  1.0000
  H   H196      1.0  0.27216  0.08660  0.15653  1.0000
  S   S40       1.0  0.46336  0.33722  0.97266  1.0000
  H   H197      1.0  0.33048  0.22698  0.05135  1.0000
  H   H198      1.0  0.40100  0.02375  0.97040  1.0000
  Fe  Fe22      1.0  0.51101  0.07060  0.04258  1.0000
  H   H199      1.0  0.31721  0.96396  0.01563  1.0000
  H   H200      1.0  0.20826  0.42125  0.00256  1.0000
  C   C124      1.0  0.07887  0.31814  0.15427  1.0000
  H   H201      1.0  0.41752  0.99432  0.17883  1.0000
  C   C125      1.0  0.17613  0.04733  0.03423  1.0000
  S   S41       1.0  0.30792  0.41341  0.14327  1.0000
  H   H202      1.0  0.38678  0.17813  0.01874  1.0000
  H   H203      1.0  0.06010  0.33189  0.16428  1.0000
  S   S42       1.0  0.13385  0.11103  0.16174  1.0000
  H   H204      1.0  0.15651  0.20265  0.99455  1.0000
  C   C126      1.0  0.46070  0.98874  0.98368  1.0000
  H   H205      1.0  0.45159  0.24221  0.18156  1.0000
  C   C127      1.0  0.49486  0.24733  0.12027  1.0000
  H   H206      1.0  0.36941  0.02261  0.17933  1.0000
  C   C128      1.0  0.27013  0.97064  0.09791  1.0000
  H   H207      1.0  0.45233  0.43507  0.07405  1.0000
  C   C129      1.0  0.19414  0.39773  0.01800  1.0000
  H   H208      1.0  0.19578  0.33664  0.99158  1.0000
  H   H209      1.0  0.42488  0.04475  0.03264  1.0000
  H   H210      1.0  0.32966  0.01469  0.13267  1.0000
  C   C130      1.0  0.32942  0.20022  0.06907  1.0000
  H   H211      1.0  0.34465  0.14100  0.09658  1.0000
  C   C131      1.0  0.38813  0.03270  0.13913  1.0000
  H   H212      1.0  0.42164  0.13650  0.98034  1.0000
  H   H213      1.0  0.34910  0.38114  0.02811  1.0000
  C   C132      1.0  0.07816  0.05752  0.06008  1.0000
  C   C133      1.0  0.44673  0.95846  0.02283  1.0000
  C   C134      1.0  0.14494  0.22372  0.97439  1.0000
  C   C135      1.0  0.28752  0.29857  0.08854  1.0000
  H   H214      1.0  0.39531  0.14731  0.16759  1.0000
  H   H215      1.0  0.49089  0.03125  0.97188  1.0000
  S   S43       1.0  0.46931  0.14267  0.14659  1.0000
  H   H216      1.0  0.21502  0.08244  0.07157  1.0000
  N   N10       1.0  0.19790  0.10793  0.99123  1.0000
  H   H217      1.0  0.19112  0.04120  0.06787  1.0000
  S   S44       1.0  0.51407  0.16347  0.98153  1.0000
  H   H218      1.0  0.30451  0.20524  0.99708  1.0000
  C   C136      1.0  0.36258  0.35975  0.03388  1.0000
  C   C137      1.0  0.34419  0.02917  0.08883  1.0000
  C   C138      1.0  0.39067  0.29835  0.10301  1.0000
  H   H219      1.0  0.26593  0.30124  0.06861  1.0000
  H   H220      1.0  0.26383  0.11474  0.01137  1.0000
  H   H221      1.0  0.39985  0.13514  0.10484  1.0000
  H   H222      1.0  0.34488  0.07646  0.09872  1.0000
  C   C139      1.0  0.47955  0.18277  0.13694  1.0000
  H   H223      1.0  0.41005  0.98840  0.08906  1.0000
  S   S45       1.0  0.24375  0.44445  0.10365  1.0000
  S   S46       1.0  0.08852  0.39462  0.16038  1.0000
  C   C140      1.0  0.33123  0.33328  0.13434  1.0000
  H   H224      1.0  0.43975  0.02818  0.11871  1.0000
  H   H225      1.0  0.11402  0.04848  0.17114  1.0000
  C   C141      1.0  0.13809  0.04856  0.17872  1.0000
  H   H226      1.0  0.24562  0.15174  0.99881  1.0000
  C   C142      1.0  0.20095  0.04870  0.19525  1.0000
  C   C143      1.0  0.08405  0.28964  0.19787  1.0000
  H   H227      1.0  0.15689  0.08518  0.97504  1.0000
  H   H228      1.0  0.14079  0.99968  0.18799  1.0000
  H   H229      1.0  0.43854  0.18452  0.19825  1.0000
  Fe  Fe23      1.0  0.06769  0.39556  0.08324  1.0000
  H   H230      1.0  0.47700  0.95624  0.14194  1.0000
  H   H231      1.0  0.06445  0.13947  0.15985  1.0000
  C   C144      1.0  0.55002  0.42851  0.01502  1.0000
  H   H232      1.0  0.54502  0.43292  0.05655  1.0000
  H   H233      1.0  0.54404  0.14416  0.15144  1.0000
  H   H234      1.0  0.55139  0.23271  0.96801  1.0000
  H   H235      1.0  0.38996  0.33937  0.97425  1.0000
  C   C145      1.0  0.17380  0.41599  0.21217  1.0000
  H   H236      1.0  0.34420  0.95476  0.14196  1.0000
  H   H237      1.0  0.49175  0.33720  0.21434  1.0000
  C   C146      1.0  0.18565  0.14055  0.96846  1.0000
  H   H238      1.0  0.15169  0.39762  0.33607  1.0000
  C   C147      1.0  0.52982  0.15843  0.35380  1.0000
  S   S47       1.0  0.33873  0.21862  0.40557  1.0000
  H   H239      1.0  0.46961  0.01215  0.41687  1.0000
  S   S48       1.0  0.39618  0.21633  0.26881  1.0000
  H   H240      1.0  0.53362  0.13740  0.34046  1.0000
  C   C148      1.0  0.23006  0.16620  0.39201  1.0000
  H   H241      1.0  0.25999  0.12970  0.37876  1.0000
  H   H242      1.0  0.49309  0.19787  0.38613  1.0000
  S   S49       1.0  0.44177  0.97454  0.30187  1.0000
  H   H243      1.0  0.28041  0.96838  0.31328  1.0000
  H   H244      1.0  0.15928  0.22128  0.36818  1.0000
  H   H245      1.0  0.45341  0.04389  0.25649  1.0000
  H   H246      1.0  0.49935  0.96235  0.34694  1.0000
  C   C149      1.0  0.49310  0.38480  0.21726  1.0000
  Fe  Fe24      1.0  0.31061  0.25964  0.36844  1.0000
  H   H247      1.0  0.36426  0.34413  0.44169  1.0000
  C   C150      1.0  0.11567  0.43987  0.28737  1.0000
  C   C151      1.0  0.07597  0.13333  0.27108  1.0000
  N   N11       1.0  0.51033  0.18125  0.31589  1.0000
  H   H248      1.0  0.10228  0.44359  0.41718  1.0000
  H   H249      1.0  0.49421  0.13770  0.26234  1.0000
  H   H250      1.0  0.23596  0.17927  0.34365  1.0000
  H   H251      1.0  0.06540  0.03537  0.28980  1.0000
  H   H252      1.0  0.06345  0.15281  0.24458  1.0000
  H   H253      1.0  0.23604  0.33221  0.42214  1.0000
  H   H254      1.0  0.43399  0.32390  0.25567  1.0000
  S   S50       1.0  0.38837  0.04430  0.29371  1.0000
  S   S51       1.0  0.25708  0.17360  0.23138  1.0000
  H   H255      1.0  0.27290  0.35822  0.22170  1.0000
  H   H256      1.0  0.23676  0.05823  0.29543  1.0000
  H   H257      1.0  0.41877  0.35840  0.39493  1.0000
  H   H258      1.0  0.37916  0.15853  0.25063  1.0000
  H   H259      1.0  0.27879  0.15814  0.40137  1.0000
  H   H260      1.0  0.18300  0.18340  0.33283  1.0000
  N   N12       1.0  0.21198  0.99281  0.37851  1.0000
  C   C152      1.0  0.48161  0.37339  0.38072  1.0000
  C   C153      1.0  0.17193  0.20386  0.39893  1.0000
  H   H261      1.0  0.14171  0.98052  0.39650  1.0000
  H   H262      1.0  0.51691  0.14867  0.40014  1.0000
  H   H263      1.0  0.50820  0.19933  0.22441  1.0000
  H   H264      1.0  0.27119  0.96019  0.38967  1.0000
  C   C154      1.0  0.19043  0.44219  0.22796  1.0000
  H   H265      1.0  0.09502  0.12598  0.35207  1.0000
  H   H266      1.0  0.28230  0.31676  0.31242  1.0000
  N   N13       1.0  0.17676  0.44528  0.28544  1.0000
  S   S52       1.0  0.33157  0.29046  0.40995  1.0000
  H   H267      1.0  0.44471  0.31425  0.39424  1.0000
  H   H268      1.0  0.07790  0.36803  0.33837  1.0000
  H   H269      1.0  0.05971  0.35071  0.41344  1.0000
  H   H270      1.0  0.18772  0.02255  0.31209  1.0000
  H   H271      1.0  0.10146  0.22511  0.41218  1.0000
  H   H272      1.0  0.46551  0.15513  0.36911  1.0000
  H   H273      1.0  0.20567  0.38500  0.30269  1.0000
  C   C155      1.0  0.47875  0.29097  0.44589  1.0000
  H   H274      1.0  0.47541  0.35953  0.35438  1.0000
  C   C156      1.0  0.47818  0.35462  0.22611  1.0000
  C   C157      1.0  0.44552  0.34704  0.24970  1.0000
  C   C158      1.0  0.47868  0.16288  0.32306  1.0000
  H   H275      1.0  0.22257  0.40663  0.34167  1.0000
  C   C159      1.0  0.41457  0.34956  0.44365  1.0000
  H   H276      1.0  0.14776  0.10037  0.44209  1.0000
  H   H277      1.0  0.49543  0.08031  0.26412  1.0000
  H   H278      1.0  0.10383  0.08087  0.28557  1.0000
  H   H279      1.0  0.08482  0.07731  0.35664  1.0000
  H   H280      1.0  0.11185  0.25421  0.44260  1.0000
  H   H281      1.0  0.29962  0.13415  0.29689  1.0000
  H   H282      1.0  0.16359  0.33961  0.24322  1.0000
  H   H283      1.0  0.49911  0.30836  0.41684  1.0000
  H   H284      1.0  0.48817  0.11240  0.33951  1.0000
  C   C160      1.0  0.06856  0.04030  0.32935  1.0000
  C   C161      1.0  0.38251  0.11970  0.33000  1.0000
  Fe  Fe25      1.0  0.33386  0.97467  0.41924  1.0000
  C   C162      1.0  0.08013  0.07592  0.31511  1.0000
  H   H285      1.0  0.32849  0.44180  0.25239  1.0000
  H   H286      1.0  0.50234  0.05643  0.42826  1.0000
  H   H287      1.0  0.53828  0.17371  0.24173  1.0000
  C   C163      1.0  0.22953  0.27249  0.27515  1.0000
  C   C164      1.0  0.49631  0.05462  0.28266  1.0000
  H   H288      1.0  0.44997  0.04660  0.41600  1.0000
  H   H289      1.0  0.23788  0.00032  0.29154  1.0000
  H   H290      1.0  0.17496  0.29753  0.31576  1.0000
  C   C165      1.0  0.08068  0.35017  0.38105  1.0000
  H   H291      1.0  0.23337  0.18502  0.41034  1.0000
  H   H292      1.0  0.32404  0.12311  0.43920  1.0000
  H   H293      1.0  0.47829  0.27017  0.43143  1.0000
  H   H294      1.0  0.13287  0.31083  0.41619  1.0000
  C   C166      1.0  0.46031  0.02577  0.44450  1.0000
  H   H295      1.0  0.22771  0.05715  0.37001  1.0000
  H   H296      1.0  0.05970  0.14684  0.34742  1.0000
  Fe  Fe26      1.0  0.39633  0.99244  0.33044  1.0000
  H   H297      1.0  0.11785  0.42821  0.25476  1.0000
  C   C167      1.0  0.27225  0.13796  0.22990  1.0000
  C   C168      1.0  0.48118  0.23176  0.30808  1.0000
  H   H298      1.0  0.16337  0.27161  0.39142  1.0000
  H   H299      1.0  0.15737  0.19733  0.44345  1.0000
  H   H300      1.0  0.18863  0.30785  0.37101  1.0000
  H   H301      1.0  0.10199  0.35756  0.39490  1.0000
  H   H302      1.0  0.19511  0.37172  0.38055  1.0000
  H   H303      1.0  0.40657  0.18636  0.38520  1.0000
  C   C169      1.0  0.09729  0.24924  0.41328  1.0000
  C   C170      1.0  0.52119  0.04207  0.31053  1.0000
  H   H304      1.0  0.26002  0.01398  0.33429  1.0000
  H   H305      1.0  0.12613  0.26747  0.32663  1.0000
  S   S53       1.0  0.34732  0.97384  0.32874  1.0000
  H   H306      1.0  0.11383  0.35633  0.27756  1.0000
  S   S54       1.0  0.38688  0.36148  0.29208  1.0000
  C   C171      1.0  0.44690  0.30575  0.44110  1.0000
  C   C172      1.0  0.29786  0.08178  0.22592  1.0000
  C   C173      1.0  0.29292  0.12341  0.26725  1.0000
  C   C174      1.0  0.47317  0.00060  0.30216  1.0000
  C   C175      1.0  0.42776  0.36991  0.26319  1.0000
  H   H307      1.0  0.08534  0.27125  0.32861  1.0000
  C   C176      1.0  0.11283  0.44635  0.45315  1.0000
  S   S55       1.0  0.34534  0.28190  0.28390  1.0000
  H   H308      1.0  0.05926  0.31092  0.36383  1.0000
  C   C177      1.0  0.11252  0.33071  0.28231  1.0000
  S   S56       1.0  0.54996  0.06799  0.31895  1.0000
  H   H309      1.0  0.06906  0.28162  0.24077  1.0000
  C   C178      1.0  0.26039  0.96421  0.35052  1.0000
  C   C179      1.0  0.08078  0.31585  0.38004  1.0000
  C   C180      1.0  0.49859  0.98808  0.32851  1.0000
  C   C181      1.0  0.50375  0.20802  0.33848  1.0000
  C   C182      1.0  0.39334  0.17601  0.31379  1.0000
  H   H310      1.0  0.15016  0.16307  0.39016  1.0000
  H   H311      1.0  0.17511  0.02447  0.38190  1.0000
  C   C183      1.0  0.19500  0.12328  0.38787  1.0000
  C   C184      1.0  0.39859  0.13533  0.40572  1.0000
  C   C185      1.0  0.39982  0.16771  0.37007  1.0000
  Fe  Fe27      1.0  0.33847  0.02575  0.29842  1.0000
  H   H312      1.0  0.07173  0.24789  0.43259  1.0000
  H   H313      1.0  0.16531  0.41715  0.37845  1.0000
  C   C186      1.0  0.16781  0.29694  0.36077  1.0000
  C   C187      1.0  0.19652  0.02296  0.35143  1.0000
  H   H314      1.0  0.42915  0.41805  0.26276  1.0000
  C   C188      1.0  0.21857  0.99192  0.43684  1.0000
  H   H315      1.0  0.48701  0.23976  0.25976  1.0000
  H   H316      1.0  0.14406  0.30380  0.23973  1.0000
  H   H317      1.0  0.36519  0.42611  0.26197  1.0000
  H   H318      1.0  0.08696  0.02513  0.34793  1.0000
  C   C189      1.0  0.47073  0.35558  0.44749  1.0000
  C   C190      1.0  0.26611  0.31091  0.28772  1.0000
  C   C191      1.0  0.22470  0.29595  0.22308  1.0000
  S   S57       1.0  0.53640  0.39862  0.45601  1.0000
  H   H319      1.0  0.46328  0.17844  0.29540  1.0000
  H   H320      1.0  0.20980  0.10430  0.40905  1.0000
  H   H321      1.0  0.09925  0.13522  0.24208  1.0000
  H   H322      1.0  0.07642  0.29948  0.42654  1.0000
  C   C192      1.0  0.52635  0.19314  0.25223  1.0000
  H   H323      1.0  0.45523  0.12452  0.30487  1.0000
  H   H324      1.0  0.09052  0.32648  0.26655  1.0000
  H   H325      1.0  0.14814  0.11965  0.36455  1.0000
  Fe  Fe28      1.0  0.37486  0.24292  0.32359  1.0000
  C   C193      1.0  0.38978  0.11137  0.38580  1.0000
  C   C194      1.0  0.08212  0.14327  0.32210  1.0000
  H   H326      1.0  0.25580  0.27982  0.45026  1.0000
  H   H327      1.0  0.47133  0.39672  0.36587  1.0000
  H   H328      1.0  0.21789  0.24840  0.28930  1.0000
  C   C195      1.0  0.52792  0.95587  0.22487  1.0000
  H   H329      1.0  0.21600  0.43804  0.22560  1.0000
  C   C196      1.0  0.10521  0.27451  0.35029  1.0000
  H   H330      1.0  0.38212  0.30735  0.45719  1.0000
  S   S58       1.0  0.11577  0.23659  0.24093  1.0000
  Fe  Fe29      1.0  0.37223  0.03920  0.38719  1.0000
  H   H331      1.0  0.18687  0.96566  0.33936  1.0000
  H   H332      1.0  0.45606  0.22110  0.32335  1.0000
  C   C197      1.0  0.38471  0.15207  0.29370  1.0000
  H   H333      1.0  0.14774  0.34171  0.34828  1.0000
  H   H334      1.0  0.48274  0.25345  0.31977  1.0000
  Fe  Fe30      1.0  0.36247  0.25103  0.44112  1.0000
  H   H335      1.0  0.40411  0.12876  0.44888  1.0000
  C   C198      1.0  0.21752  0.05501  0.33320  1.0000
  C   C199      1.0  0.15596  0.96168  0.41985  1.0000
  C   C200      1.0  0.25061  0.27990  0.30694  1.0000
  H   H336      1.0  0.20299  0.07529  0.31803  1.0000
  C   C201      1.0  0.47973  0.13275  0.30639  1.0000
  C   C202      1.0  0.13901  0.31574  0.36856  1.0000
  H   H337      1.0  0.54779  0.29561  0.24697  1.0000
  S   S59       1.0  0.32146  0.02527  0.38872  1.0000
  S   S60       1.0  0.25878  0.25021  0.36925  1.0000
  C   C203      1.0  0.16169  0.10568  0.39757  1.0000
  H   H338      1.0  0.52581  0.22252  0.33581  1.0000
  S   S61       1.0  0.38369  0.98867  0.42364  1.0000
  H   H339      1.0  0.20529  0.13207  0.34006  1.0000
  H   H340      1.0  0.10772  0.42187  0.33229  1.0000
  S   S62       1.0  0.16757  0.16383  0.23807  1.0000
  S   S63       1.0  0.38763  0.07119  0.43154  1.0000
  Fe  Fe31      1.0  0.36918  0.30909  0.32863  1.0000
  C   C204      1.0  0.14126  0.32858  0.23800  1.0000
  N   N14       1.0  0.11020  0.30899  0.34541  1.0000
  H   H341      1.0  0.37176  0.44281  0.37719  1.0000
  C   C205      1.0  0.55051  0.22346  0.22939  1.0000
  H   H342      1.0  0.15823  0.39719  0.24926  1.0000
  S   S64       1.0  0.31231  0.04590  0.22495  1.0000
  C   C206      1.0  0.17493  0.17432  0.38132  1.0000
  C   C207      1.0  0.44276  0.40015  0.25349  1.0000
  N   N15       1.0  0.19640  0.15031  0.41071  1.0000
  H   H343      1.0  0.30438  0.41133  0.35547  1.0000
  C   C208      1.0  0.26093  0.33441  0.23611  1.0000
  C   C209      1.0  0.47231  0.03390  0.27863  1.0000
  C   C210      1.0  0.30564  0.09530  0.26537  1.0000
  H   H344      1.0  0.34271  0.39936  0.37264  1.0000
  H   H345      1.0  0.24067  0.00759  0.43066  1.0000
  C   C211      1.0  0.24245  0.99437  0.33682  1.0000
  S   S65       1.0  0.54017  0.44676  0.28805  1.0000
  H   H346      1.0  0.50786  0.37800  0.37010  1.0000
  H   H347      1.0  0.32184  0.08449  0.29382  1.0000
  C   C212      1.0  0.52261  0.00882  0.33259  1.0000
  C   C213      1.0  0.34513  0.43547  0.28356  1.0000
  H   H348      1.0  0.37518  0.10135  0.31468  1.0000
  H   H349      1.0  0.32473  0.38559  0.32468  1.0000
  S   S66       1.0  0.40142  0.27150  0.36220  1.0000
  C   C214      1.0  0.20068  0.39345  0.33980  1.0000
  H   H350      1.0  0.19516  0.21656  0.39566  1.0000
  H   H351      1.0  0.54208  0.99896  0.35297  1.0000
  C   C215      1.0  0.32836  0.40655  0.33778  1.0000
  C   C216      1.0  0.17198  0.41349  0.33616  1.0000
  C   C217      1.0  0.25601  0.14350  0.40810  1.0000
  H   H352      1.0  0.16416  0.08231  0.39205  1.0000
  H   H353      1.0  0.39667  0.43813  0.31768  1.0000
  C   C218      1.0  0.18959  0.96472  0.38369  1.0000
  H   H354      1.0  0.48679  0.43098  0.22380  1.0000
  N   N16       1.0  0.05832  0.10044  0.28834  1.0000
  H   H355      1.0  0.19914  0.00189  0.45853  1.0000
  H   H356      1.0  0.41289  0.37169  0.45414  1.0000
  H   H357      1.0  0.09709  0.16668  0.30383  1.0000
  H   H358      1.0  0.25012  0.12637  0.45410  1.0000
  C   C219      1.0  0.47544  0.40744  0.23147  1.0000
  S   S67       1.0  0.21369  0.41881  0.45252  1.0000
  H   H359      1.0  0.05449  0.95548  0.39110  1.0000
  H   H360      1.0  0.15653  0.96226  0.46369  1.0000
  H   H361      1.0  0.42797  0.28543  0.46312  1.0000
  H   H362      1.0  0.27473  0.30503  0.47831  1.0000
  C   C220      1.0  0.32359  0.12878  0.47933  1.0000
  H   H363      1.0  0.48143  0.31683  0.67648  1.0000
  C   C221      1.0  0.40845  0.21516  0.52818  1.0000
  S   S68       1.0  0.27771  0.24287  0.70781  1.0000
  H   H364      1.0  0.34080  0.15022  0.46718  1.0000
  H   H365      1.0  0.26359  0.33855  0.69325  1.0000
  H   H366      1.0  0.06763  0.45244  0.64005  1.0000
  H   H367      1.0  0.16582  0.33484  0.68582  1.0000
  S   S69       1.0  0.14292  0.35517  0.49044  1.0000
  C   C222      1.0  0.26177  0.30471  0.58938  1.0000
  H   H368      1.0  0.26975  0.23172  0.60272  1.0000
  C   C223      1.0  0.12403  0.10772  0.69263  1.0000
  H   H369      1.0  0.37309  0.39233  0.60475  1.0000
  H   H370      1.0  0.14230  0.12874  0.67250  1.0000
  H   H371      1.0  0.11516  0.42255  0.48544  1.0000
  C   C224      1.0  0.46100  0.18052  0.52120  1.0000
  H   H372      1.0  0.32024  0.07818  0.52650  1.0000
  H   H373      1.0  0.32992  0.03505  0.59420  1.0000
  H   H374      1.0  0.22359  0.19909  0.61784  1.0000
  H   H375      1.0  0.33122  0.13093  0.67073  1.0000
  S   S70       1.0  0.55087  0.17988  0.60968  1.0000
  H   H376      1.0  0.42641  0.00468  0.59612  1.0000
  H   H377      1.0  0.19150  0.11156  0.49560  1.0000
  H   H378      1.0  0.33968  0.15381  0.55654  1.0000
  S   S71       1.0  0.12468  0.06165  0.57101  1.0000
  C   C225      1.0  0.35395  0.13471  0.63955  1.0000
  H   H379      1.0  0.13505  0.08527  0.71060  1.0000
  H   H380      1.0  0.23658  0.96183  0.51229  1.0000
  H   H381      1.0  0.08251  0.40926  0.56852  1.0000
  H   H382      1.0  0.35684  0.35670  0.66476  1.0000
  H   H383      1.0  0.47699  0.19925  0.69249  1.0000
  S   S72       1.0  0.06031  0.06702  0.47446  1.0000
  C   C226      1.0  0.25012  0.13533  0.69898  1.0000
  C   C227      1.0  0.11918  0.24944  0.60843  1.0000
  C   C228      1.0  0.22244  0.01840  0.62132  1.0000
  C   C229      1.0  0.34041  0.07303  0.62864  1.0000
  C   C230      1.0  0.32573  0.03976  0.63548  1.0000
  H   H384      1.0  0.30019  0.03589  0.65515  1.0000
  C   C231      1.0  0.10829  0.29649  0.53058  1.0000
  H   H385      1.0  0.37344  0.39130  0.67653  1.0000
  H   H386      1.0  0.45364  0.09919  0.55837  1.0000
  H   H387      1.0  0.07607  0.35743  0.64193  1.0000
  Fe  Fe32      1.0  0.09432  0.03918  0.52744  1.0000
  C   C232      1.0  0.29486  0.10534  0.61054  1.0000
  C   C233      1.0  0.21505  0.24332  0.54743  1.0000
  C   C234      1.0  0.15084  0.30054  0.58058  1.0000
  Fe  Fe33      1.0  0.10703  0.01710  0.65054  1.0000
  H   H388      1.0  0.29178  0.10097  0.65804  1.0000
  H   H389      1.0  0.21359  0.29031  0.58802  1.0000
  H   H390      1.0  0.09351  0.30787  0.49974  1.0000
  S   S73       1.0  0.14739  0.99021  0.63037  1.0000
  C   C235      1.0  0.27902  0.22337  0.52195  1.0000
  H   H391      1.0  0.45319  0.98233  0.56360  1.0000
  H   H392      1.0  0.26465  0.32648  0.54927  1.0000
  C   C236      1.0  0.22689  0.31455  0.46709  1.0000
  H   H393      1.0  0.44645  0.14357  0.68476  1.0000
  Fe  Fe34      1.0  0.53740  0.18222  0.52583  1.0000
  H   H394      1.0  0.37044  0.11785  0.66092  1.0000
  H   H395      1.0  0.45547  0.30437  0.54808  1.0000
  H   H396      1.0  0.37291  0.32435  0.51300  1.0000
  H   H397      1.0  0.49056  0.11579  0.64130  1.0000
  H   H398      1.0  0.29421  0.26269  0.54437  1.0000
  C   C237      1.0  0.43320  0.21802  0.55694  1.0000
  H   H399      1.0  0.26313  0.39089  0.66932  1.0000
  S   S74       1.0  0.07501  0.99610  0.60809  1.0000
  H   H400      1.0  0.25410  0.31218  0.62708  1.0000
  H   H401      1.0  0.41471  0.09049  0.54995  1.0000
  H   H402      1.0  0.50667  0.22529  0.63424  1.0000
  H   H403      1.0  0.43121  0.06083  0.60411  1.0000
  C   C238      1.0  0.42608  0.33862  0.56594  1.0000
  H   H404      1.0  0.43213  0.23401  0.58095  1.0000
  C   C239      1.0  0.50513  0.07501  0.51094  1.0000
  H   H405      1.0  0.19550  0.18047  0.49645  1.0000
  H   H406      1.0  0.40565  0.42327  0.48404  1.0000
  H   H407      1.0  0.54180  0.04735  0.55321  1.0000
  C   C240      1.0  0.43610  0.17742  0.49340  1.0000
  C   C241      1.0  0.22108  0.95862  0.48280  1.0000
  H   H408      1.0  0.19405  0.25701  0.54107  1.0000
  H   H409      1.0  0.54041  0.43258  0.71125  1.0000
  C   C242      1.0  0.41003  0.19502  0.49623  1.0000
  C   C243      1.0  0.38151  0.42964  0.48783  1.0000
  C   C244      1.0  0.08376  0.43919  0.61904  1.0000
  H   H410      1.0  0.23197  0.26041  0.63513  1.0000
  C   C245      1.0  0.32658  0.39652  0.65010  1.0000
  C   C246      1.0  0.44867  0.06538  0.51254  1.0000
  H   H411      1.0  0.28702  0.44698  0.62984  1.0000
  H   H412      1.0  0.54185  0.31439  0.64328  1.0000
  H   H413      1.0  0.11363  0.10593  0.65577  1.0000
  H   H414      1.0  0.16900  0.31491  0.58804  1.0000
  H   H415      1.0  0.36103  0.38483  0.48842  1.0000
  H   H416      1.0  0.22622  0.14305  0.62639  1.0000
  H   H417      1.0  0.28517  0.29543  0.59366  1.0000
  C   C247      1.0  0.23790  0.99883  0.66408  1.0000
  C   C248      1.0  0.06793  0.42741  0.57767  1.0000
  H   H418      1.0  0.44109  0.00975  0.47916  1.0000
  H   H419      1.0  0.47917  0.20346  0.57410  1.0000
  H   H420      1.0  0.36474  0.15945  0.63006  1.0000
  C   C249      1.0  0.35918  0.38317  0.65003  1.0000
  H   H421      1.0  0.29936  0.13449  0.49285  1.0000
  H   H422      1.0  0.27614  0.06666  0.58255  1.0000
  H   H423      1.0  0.08258  0.24968  0.55854  1.0000
  N   N17       1.0  0.24370  0.26481  0.54442  1.0000
  H   H424      1.0  0.22263  0.32851  0.49600  1.0000
  C   C250      1.0  0.49598  0.21907  0.68110  1.0000
  Fe  Fe35      1.0  0.19776  0.45193  0.49832  1.0000
  C   C251      1.0  0.54685  0.36159  0.50002  1.0000
  C   C252      1.0  0.43468  0.31615  0.53202  1.0000
  C   C253      1.0  0.53968  0.35189  0.56106  1.0000
  H   H425      1.0  0.33697  0.02111  0.66687  1.0000
  C   C254      1.0  0.33310  0.09986  0.52717  1.0000
  C   C255      1.0  0.34936  0.13135  0.58160  1.0000
  C   C256      1.0  0.43690  0.07956  0.55948  1.0000
  C   C257      1.0  0.25185  0.29064  0.48419  1.0000
  C   C258      1.0  0.09856  0.34668  0.64873  1.0000
  S   S75       1.0  0.21152  0.36434  0.58005  1.0000
  H   H426      1.0  0.11270  0.35099  0.60482  1.0000
  H   H427      1.0  0.19499  0.22201  0.64240  1.0000
  C   C259      1.0  0.45978  0.20096  0.55279  1.0000
  C   C260      1.0  0.10159  0.26376  0.56513  1.0000
  C   C261      1.0  0.18544  0.13669  0.47653  1.0000
  C   C262      1.0  0.32547  0.41670  0.49323  1.0000
  S   S76       1.0  0.15901  0.41632  0.56379  1.0000
  C   C263      1.0  0.26820  0.08362  0.60350  1.0000
  H   H428      1.0  0.30180  0.21331  0.53045  1.0000
  H   H429      1.0  0.33600  0.07354  0.67356  1.0000
  H   H430      1.0  0.28931  0.13051  0.58988  1.0000
  H   H431      1.0  0.25392  0.06897  0.64731  1.0000
  H   H432      1.0  0.11270  0.35912  0.66940  1.0000
  H   H433      1.0  0.08909  0.41808  0.65513  1.0000
  H   H434      1.0  0.22891  0.99493  0.70918  1.0000
  C   C264      1.0  0.23617  0.27928  0.59056  1.0000
  H   H435      1.0  0.50848  0.05229  0.67298  1.0000
  H   H436      1.0  0.41920  0.32383  0.61341  1.0000
  H   H437      1.0  0.29816  0.98164  0.57605  1.0000
  C   C265      1.0  0.19878  0.15463  0.51205  1.0000
  C   C266      1.0  0.26486  0.98492  0.64827  1.0000
  S   S77       1.0  0.29514  0.39034  0.49101  1.0000
  S   S78       1.0  0.37630  0.23794  0.52899  1.0000
  C   C267      1.0  0.47719  0.02306  0.57579  1.0000
  H   H438      1.0  0.40548  0.35186  0.55351  1.0000
  H   H439      1.0  0.52851  0.36766  0.58107  1.0000
  H   H440      1.0  0.07235  0.06739  0.64088  1.0000
  H   H441      1.0  0.42812  0.21967  0.68607  1.0000
  Fe  Fe36      1.0  0.11695  0.97310  0.58072  1.0000
  H   H442      1.0  0.15904  0.13489  0.48813  1.0000
  H   H443      1.0  0.42860  0.04830  0.51515  1.0000
  H   H444      1.0  0.45125  0.97861  0.63774  1.0000
  C   C268      1.0  0.09281  0.31037  0.68382  1.0000
  N   N18       1.0  0.47914  0.04963  0.51718  1.0000
  H   H445      1.0  0.45104  0.08504  0.46884  1.0000
  C   C269      1.0  0.44270  0.12013  0.67977  1.0000
  C   C270      1.0  0.20639  0.09955  0.69867  1.0000
  H   H446      1.0  0.18467  0.19915  0.60111  1.0000
  H   H447      1.0  0.50077  0.08395  0.54760  1.0000
  C   C271      1.0  0.22722  0.12771  0.67061  1.0000
  H   H448      1.0  0.22433  0.15187  0.51245  1.0000
  H   H449      1.0  0.11669  0.30189  0.68673  1.0000
  H   H450      1.0  0.41497  0.29635  0.54710  1.0000
  C   C272      1.0  0.35645  0.40801  0.49014  1.0000
  Fe  Fe37      1.0  0.17698  0.38242  0.52066  1.0000
  S   S79       1.0  0.13354  0.01432  0.49596  1.0000
  S   S80       1.0  0.49334  0.15850  0.51564  1.0000
  C   C273      1.0  0.27208  0.24621  0.55550  1.0000
  H   H451      1.0  0.35834  0.09716  0.51257  1.0000
  H   H452      1.0  0.48521  0.45024  0.47732  1.0000
  C   C274      1.0  0.20437  0.21439  0.60558  1.0000
  Fe  Fe38      1.0  0.24664  0.40376  0.51547  1.0000
  C   C275      1.0  0.27700  0.99179  0.58887  1.0000
  S   S81       1.0  0.21398  0.04895  0.50944  1.0000
  H   H453      1.0  0.49929  0.14795  0.69634  1.0000
  H   H454      1.0  0.27156  0.01750  0.50001  1.0000
  H   H455      1.0  0.05549  0.99917  0.49811  1.0000
  H   H456      1.0  0.44664  0.35579  0.56098  1.0000
  H   H457      1.0  0.35503  0.96783  0.70370  1.0000
  N   N19       1.0  0.32867  0.10188  0.58705  1.0000
  H   H458      1.0  0.26060  0.20265  0.53679  1.0000
  H   H459      1.0  0.20404  0.30263  0.46606  1.0000
  H   H460      1.0  0.50323  0.01739  0.47991  1.0000
  C   C276      1.0  0.47279  0.10205  0.68176  1.0000
  S   S82       1.0  0.27805  0.16883  0.66153  1.0000
  H   H461      1.0  0.33185  0.42310  0.63020  1.0000
  H   H462      1.0  0.43592  0.12528  0.63643  1.0000
  H   H463      1.0  0.18610  0.14383  0.55837  1.0000
  S   S83       1.0  0.23357  0.43967  0.55703  1.0000
  H   H464      1.0  0.37361  0.13226  0.55628  1.0000
  H   H465      1.0  0.46846  0.25966  0.65569  1.0000
  H   H466      1.0  0.25166  0.09843  0.57788  1.0000
  H   H467      1.0  0.20184  0.02927  0.63434  1.0000
  H   H468      1.0  0.49953  0.01116  0.57768  1.0000
  H   H469      1.0  0.53499  0.09695  0.68891  1.0000
  C   C277      1.0  0.13351  0.31472  0.53700  1.0000
  H   H470      1.0  0.06941  0.39802  0.48859  1.0000
  H   H471      1.0  0.46554  0.07900  0.67747  1.0000
  C   C278      1.0  0.31926  0.44652  0.49646  1.0000
  H   H472      1.0  0.31490  0.38986  0.61863  1.0000
  H   H473      1.0  0.21892  0.23414  0.51095  1.0000
  C   C279      1.0  0.23428  0.02498  0.56212  1.0000
  H   H474      1.0  0.47485  0.03299  0.61122  1.0000
  H   H475      1.0  0.08255  0.29879  0.65689  1.0000
  C   C280      1.0  0.26201  0.01223  0.54575  1.0000
  S   S84       1.0  0.28452  0.96092  0.70255  1.0000
  C   C281      1.0  0.54712  0.32180  0.59618  1.0000
  S   S85       1.0  0.10894  0.20926  0.65544  1.0000
  Fe  Fe39      1.0  0.19622  0.40076  0.61874  1.0000
  C   C282      1.0  0.45023  0.99590  0.59331  1.0000
  C   C283      1.0  0.14381  0.26791  0.61614  1.0000
  H   H476      1.0  0.15678  0.25723  0.65076  1.0000
  H   H477      1.0  0.18980  0.09291  0.67560  1.0000
  Fe  Fe40      1.0  0.16233  0.03284  0.54697  1.0000
  C   C284      1.0  0.53903  0.06446  0.50978  1.0000
  Fe  Fe41      1.0  0.05644  0.19903  0.66431  1.0000
  H   H478      1.0  0.36651  0.07347  0.61540  1.0000
  H   H479      1.0  0.28167  0.23598  0.47433  1.0000
  H   H480      1.0  0.30426  0.33554  0.66202  1.0000
  C   C285      1.0  0.28728  0.33215  0.70297  1.0000
  H   H481      1.0  0.37879  0.04376  0.70722  1.0000
  C   C286      1.0  0.27381  0.43630  0.67566  1.0000
  C   C287      1.0  0.05356  0.06400  0.67736  1.0000
  H   H482      1.0  0.10649  0.45434  0.59672  1.0000
  H   H483      1.0  0.24898  0.44249  0.67510  1.0000
  C   C288      1.0  0.27334  0.39936  0.70031  1.0000
  H   H484      1.0  0.48291  0.28183  0.49144  1.0000
  H   H485      1.0  0.50457  0.26745  0.67553  1.0000
  N   N20       1.0  0.44172  0.33179  0.46609  1.0000
  H   H486      1.0  0.50577  0.09630  0.47025  1.0000
  H   H487      1.0  0.49107  0.34435  0.46642  1.0000
  H   H488      1.0  0.39087  0.19281  0.47425  1.0000
  N   N21       1.0  0.06291  0.45291  0.52172  1.0000
  H   H489      1.0  0.43748  0.16195  0.46852  1.0000
  N   N22       1.0  0.30486  0.38655  0.70907  1.0000
  H   H490      1.0  0.28358  0.44784  0.70280  1.0000
  C   C289      1.0  0.48355  0.24942  0.68884  1.0000
  S   S86       1.0  0.35716  0.28927  0.71195  1.0000
  H   H491      1.0  0.51496  0.21066  0.70654  1.0000
  H   H492      1.0  0.54602  0.05382  0.47620  1.0000
  C   C290      1.0  0.48785  0.03734  0.46771  1.0000
  H   H493      1.0  0.29561  0.45377  0.49714  1.0000
  H   H494      1.0  0.42217  0.10523  0.71318  1.0000
  H   H495      1.0  0.46665  0.37480  0.46571  1.0000
  C   C291      1.0  0.38173  0.32994  0.46566  1.0000
  C   C292      1.0  0.22512  0.85688  0.95213  1.0000
  H   H496      1.0  0.06802  0.68892  0.83871  1.0000
  H   H497      1.0  0.18853  0.91322  0.75727  1.0000
  H   H498      1.0  0.54705  0.58463  0.74070  1.0000
  H   H499      1.0  0.30456  0.56499  0.78363  1.0000
  Fe  Fe42      1.0  0.19976  0.76796  0.82976  1.0000
  H   H500      1.0  0.53703  0.53431  0.73697  1.0000
  C   C293      1.0  0.36073  0.73379  0.74016  1.0000
  H   H501      1.0  0.42536  0.60785  0.75753  1.0000
  H   H502      1.0  0.05993  0.82185  0.81750  1.0000
  H   H503      1.0  0.50953  0.51785  0.88702  1.0000
  S   S87       1.0  0.17469  0.73917  0.92104  1.0000
  H   H504      1.0  0.34445  0.60540  0.86650  1.0000
  H   H505      1.0  0.49485  0.54535  0.91825  1.0000
  H   H506      1.0  0.06559  0.75876  0.83256  1.0000
  H   H507      1.0  0.13319  0.87843  0.82110  1.0000
  H   H508      1.0  0.27688  0.60799  0.80570  1.0000
  C   C294      1.0  0.22665  0.61163  0.75186  1.0000
  H   H509      1.0  0.09982  0.89597  0.75639  1.0000
  C   C295      1.0  0.06405  0.73913  0.81575  1.0000
  H   H510      1.0  0.30278  0.64956  0.85877  1.0000
  H   H511      1.0  0.46513  0.71019  0.82779  1.0000
  H   H512      1.0  0.50062  0.70525  0.89064  1.0000
  H   H513      1.0  0.06932  0.92181  0.74103  1.0000
  H   H514      1.0  0.42446  0.83367  0.72201  1.0000
  H   H515      1.0  0.09955  0.94978  0.92720  1.0000
  H   H516      1.0  0.55312  0.90167  0.71835  1.0000
  H   H517      1.0  0.16378  0.54786  0.81070  1.0000
  H   H518      1.0  0.39473  0.77654  0.85899  1.0000
  C   C296      1.0  0.51328  0.71184  0.84456  1.0000
  S   S88       1.0  0.17771  0.49841  0.76004  1.0000
  Fe  Fe43      1.0  0.19317  0.69697  0.90352  1.0000
  H   H519      1.0  0.34044  0.83425  0.75890  1.0000
  H   H520      1.0  0.49115  0.63172  0.78761  1.0000
  H   H521      1.0  0.52784  0.65170  0.78761  1.0000
  H   H522      1.0  0.26555  0.56881  0.85974  1.0000
  C   C297      1.0  0.32125  0.85022  0.75821  1.0000
  C   C298      1.0  0.07190  0.70711  0.85854  1.0000
  H   H523      1.0  0.32445  0.78719  0.85337  1.0000
  C   C299      1.0  0.28036  0.56914  0.77398  1.0000
  S   S89       1.0  0.41213  0.93001  0.85307  1.0000
  H   H524      1.0  0.33497  0.72120  0.93546  1.0000
  H   H525      1.0  0.33939  0.54903  0.92601  1.0000
  H   H526      1.0  0.24030  0.47869  0.74404  1.0000
  H   H527      1.0  0.16520  0.94616  0.74402  1.0000
  C   C300      1.0  0.35032  0.91497  0.74306  1.0000
  H   H528      1.0  0.26855  0.54524  0.78102  1.0000
  C   C301      1.0  0.09778  0.89632  0.89737  1.0000
  S   S90       1.0  0.24721  0.49973  0.94714  1.0000
  C   C302      1.0  0.09373  0.73009  0.94710  1.0000
  C   C303      1.0  0.14398  0.90152  0.82076  1.0000
  H   H529      1.0  0.52805  0.94743  0.91207  1.0000
  H   H530      1.0  0.39221  0.95129  0.71724  1.0000
  H   H531      1.0  0.09792  0.70933  0.85745  1.0000
  H   H532      1.0  0.37596  0.78710  0.79736  1.0000
  C   C304      1.0  0.48905  0.72242  0.80380  1.0000
  H   H533      1.0  0.36718  0.71057  0.76527  1.0000
  N   N23       1.0  0.05356  0.69608  0.92058  1.0000
  H   H534      1.0  0.07842  0.94441  0.81431  1.0000
  H   H535      1.0  0.07674  0.90753  0.91122  1.0000
  S   S91       1.0  0.50628  0.63793  0.95395  1.0000
  C   C305      1.0  0.44821  0.83585  0.73027  1.0000
  C   C306      1.0  0.31857  0.73581  0.95201  1.0000
  H   H536      1.0  0.22869  0.47570  0.85082  1.0000
  S   S92       1.0  0.08697  0.62511  0.75591  1.0000
  H   H537      1.0  0.48694  0.51964  0.79470  1.0000
  H   H538      1.0  0.27696  0.69346  0.72214  1.0000
  H   H539      1.0  0.18380  0.47077  0.95778  1.0000
  H   H540      1.0  0.23623  0.87619  0.91200  1.0000
  C   C307      1.0  0.06517  0.66485  0.95517  1.0000
  H   H541      1.0  0.16119  0.89483  0.85097  1.0000
  H   H542      1.0  0.26868  0.63660  0.91644  1.0000
  C   C308      1.0  0.31808  0.82218  0.95175  1.0000
  C   C309      1.0  0.43863  0.46333  0.76794  1.0000
  H   H543      1.0  0.31439  0.68329  0.74419  1.0000
  H   H544      1.0  0.49165  0.58152  0.75681  1.0000
  S   S93       1.0  0.23733  0.70200  0.93753  1.0000
  C   C310      1.0  0.29281  0.63073  0.90183  1.0000
  H   H545      1.0  0.42330  0.90900  0.71643  1.0000
  C   C311      1.0  0.48437  0.84594  0.78823  1.0000
  Fe  Fe44      1.0  0.44307  0.93174  0.91595  1.0000
  S   S94       1.0  0.45101  0.67322  0.72953  1.0000
  H   H546      1.0  0.52167  0.75845  0.92359  1.0000
  H   H547      1.0  0.49562  0.71596  0.76451  1.0000
  S   S95       1.0  0.24546  0.77874  0.85551  1.0000
  H   H548      1.0  0.50649  0.79266  0.87708  1.0000
  S   S96       1.0  0.43861  0.58672  0.93170  1.0000
  H   H549      1.0  0.17932  0.62925  0.76743  1.0000
  C   C312      1.0  0.51119  0.76751  0.88371  1.0000
  C   C313      1.0  0.51522  0.54207  0.88727  1.0000
  H   H550      1.0  0.50700  0.59996  0.87487  1.0000
  H   H551      1.0  0.16047  0.80576  0.89269  1.0000
  H   H552      1.0  0.31810  0.85682  0.79751  1.0000
  H   H553      1.0  0.23331  0.62731  0.84693  1.0000
  N   N24       1.0  0.22829  0.58931  0.81295  1.0000
  H   H554      1.0  0.54013  0.52145  0.95934  1.0000
  C   C314      1.0  0.51000  0.84046  0.75104  1.0000
  C   C315      1.0  0.33655  0.56573  0.95012  1.0000
  H   H555      1.0  0.48683  0.46228  0.90002  1.0000
  S   S97       1.0  0.30762  0.71894  0.82343  1.0000
  H   H556      1.0  0.41142  0.65897  0.90714  1.0000
  H   H557      1.0  0.51980  0.68859  0.84185  1.0000
  C   C316      1.0  0.14041  0.66805  0.83251  1.0000
  H   H558      1.0  0.38473  0.49282  0.91602  1.0000
  C   C317      1.0  0.19344  0.61909  0.73795  1.0000
  C   C318      1.0  0.08231  0.90859  0.77593  1.0000
  H   H559      1.0  0.38339  0.73019  0.94340  1.0000
  H   H560      1.0  0.10868  0.81590  0.75476  1.0000
  H   H561      1.0  0.16402  0.57596  0.84644  1.0000
  H   H562      1.0  0.28380  0.58492  0.72727  1.0000
  H   H563      1.0  0.52496  0.78027  0.79039  1.0000
  H   H564      1.0  0.28731  0.78586  0.94240  1.0000
  H   H565      1.0  0.21642  0.54833  0.79119  1.0000
  C   C319      1.0  0.10945  0.81522  0.79829  1.0000
  H   H566      1.0  0.28991  0.60719  0.89713  1.0000
  H   H567      1.0  0.15203  0.93767  0.88175  1.0000
  C   C320      1.0  0.33217  0.74435  0.75858  1.0000
  C   C321      1.0  0.08172  0.81803  0.83410  1.0000
  C   C322      1.0  0.40805  0.53446  0.92315  1.0000
  H   H568      1.0  0.13405  0.86832  0.94120  1.0000
  S   S98       1.0  0.47691  0.92782  0.76475  1.0000
  H   H569      1.0  0.06461  0.89074  0.81151  1.0000
  H   H570      1.0  0.48788  0.75389  0.89046  1.0000
  C   C323      1.0  0.21705  0.60541  0.85567  1.0000
  H   H571      1.0  0.54588  0.74788  0.73717  1.0000
  H   H572      1.0  0.16518  0.53430  0.88671  1.0000
  C   C324      1.0  0.12312  0.66243  0.79327  1.0000
  H   H573      1.0  0.53358  0.84089  0.76088  1.0000
  H   H574      1.0  0.48839  0.47315  0.76745  1.0000
  H   H575      1.0  0.29911  0.73790  0.92673  1.0000
  C   C325      1.0  0.36327  0.65719  0.88604  1.0000
  C   C326      1.0  0.42277  0.54636  0.95868  1.0000
  H   H576      1.0  0.08167  0.74643  0.77407  1.0000
  C   C327      1.0  0.53457  0.76724  0.82987  1.0000
  H   H577      1.0  0.24044  0.63513  0.74160  1.0000
  C   C328      1.0  0.51696  0.62974  0.78414  1.0000
  N   N25       1.0  0.33403  0.76875  0.94125  1.0000
  C   C329      1.0  0.14222  0.64313  0.88476  1.0000
  H   H578      1.0  0.40622  0.55020  0.87953  1.0000
  C   C330      1.0  0.48761  0.56704  0.80460  1.0000
  C   C331      1.0  0.13847  0.80878  0.87643  1.0000
  S   S99       1.0  0.28066  0.94879  0.87413  1.0000
  H   H579      1.0  0.30163  0.78247  0.73891  1.0000
  S   S100      1.0  0.09516  0.49619  0.72271  1.0000
  H   H580      1.0  0.45073  0.53744  0.79095  1.0000
  S   S101      1.0  0.46887  0.89048  0.90819  1.0000
  H   H581      1.0  0.12161  0.68180  0.75293  1.0000
  C   C332      1.0  0.08207  0.81516  0.89166  1.0000
  S   S102      1.0  0.42142  0.84937  0.82558  1.0000
  H   H582      1.0  0.43616  0.48765  0.74036  1.0000
  Fe  Fe45      1.0  0.13323  0.52281  0.74491  1.0000
  C   C333      1.0  0.54506  0.54033  0.91496  1.0000
  H   H583      1.0  0.17981  0.59785  0.73703  1.0000
  H   H584      1.0  0.11188  0.95246  0.75762  1.0000
  H   H585      1.0  0.19394  0.61484  0.85018  1.0000
  H   H586      1.0  0.35662  0.67796  0.89858  1.0000
  C   C334      1.0  0.45332  0.84250  0.77902  1.0000
  H   H587      1.0  0.08764  0.87554  0.88949  1.0000
  C   C335      1.0  0.11428  0.88215  0.95034  1.0000
  S   S103      1.0  0.17137  0.80377  0.77582  1.0000
  C   C336      1.0  0.35249  0.59941  0.90904  1.0000
  H   H588      1.0  0.54698  0.71430  0.92178  1.0000
  C   C337      1.0  0.11028  0.60674  0.85768  1.0000
  C   C338      1.0  0.13430  0.94654  0.85340  1.0000
  H   H589      1.0  0.36639  0.74770  0.85106  1.0000
  N   N26       1.0  0.11852  0.91932  0.84204  1.0000
  C   C339      1.0  0.12690  0.61255  0.89759  1.0000
  C   C340      1.0  0.11061  0.81129  0.91247  1.0000
  N   N27       1.0  0.34766  0.62594  0.93269  1.0000
  H   H590      1.0  0.46915  0.57837  0.82572  1.0000
  H   H591      1.0  0.32457  0.91578  0.75851  1.0000
  H   H592      1.0  0.23753  0.60187  0.71888  1.0000
  H   H593      1.0  0.35837  0.89755  0.78151  1.0000
  H   H594      1.0  0.19418  0.56451  0.93473  1.0000
  C   C341      1.0  0.54841  0.53373  0.77428  1.0000
  S   S104      1.0  0.16361  0.64947  0.93454  1.0000
  H   H595      1.0  0.52256  0.86454  0.89104  1.0000
  H   H596      1.0  0.34329  0.64263  0.73438  1.0000
  Fe  Fe46      1.0  0.25894  0.73281  0.84524  1.0000
  C   C342      1.0  0.09811  0.93289  0.79700  1.0000
  Fe  Fe47      1.0  0.09207  0.57720  0.74667  1.0000
  H   H597      1.0  0.45818  0.47292  0.95126  1.0000
  H   H598      1.0  0.37812  0.59665  0.89885  1.0000
  C   C343      1.0  0.10841  0.63168  0.80546  1.0000
  H   H599      1.0  0.35394  0.81170  0.86620  1.0000
  H   H600      1.0  0.10617  0.74473  0.90195  1.0000
  C   C344      1.0  0.39988  0.66027  0.86982  1.0000
  H   H601      1.0  0.29195  0.65787  0.71896  1.0000
  C   C345      1.0  0.16371  0.91968  0.75848  1.0000
  C   C346      1.0  0.32397  0.77439  0.72527  1.0000
  C   C347      1.0  0.39599  0.50202  0.94366  1.0000
  H   H602      1.0  0.29889  0.83598  0.76081  1.0000
  H   H603      1.0  0.15479  0.91168  0.72583  1.0000
  H   H604      1.0  0.21836  0.53867  0.86491  1.0000
  H   H605      1.0  0.38458  0.86772  0.73384  1.0000
  H   H606      1.0  0.48854  0.85168  0.82530  1.0000
  C   C348      1.0  0.47137  0.53390  0.81345  1.0000
  H   H607      1.0  0.53829  0.51220  0.81303  1.0000
  S   S105      1.0  0.21566  0.72485  0.81017  1.0000
  H   H608      1.0  0.09866  0.58304  0.86770  1.0000
  C   C349      1.0  0.21045  0.55694  0.82789  1.0000
  C   C350      1.0  0.26288  0.58466  0.81521  1.0000
  S   S106      1.0  0.10008  0.53171  0.81632  1.0000
  H   H609      1.0  0.15206  0.69174  0.82249  1.0000
  N   N28       1.0  0.51800  0.56790  0.82754  1.0000
  C   C351      1.0  0.13772  0.81003  0.81966  1.0000
  C   C352      1.0  0.52291  0.59983  0.83477  1.0000
  H   H610      1.0  0.54749  0.60438  0.84106  1.0000
  N   N29       1.0  0.54271  0.73466  0.83059  1.0000
  Fe  Fe48      1.0  0.44128  0.89250  0.83853  1.0000
  H   H611      1.0  0.48629  0.74836  0.78970  1.0000
  H   H612      1.0  0.35460  0.66121  0.84462  1.0000
  Fe  Fe49      1.0  0.50360  0.92747  0.83510  1.0000
  C   C353      1.0  0.17391  0.55411  0.84387  1.0000
  C   C354      1.0  0.34488  0.78636  0.87619  1.0000
  C   C355      1.0  0.21341  0.58439  0.92111  1.0000
  C   C356      1.0  0.37197  0.77312  0.84524  1.0000
  H   H613      1.0  0.46162  0.52000  0.86024  1.0000
  H   H614      1.0  0.40829  0.68407  0.83472  1.0000
  H   H615      1.0  0.40854  0.64194  0.85217  1.0000
  Fe  Fe50      1.0  0.22852  0.94279  0.91177  1.0000
  H   H616      1.0  0.20657  0.59925  0.94779  1.0000
  H   H617      1.0  0.23565  0.57460  0.93297  1.0000
  Fe  Fe51      1.0  0.06184  0.50847  0.78916  1.0000
  H   H618      1.0  0.37643  0.79124  0.95324  1.0000
  H   H619      1.0  0.12823  0.59320  0.93811  1.0000
  H   H620      1.0  0.52274  0.46037  0.95853  1.0000
  H   H621      1.0  0.53981  0.81084  0.93346  1.0000
  H   H622      1.0  0.11114  0.80959  0.95677  1.0000
  H   H623      1.0  0.31997  0.83775  0.90513  1.0000
  C   C357      1.0  0.31284  0.62917  0.94850  1.0000
  C   C358      1.0  0.36628  0.94841  0.73344  1.0000
  C   C359      1.0  0.54622  0.56571  0.78452  1.0000
  C   C360      1.0  0.54720  0.86138  0.88170  1.0000
  C   C361      1.0  0.05881  0.72028  0.94845  1.0000
  Fe  Fe52      1.0  0.22104  0.74722  0.94578  1.0000
  H   H624      1.0  0.52710  0.62968  0.74026  1.0000
  H   H625      1.0  0.24401  0.81953  0.92474  1.0000
  H   H626      1.0  0.09159  0.66636  0.94515  1.0000
  H   H627      1.0  0.54968  0.89894  0.95922  1.0000
  H   H628      1.0  0.55188  0.56300  0.92063  1.0000
  H   H629      1.0  0.05730  0.63800  0.89826  1.0000
  H   H630      1.0  0.36248  0.95205  0.77585  1.0000
  H   H631      1.0  0.30940  0.65122  0.95885  1.0000
  C   C362      1.0  0.46807  0.45523  0.78363  1.0000
  C   C363      1.0  0.30854  0.78661  0.96251  1.0000
  C   C364      1.0  0.22946  0.82478  0.95933  1.0000
  C   C365      1.0  0.24122  0.50361  0.71607  1.0000
  H   H632      1.0  0.38537  0.64763  0.72389  1.0000
  H   H633      1.0  0.12317  0.90073  0.96557  1.0000
  H   H634      1.0  0.16253  0.56446  0.20642  1.0000
  H   H635      1.0  0.10672  0.70908  0.96594  1.0000
  H   H636      1.0  0.24669  0.56877  0.05945  1.0000
  C   C366      1.0  0.50322  0.70977  0.08148  1.0000
  C   C367      1.0  0.49956  0.69320  0.18665  1.0000
  N   N30       1.0  0.42858  0.77746  0.10496  1.0000
  H   H637      1.0  0.20930  0.88487  0.17912  1.0000
  H   H638      1.0  0.49386  0.82267  0.99777  1.0000
  H   H639      1.0  0.21588  0.81585  0.16035  1.0000
  C   C368      1.0  0.40503  0.71849  0.13399  1.0000
  H   H640      1.0  0.40791  0.75048  0.97284  1.0000
  H   H641      1.0  0.33720  0.64882  0.02934  1.0000
  H   H642      1.0  0.05945  0.65973  0.00302  1.0000
  H   H643      1.0  0.23705  0.78537  0.14866  1.0000
  H   H644      1.0  0.10018  0.62380  0.09207  1.0000
  H   H645      1.0  0.18953  0.62048  0.15114  1.0000
  N   N31       1.0  0.14401  0.61699  0.12556  1.0000
  S   S107      1.0  0.44644  0.86038  0.15031  1.0000
  C   C369      1.0  0.15624  0.47657  0.03352  1.0000
  C   C370      1.0  0.18291  0.50913  0.07524  1.0000
  H   H646      1.0  0.11823  0.61599  0.20848  1.0000
  S   S108      1.0  0.44633  0.61627  0.06249  1.0000
  H   H647      1.0  0.21208  0.94398  0.14071  1.0000
  H   H648      1.0  0.51651  0.47610  0.04482  1.0000
  C   C371      1.0  0.44155  0.75793  0.20915  1.0000
  C   C372      1.0  0.11086  0.66560  0.11055  1.0000
  Fe  Fe53      1.0  0.27290  0.46893  0.01392  1.0000
  H   H649      1.0  0.37569  0.66692  0.98391  1.0000
  C   C373      1.0  0.22456  0.93257  0.11135  1.0000
  Fe  Fe54      1.0  0.46632  0.59862  0.99152  1.0000
  H   H650      1.0  0.34788  0.49756  0.21249  1.0000
  H   H651      1.0  0.49641  0.91501  0.00229  1.0000
  C   C374      1.0  0.28070  0.51965  0.16807  1.0000
  H   H652      1.0  0.53825  0.76820  0.11644  1.0000
  H   H653      1.0  0.39138  0.88938  0.11597  1.0000
  Fe  Fe55      1.0  0.27356  0.64251  0.14982  1.0000
  C   C375      1.0  0.51475  0.72304  0.17942  1.0000
  H   H654      1.0  0.37278  0.63553  0.05355  1.0000
  H   H655      1.0  0.20914  0.50627  0.21045  1.0000
  C   C376      1.0  0.21071  0.49958  0.99072  1.0000
  S   S109      1.0  0.52220  0.87400  0.21119  1.0000
  C   C377      1.0  0.12605  0.59894  0.18690  1.0000
  C   C378      1.0  0.45219  0.94722  0.08005  1.0000
  S   S110      1.0  0.12314  0.48215  0.13341  1.0000
  Fe  Fe56      1.0  0.53355  0.60371  0.01204  1.0000
  H   H656      1.0  0.13325  0.64921  0.04370  1.0000
  S   S111      1.0  0.52419  0.82274  0.14499  1.0000
  H   H657      1.0  0.06550  0.61425  0.96805  1.0000
  H   H658      1.0  0.08993  0.77264  0.12754  1.0000
  Fe  Fe57      1.0  0.48945  0.65199  0.03083  1.0000
  H   H659      1.0  0.38652  0.61200  0.97919  1.0000
  S   S112      1.0  0.13015  0.94207  0.17593  1.0000
  H   H660      1.0  0.41062  0.69648  0.12494  1.0000
  H   H661      1.0  0.50560  0.87551  0.03954  1.0000
  C   C379      1.0  0.19179  0.83882  0.04856  1.0000
  H   H662      1.0  0.47848  0.48210  0.07767  1.0000
  C   C380      1.0  0.52526  0.74571  0.12283  1.0000
  H   H663      1.0  0.30647  0.59335  0.16269  1.0000
  Fe  Fe58      1.0  0.48688  0.84194  0.19441  1.0000
  C   C381      1.0  0.51937  0.73918  0.07402  1.0000
  H   H664      1.0  0.09673  0.86504  0.98755  1.0000
  C   C382      1.0  0.26407  0.52895  0.12208  1.0000
  C   C383      1.0  0.19660  0.80694  0.05606  1.0000
  C   C384      1.0  0.42507  0.52587  0.01498  1.0000
  H   H665      1.0  0.06870  0.80472  0.13534  1.0000
  H   H666      1.0  0.09463  0.74517  0.97400  1.0000
  H   H667      1.0  0.38791  0.82794  0.10987  1.0000
  H   H668      1.0  0.37854  0.83446  0.03995  1.0000
  S   S113      1.0  0.31775  0.74475  0.16572  1.0000
  C   C385      1.0  0.12214  0.63818  0.09080  1.0000
  H   H669      1.0  0.41543  0.47748  0.07847  1.0000
  S   S114      1.0  0.46003  0.55271  0.20935  1.0000
  C   C386      1.0  0.43285  0.74495  0.10131  1.0000
  H   H670      1.0  0.19079  0.46524  0.19083  1.0000
  C   C387      1.0  0.12997  0.56762  0.10003  1.0000
  H   H671      1.0  0.53842  0.95250  0.04659  1.0000
  H   H672      1.0  0.23108  0.52798  0.03144  1.0000
  H   H673      1.0  0.40462  0.57599  0.16112  1.0000
  H   H674      1.0  0.51069  0.90523  0.07036  1.0000
  H   H675      1.0  0.32557  0.92782  0.07155  1.0000
  Fe  Fe59      1.0  0.28535  0.45833  0.13594  1.0000
  Fe  Fe60      1.0  0.47733  0.58270  0.11458  1.0000
  S   S115      1.0  0.28235  0.47887  0.20578  1.0000
  C   C388      1.0  0.40274  0.57815  0.20330  1.0000
  H   H676      1.0  0.10768  0.57691  0.08722  1.0000
  S   S116      1.0  0.20122  0.90343  0.99117  1.0000
  H   H677      1.0  0.41766  0.79887  0.17041  1.0000
  H   H678      1.0  0.32007  0.71554  0.04676  1.0000
  H   H679      1.0  0.38545  0.46675  0.17617  1.0000
  C   C389      1.0  0.41344  0.49335  0.03514  1.0000
  H   H680      1.0  0.37941  0.77713  0.09519  1.0000
  H   H681      1.0  0.47665  0.78492  0.00172  1.0000
  H   H682      1.0  0.13077  0.68227  0.10994  1.0000
  H   H683      1.0  0.29574  0.91826  0.15938  1.0000
  C   C390      1.0  0.49081  0.47288  0.04470  1.0000
  H   H684      1.0  0.35762  0.59793  0.20020  1.0000
  H   H685      1.0  0.45439  0.81973  0.98530  1.0000
  H   H686      1.0  0.18522  0.78761  0.09572  1.0000
  H   H687      1.0  0.12457  0.54893  0.14473  1.0000
  H   H688      1.0  0.40701  0.79070  0.02817  1.0000
  H   H689      1.0  0.20178  0.64590  0.04184  1.0000
  H   H690      1.0  0.21820  0.94561  0.06796  1.0000
  H   H691      1.0  0.17781  0.67802  0.04525  1.0000
  H   H692      1.0  0.43546  0.53505  0.04334  1.0000
  H   H693      1.0  0.35151  0.76528  0.01954  1.0000
  H   H694      1.0  0.06006  0.76487  0.19107  1.0000
  H   H695      1.0  0.17619  0.58274  0.11103  1.0000
  H   H696      1.0  0.16408  0.60770  0.04798  1.0000
  H   H697      1.0  0.43746  0.74655  0.05503  1.0000
  C   C391      1.0  0.39707  0.82640  0.06673  1.0000
  H   H698      1.0  0.13789  0.71590  0.18760  1.0000
  H   H699      1.0  0.45877  0.82138  0.08563  1.0000
  C   C392      1.0  0.39473  0.48372  0.19463  1.0000
  H   H700      1.0  0.10335  0.58591  0.18724  1.0000
  H   H701      1.0  0.45409  0.73570  0.11873  1.0000
  C   C393      1.0  0.31194  0.93746  0.03608  1.0000
  C   C394      1.0  0.20643  0.86384  0.99707  1.0000
  H   H702      1.0  0.52904  0.94408  0.19248  1.0000
  C   C395      1.0  0.51331  0.90131  0.02832  1.0000
  C   C396      1.0  0.27589  0.92713  0.05728  1.0000
  C   C397      1.0  0.26102  0.56149  0.09286  1.0000
  H   H703      1.0  0.54816  0.63907  0.21034  1.0000
  C   C398      1.0  0.38510  0.87447  0.16192  1.0000
  H   H704      1.0  0.22076  0.88423  0.10628  1.0000
  C   C399      1.0  0.49389  0.68651  0.13785  1.0000
  H   H705      1.0  0.32099  0.92789  0.00154  1.0000
  Fe  Fe61      1.0  0.29263  0.69614  0.18717  1.0000
  H   H706      1.0  0.52722  0.75705  0.03046  1.0000
  C   C400      1.0  0.27547  0.58462  0.10883  1.0000
  N   N32       1.0  0.26005  0.93630  0.10732  1.0000
  S   S117      1.0  0.49175  0.70381  0.02112  1.0000
  H   H707      1.0  0.38236  0.72519  0.11960  1.0000
  C   C401      1.0  0.39896  0.48141  0.99950  1.0000
  S   S118      1.0  0.49498  0.56297  0.04516  1.0000
  C   C402      1.0  0.26967  0.91474  0.16272  1.0000
  C   C403      1.0  0.47131  0.80659  0.01192  1.0000
  S   S119      1.0  0.42152  0.93500  0.00148  1.0000
  H   H708      1.0  0.40442  0.50630  0.15718  1.0000
  H   H709      1.0  0.27270  0.90062  0.06922  1.0000
  H   H710      1.0  0.18302  0.51967  0.10817  1.0000
  C   C404      1.0  0.20912  0.89776  0.13225  1.0000
  C   C405      1.0  0.17254  0.63648  0.12882  1.0000
  H   H711      1.0  0.26994  0.83552  0.14025  1.0000
  H   H712      1.0  0.18383  0.89802  0.12731  1.0000
  C   C406      1.0  0.21563  0.79982  0.01189  1.0000
  H   H713      1.0  0.39515  0.76214  0.18704  1.0000
  S   S120      1.0  0.24690  0.68148  0.16603  1.0000
  H   H714      1.0  0.29984  0.77486  0.01066  1.0000
  H   H715      1.0  0.13787  0.76625  0.20565  1.0000
  C   C407      1.0  0.19183  0.65928  0.06951  1.0000
  H   H716      1.0  0.28101  0.72364  0.03058  1.0000
  H   H717      1.0  0.21232  0.67205  0.07719  1.0000
  H   H718      1.0  0.09622  0.68007  0.07994  1.0000
  S   S121      1.0  0.22259  0.75969  0.02467  1.0000
  H   H719      1.0  0.46552  0.77125  0.19602  1.0000
  C   C408      1.0  0.23101  0.79731  0.18102  1.0000
  H   H720      1.0  0.40185  0.71173  0.18202  1.0000
  C   C409      1.0  0.30397  0.71545  0.01639  1.0000
  C   C410      1.0  0.21010  0.51380  0.03233  1.0000
  S   S122      1.0  0.32026  0.66015  0.16231  1.0000
  C   C411      1.0  0.15519  0.59433  0.09543  1.0000
  C   C412      1.0  0.54817  0.90882  0.99477  1.0000
  S   S123      1.0  0.11662  0.84679  0.20215  1.0000
  H   H721      1.0  0.28171  0.79923  0.18690  1.0000
  S   S124      1.0  0.26793  0.62466  0.07904  1.0000
  H   H722      1.0  0.13575  0.46158  0.03440  1.0000
  C   C413      1.0  0.29593  0.54284  0.18299  1.0000
  H   H723      1.0  0.13939  0.55568  0.06943  1.0000
  C   C414      1.0  0.36173  0.61804  0.98718  1.0000
  H   H724      1.0  0.25247  0.51069  0.11117  1.0000
  C   C415      1.0  0.15610  0.48998  0.07656  1.0000
  C   C416      1.0  0.40263  0.79157  0.07278  1.0000
  H   H725      1.0  0.48115  0.66384  0.14408  1.0000
  H   H726      1.0  0.37706  0.72131  0.02130  1.0000
  H   H727      1.0  0.06114  0.55723  0.04990  1.0000
  S   S125      1.0  0.51923  0.61978  0.08729  1.0000
  H   H728      1.0  0.30152  0.60884  0.98883  1.0000
  H   H729      1.0  0.48588  0.48817  0.00198  1.0000
  H   H730      1.0  0.19019  0.74849  0.19397  1.0000
  H   H731      1.0  0.16565  0.65095  0.15629  1.0000
  H   H732      1.0  0.29852  0.69022  0.02056  1.0000
  H   H733      1.0  0.17679  0.84422  0.08273  1.0000
  C   C417      1.0  0.29404  0.57541  0.15208  1.0000
  H   H734      1.0  0.34855  0.59609  0.02258  1.0000
  H   H735      1.0  0.41854  0.84369  0.04440  1.0000
  S   S126      1.0  0.31269  0.48658  0.04612  1.0000
  C   C418      1.0  0.41926  0.77479  0.16767  1.0000
  H   H736      1.0  0.47902  0.78686  0.09960  1.0000
  C   C419      1.0  0.06611  0.77870  0.14334  1.0000
  H   H737      1.0  0.34834  0.55582  0.98830  1.0000
  H   H738      1.0  0.09532  0.65613  0.15432  1.0000
  H   H739      1.0  0.16451  0.80179  0.17769  1.0000
  C   C420      1.0  0.45964  0.79843  0.07807  1.0000
  C   C421      1.0  0.36167  0.64419  0.01421  1.0000
  C   C422      1.0  0.26224  0.81505  0.18250  1.0000
  H   H740      1.0  0.44047  0.92452  0.11104  1.0000
  H   H741      1.0  0.26455  0.88894  0.16961  1.0000
  H   H742      1.0  0.33646  0.88488  0.16907  1.0000
  H   H743      1.0  0.26445  0.93675  0.01837  1.0000
  C   C423      1.0  0.18347  0.48172  0.99011  1.0000
  H   H744      1.0  0.29904  0.83080  0.97700  1.0000
  C   C424      1.0  0.35394  0.87197  0.19203  1.0000
  C   C425      1.0  0.40801  0.85747  0.19063  1.0000
  H   H745      1.0  0.38165  0.94480  0.16402  1.0000
  C   C426      1.0  0.36107  0.76792  0.97340  1.0000
  C   C427      1.0  0.38301  0.74074  0.97734  1.0000
  H   H746      1.0  0.34040  0.82562  0.96672  1.0000
  H   H747      1.0  0.44357  0.73271  0.21292  1.0000
  H   H748      1.0  0.31073  0.56517  0.96566  1.0000
  C   C428      1.0  0.13450  0.69267  0.22283  1.0000
  H   H749      1.0  0.24211  0.70498  0.33194  1.0000
  C   C429      1.0  0.17844  0.80641  0.41737  1.0000
  C   C430      1.0  0.14184  0.66059  0.45813  1.0000
  H   H750      1.0  0.47687  0.64313  0.46146  1.0000
  H   H751      1.0  0.09102  0.75093  0.35070  1.0000
  C   C431      1.0  0.52232  0.52783  0.32928  1.0000
  H   H752      1.0  0.41779  0.90905  0.32985  1.0000
  C   C432      1.0  0.42207  0.88328  0.34488  1.0000
  S   S127      1.0  0.27867  0.66500  0.28233  1.0000
  C   C433      1.0  0.20032  0.46695  0.29766  1.0000
  C   C434      1.0  0.09376  0.71061  0.46038  1.0000
  H   H753      1.0  0.35127  0.50175  0.37221  1.0000
  H   H754      1.0  0.43443  0.73939  0.36146  1.0000
  H   H755      1.0  0.50151  0.51404  0.32435  1.0000
  Fe  Fe62      1.0  0.52298  0.83233  0.29367  1.0000
  S   S128      1.0  0.48444  0.80172  0.28010  1.0000
  H   H756      1.0  0.22442  0.45864  0.29461  1.0000
  H   H757      1.0  0.43814  0.63086  0.34146  1.0000
  Fe  Fe63      1.0  0.30513  0.73928  0.43646  1.0000
  H   H758      1.0  0.49113  0.64671  0.33386  1.0000
  S   S129      1.0  0.33868  0.60422  0.31291  1.0000
  C   C435      1.0  0.12586  0.63212  0.31234  1.0000
  C   C436      1.0  0.20613  0.78726  0.28589  1.0000
  Fe  Fe64      1.0  0.23559  0.64705  0.25939  1.0000
  H   H759      1.0  0.07599  0.63419  0.31073  1.0000
  H   H760      1.0  0.29568  0.56766  0.41129  1.0000
  S   S130      1.0  0.12370  0.95005  0.30511  1.0000
  C   C437      1.0  0.14474  0.57554  0.22878  1.0000
  Fe  Fe65      1.0  0.09146  0.94388  0.24710  1.0000
  N   N33       1.0  0.21380  0.77313  0.23903  1.0000
  H   H761      1.0  0.41804  0.65876  0.29146  1.0000
  H   H762      1.0  0.42049  0.69748  0.33950  1.0000
  C   C438      1.0  0.54492  0.54839  0.39727  1.0000
  H   H763      1.0  0.45727  0.75002  0.40682  1.0000
  C   C439      1.0  0.52610  0.56114  0.27977  1.0000
  C   C440      1.0  0.33519  0.73765  0.22750  1.0000
  H   H764      1.0  0.18339  0.51496  0.26740  1.0000
  H   H765      1.0  0.41469  0.47399  0.21615  1.0000
  H   H766      1.0  0.39921  0.64039  0.36645  1.0000
  H   H767      1.0  0.13910  0.70226  0.38353  1.0000
  C   C441      1.0  0.37226  0.59073  0.28220  1.0000
  C   C442      1.0  0.41562  0.66075  0.45274  1.0000
  C   C443      1.0  0.18416  0.75794  0.22987  1.0000
  H   H768      1.0  0.45770  0.83544  0.40478  1.0000
  C   C444      1.0  0.54877  0.70613  0.41213  1.0000
  H   H769      1.0  0.24584  0.94238  0.35426  1.0000
  C   C445      1.0  0.34257  0.75194  0.30976  1.0000
  H   H770      1.0  0.27408  0.55000  0.34448  1.0000
  H   H771      1.0  0.14086  0.47084  0.31756  1.0000
  H   H772      1.0  0.23147  0.94134  0.46457  1.0000
  H   H773      1.0  0.50448  0.57378  0.28245  1.0000
  H   H774      1.0  0.34464  0.68937  0.23571  1.0000
  S   S131      1.0  0.51997  0.74866  0.45458  1.0000
  H   H775      1.0  0.45170  0.91757  0.38884  1.0000
  H   H776      1.0  0.33056  0.78484  0.23064  1.0000
  S   S132      1.0  0.52045  0.73128  0.24159  1.0000
  S   S133      1.0  0.18829  0.63157  0.32018  1.0000
  H   H777      1.0  0.39800  0.50673  0.31570  1.0000
  N   N34       1.0  0.44588  0.67173  0.40746  1.0000
  Fe  Fe66      1.0  0.29239  0.80765  0.37300  1.0000
  C   C446      1.0  0.42628  0.56768  0.23660  1.0000
  H   H778      1.0  0.52617  0.88994  0.43049  1.0000
  C   C447      1.0  0.37584  0.59003  0.22582  1.0000
  H   H779      1.0  0.17304  0.82093  0.29932  1.0000
  C   C448      1.0  0.39955  0.83775  0.24974  1.0000
  H   H780      1.0  0.18444  0.69046  0.22495  1.0000
  H   H781      1.0  0.54186  0.72004  0.37131  1.0000
  H   H782      1.0  0.13770  0.45746  0.43542  1.0000
  H   H783      1.0  0.44026  0.55976  0.31918  1.0000
  C   C449      1.0  0.36798  0.49117  0.23617  1.0000
  H   H784      1.0  0.34156  0.76930  0.33069  1.0000
  H   H785      1.0  0.54069  0.48395  0.42085  1.0000
  S   S134      1.0  0.08479  0.89091  0.29299  1.0000
  H   H786      1.0  0.48331  0.71132  0.37185  1.0000
  H   H787      1.0  0.31259  0.62221  0.40998  1.0000
  C   C450      1.0  0.25474  0.91954  0.21955  1.0000
  C   C451      1.0  0.54029  0.71446  0.46133  1.0000
  H   H788      1.0  0.40251  0.92578  0.41582  1.0000
  H   H789      1.0  0.37643  0.51373  0.24030  1.0000
  C   C452      1.0  0.34646  0.71999  0.34165  1.0000
  C   C453      1.0  0.32870  0.47427  0.32831  1.0000
  H   H790      1.0  0.26050  0.62526  0.45770  1.0000
  C   C454      1.0  0.45202  0.89180  0.41520  1.0000
  C   C455      1.0  0.15639  0.64825  0.28905  1.0000
  H   H791      1.0  0.26041  0.89985  0.25765  1.0000
  C   C456      1.0  0.09962  0.64637  0.29132  1.0000
  H   H792      1.0  0.12807  0.55532  0.26166  1.0000
  H   H793      1.0  0.10336  0.56736  0.44472  1.0000
  H   H794      1.0  0.16566  0.65752  0.43640  1.0000
  N   N35       1.0  0.35668  0.46462  0.29493  1.0000
  C   C457      1.0  0.54911  0.89148  0.40347  1.0000
  C   C458      1.0  0.40685  0.48296  0.32650  1.0000
  H   H795      1.0  0.09037  0.48871  0.44271  1.0000
  H   H796      1.0  0.07520  0.73967  0.29807  1.0000
  C   C459      1.0  0.06867  0.80372  0.36785  1.0000
  N   N36       1.0  0.51822  0.52785  0.39060  1.0000
  Fe  Fe67      1.0  0.52384  0.78374  0.23165  1.0000
  H   H797      1.0  0.39231  0.57945  0.36009  1.0000
  C   C460      1.0  0.42245  0.56827  0.29303  1.0000
  H   H798      1.0  0.51145  0.67316  0.36004  1.0000
  H   H799      1.0  0.07338  0.79942  0.41114  1.0000
  C   C461      1.0  0.07469  0.69950  0.37927  1.0000
  N   N37       1.0  0.42549  0.87121  0.40816  1.0000
  H   H800      1.0  0.31968  0.45499  0.37167  1.0000
  H   H801      1.0  0.22741  0.78891  0.30522  1.0000
  H   H802      1.0  0.34202  0.52652  0.30198  1.0000
  H   H803      1.0  0.30855  0.47767  0.30445  1.0000
  H   H804      1.0  0.46923  0.47950  0.42346  1.0000
  H   H805      1.0  0.15720  0.58803  0.25192  1.0000
  H   H806      1.0  0.22506  0.51510  0.26568  1.0000
  H   H807      1.0  0.25394  0.52514  0.41606  1.0000
  C   C462      1.0  0.14614  0.46089  0.28220  1.0000
  C   C463      1.0  0.14318  0.53982  0.43985  1.0000
  C   C464      1.0  0.33441  0.50477  0.34192  1.0000
  S   S135      1.0  0.52204  0.84522  0.37319  1.0000
  H   H808      1.0  0.23468  0.55692  0.36849  1.0000
  C   C465      1.0  0.44231  0.73001  0.40403  1.0000
  C   C466      1.0  0.39538  0.57952  0.31598  1.0000
  H   H809      1.0  0.11695  0.82216  0.32537  1.0000
  Fe  Fe68      1.0  0.16241  0.94642  0.23591  1.0000
  H   H810      1.0  0.40779  0.81851  0.37494  1.0000
  H   H811      1.0  0.25811  0.75695  0.26457  1.0000
  H   H812      1.0  0.20165  0.80894  0.39076  1.0000
  H   H813      1.0  0.12247  0.60888  0.34752  1.0000
  C   C467      1.0  0.08990  0.73187  0.33247  1.0000
  C   C468      1.0  0.12366  0.67954  0.41036  1.0000
  C   C469      1.0  0.25720  0.55000  0.38348  1.0000
  H   H814      1.0  0.17319  0.73701  0.26955  1.0000
  H   H815      1.0  0.18774  0.77100  0.32290  1.0000
  C   C470      1.0  0.30602  0.60895  0.45796  1.0000
  H   H816      1.0  0.14622  0.78498  0.25458  1.0000
  S   S136      1.0  0.27368  0.76058  0.37202  1.0000
  H   H817      1.0  0.19359  0.46640  0.34328  1.0000
  H   H818      1.0  0.44630  0.89195  0.25594  1.0000
  C   C471      1.0  0.38248  0.45557  0.33051  1.0000
  H   H819      1.0  0.42146  0.72395  0.44020  1.0000
  C   C472      1.0  0.43770  0.67912  0.34775  1.0000
  Fe  Fe69      1.0  0.12099  0.89659  0.34415  1.0000
  H   H820      1.0  0.17495  0.85717  0.38700  1.0000
  C   C473      1.0  0.10389  0.67685  0.24713  1.0000
  H   H821      1.0  0.14668  0.54667  0.39280  1.0000
  H   H822      1.0  0.22859  0.91883  0.22591  1.0000
  H   H823      1.0  0.21100  0.72610  0.35206  1.0000
  H   H824      1.0  0.45469  0.62153  0.43075  1.0000
  H   H825      1.0  0.35264  0.67328  0.33750  1.0000
  H   H826      1.0  0.11388  0.72967  0.31064  1.0000
  H   H827      1.0  0.41698  0.82405  0.27179  1.0000
  C   C474      1.0  0.34532  0.85237  0.25115  1.0000
  H   H828      1.0  0.30920  0.53581  0.21806  1.0000
  H   H829      1.0  0.22310  0.60846  0.41353  1.0000
  C   C475      1.0  0.16081  0.67822  0.24350  1.0000
  C   C476      1.0  0.45079  0.88066  0.30119  1.0000
  C   C477      1.0  0.16394  0.77602  0.45452  1.0000
  N   N38       1.0  0.09070  0.68658  0.43133  1.0000
  H   H830      1.0  0.31167  0.50912  0.36516  1.0000
  H   H831      1.0  0.51310  0.63088  0.39093  1.0000
  H   H832      1.0  0.49158  0.67539  0.23008  1.0000
  C   C478      1.0  0.33647  0.76080  0.25285  1.0000
  C   C479      1.0  0.22079  0.58551  0.45190  1.0000
  S   S137      1.0  0.16229  0.89309  0.27963  1.0000
  C   C480      1.0  0.06675  0.62872  0.45388  1.0000
  C   C481      1.0  0.20439  0.50278  0.25746  1.0000
  H   H833      1.0  0.27412  0.59823  0.37082  1.0000
  C   C482      1.0  0.36826  0.83538  0.28001  1.0000
  H   H834      1.0  0.21266  0.83886  0.26969  1.0000
  H   H835      1.0  0.36790  0.91122  0.39736  1.0000
  H   H836      1.0  0.42909  0.48440  0.29526  1.0000
  H   H837      1.0  0.54721  0.57649  0.27859  1.0000
  H   H838      1.0  0.54305  0.51502  0.31982  1.0000
  H   H839      1.0  0.12309  0.66615  0.38069  1.0000
  H   H840      1.0  0.40065  0.87091  0.33896  1.0000
  H   H841      1.0  0.47553  0.88600  0.39732  1.0000
  C   C483      1.0  0.08733  0.82375  0.26258  1.0000
  H   H842      1.0  0.54310  0.57440  0.37394  1.0000
  H   H843      1.0  0.48917  0.56753  0.37764  1.0000
  C   C484      1.0  0.49158  0.46918  0.43286  1.0000
  H   H844      1.0  0.45452  0.85533  0.30817  1.0000
  H   H845      1.0  0.40485  0.63723  0.45503  1.0000
  C   C485      1.0  0.09345  0.81643  0.31913  1.0000
  H   H846      1.0  0.45915  0.68993  0.31284  1.0000
  C   C486      1.0  0.34941  0.69801  0.31348  1.0000
  H   H847      1.0  0.31026  0.90053  0.43450  1.0000
  C   C487      1.0  0.49734  0.64965  0.37324  1.0000
  H   H848      1.0  0.08981  0.62084  0.43968  1.0000
  Fe  Fe70      1.0  0.12601  0.88911  0.22686  1.0000
  H   H849      1.0  0.14855  0.48182  0.24018  1.0000
  H   H850      1.0  0.14320  0.93812  0.42685  1.0000
  H   H851      1.0  0.20525  0.70134  0.30980  1.0000
  C   C488      1.0  0.34414  0.70705  0.25602  1.0000
  C   C489      1.0  0.42252  0.65042  0.33695  1.0000
  C   C490      1.0  0.22218  0.71851  0.31626  1.0000
  H   H852      1.0  0.47284  0.89345  0.30337  1.0000
  S   S138      1.0  0.11257  0.86528  0.43921  1.0000
  C   C491      1.0  0.23541  0.74701  0.25840  1.0000
  H   H853      1.0  0.26480  0.94235  0.22114  1.0000
  H   H854      1.0  0.52959  0.55780  0.23704  1.0000
  H   H855      1.0  0.50939  0.94134  0.26307  1.0000
  H   H856      1.0  0.11079  0.73195  0.43227  1.0000
  S   S139      1.0  0.25979  0.60730  0.24205  1.0000
  Fe  Fe71      1.0  0.30448  0.62834  0.25616  1.0000
  C   C492      1.0  0.19455  0.82116  0.26749  1.0000
  S   S140      1.0  0.32536  0.78644  0.43416  1.0000
  H   H857      1.0  0.43164  0.75735  0.25369  1.0000
  S   S141      1.0  0.30576  0.84951  0.28741  1.0000
  C   C493      1.0  0.51812  0.49376  0.43209  1.0000
  S   S142      1.0  0.07101  0.69513  0.22220  1.0000
  H   H858      1.0  0.49968  0.45770  0.40078  1.0000
  H   H859      1.0  0.41410  0.47736  0.36952  1.0000
  C   C494      1.0  0.46771  0.64543  0.42094  1.0000
  H   H860      1.0  0.36198  0.82045  0.32556  1.0000
  C   C495      1.0  0.27136  0.57417  0.40642  1.0000
  H   H861      1.0  0.07477  0.68255  0.35582  1.0000
  H   H862      1.0  0.19906  0.94166  0.40359  1.0000
  C   C496      1.0  0.16283  0.83374  0.41364  1.0000
  H   H863      1.0  0.46759  0.53062  0.39123  1.0000
  S   S143      1.0  0.34016  0.70652  0.41826  1.0000
  C   C497      1.0  0.48748  0.54140  0.40412  1.0000
  C   C498      1.0  0.46257  0.70171  0.40864  1.0000
  C   C499      1.0  0.41083  0.81230  0.42072  1.0000
  C   C500      1.0  0.43385  0.83708  0.42796  1.0000
  H   H864      1.0  0.20927  0.89111  0.44790  1.0000
  C   C501      1.0  0.13217  0.83081  0.44572  1.0000
  H   H865      1.0  0.06716  0.91610  0.42108  1.0000
  H   H866      1.0  0.20745  0.56763  0.44061  1.0000
  C   C502      1.0  0.05639  0.81784  0.25514  1.0000
  Fe  Fe72      1.0  0.23661  0.75729  0.44876  1.0000
  H   H867      1.0  0.47283  0.69638  0.44896  1.0000
  H   H868      1.0  0.39732  0.67755  0.44053  1.0000
  S   S144      1.0  0.18449  0.74217  0.46057  1.0000
  S   S145      1.0  0.25290  0.80612  0.44535  1.0000
  H   H869      1.0  0.38753  0.80886  0.45012  1.0000
  H   H870      1.0  0.54327  0.54548  0.44401  1.0000
  H   H871      1.0  0.42095  0.78887  0.43347  1.0000
  C   C503      1.0  0.38288  0.90629  0.43123  1.0000
  C   C504      1.0  0.39424  0.87255  0.44462  1.0000
  S   S146      1.0  0.18892  0.49964  0.43639  1.0000
  N   N39       1.0  0.25322  0.57578  0.46232  1.0000
  H   H872      1.0  0.37483  0.85780  0.43803  1.0000
  H   H873      1.0  0.18770  0.83023  0.22427  1.0000
  C   C505      1.0  0.15706  0.77935  0.21609  1.0000
  H   H874      1.0  0.09626  0.45561  0.27826  1.0000
  H   H875      1.0  0.24244  0.73677  0.22382  1.0000
  H   H876      1.0  0.25976  0.82486  0.21789  1.0000
  C   C506      1.0  0.08085  0.90103  0.62155  1.0000
  H   H877      1.0  0.10481  0.70023  0.49949  1.0000
  H   H878      1.0  0.36143  0.94384  0.54085  1.0000
  S   S147      1.0  0.08262  0.55606  0.56652  1.0000
  C   C507      1.0  0.18007  0.86351  0.53287  1.0000
  H   H879      1.0  0.12995  0.63609  0.48454  1.0000
  C   C508      1.0  0.36592  0.92342  0.57885  1.0000
  H   H880      1.0  0.19780  0.94818  0.51223  1.0000
  S   S148      1.0  0.12855  0.57059  0.67705  1.0000
  Fe  Fe73      1.0  0.42157  0.55197  0.60472  1.0000
  H   H881      1.0  0.22871  0.84312  0.59409  1.0000
  H   H882      1.0  0.19234  0.56693  0.54194  1.0000
  C   C509      1.0  0.11763  0.80043  0.48357  1.0000
  C   C510      1.0  0.11869  0.82295  0.60610  1.0000
  H   H883      1.0  0.55313  0.89732  0.65013  1.0000
  H   H884      1.0  0.09713  0.81797  0.64073  1.0000
  H   H885      1.0  0.22447  0.87576  0.65477  1.0000
  C   C511      1.0  0.15773  0.50943  0.53250  1.0000
  H   H886      1.0  0.14719  0.81413  0.67298  1.0000
  H   H887      1.0  0.15476  0.76835  0.65341  1.0000
  C   C512      1.0  0.06249  0.72212  0.48297  1.0000
  C   C513      1.0  0.54993  0.69679  0.51355  1.0000
  C   C514      1.0  0.13355  0.77301  0.48805  1.0000
  C   C515      1.0  0.24882  0.54358  0.51195  1.0000
  C   C516      1.0  0.07636  0.87199  0.66932  1.0000
  S   S149      1.0  0.39164  0.56068  0.53612  1.0000
  H   H888      1.0  0.20436  0.82258  0.66228  1.0000
  Fe  Fe74      1.0  0.08835  0.54450  0.65932  1.0000
  N   N40       1.0  0.35527  0.90367  0.69189  1.0000
  H   H889      1.0  0.38682  0.73860  0.57424  1.0000
  H   H890      1.0  0.29840  0.71351  0.62288  1.0000
  C   C517      1.0  0.29368  0.65908  0.59028  1.0000
  H   H891      1.0  0.36666  0.69656  0.53242  1.0000
  H   H892      1.0  0.29197  0.50896  0.68674  1.0000
  C   C518      1.0  0.35549  0.93098  0.63463  1.0000
  H   H893      1.0  0.14594  0.67361  0.48722  1.0000
  H   H894      1.0  0.37144  0.95236  0.62874  1.0000
  C   C519      1.0  0.17992  0.77409  0.63056  1.0000
  H   H895      1.0  0.12102  0.80097  0.59577  1.0000
  H   H896      1.0  0.49108  0.68060  0.62033  1.0000
  H   H897      1.0  0.38605  0.87327  0.66037  1.0000
  H   H898      1.0  0.42734  0.67855  0.52045  1.0000
  H   H899      1.0  0.06768  0.74603  0.48542  1.0000
  C   C520      1.0  0.38492  0.88680  0.69052  1.0000
  H   H900      1.0  0.33878  0.81716  0.64754  1.0000
  H   H901      1.0  0.22171  0.85280  0.48002  1.0000
  H   H902      1.0  0.09613  0.86312  0.68978  1.0000
  C   C521      1.0  0.28947  0.88283  0.58113  1.0000
  H   H903      1.0  0.39170  0.92077  0.57100  1.0000
  C   C522      1.0  0.11882  0.55165  0.46908  1.0000
  H   H904      1.0  0.32910  0.72400  0.65220  1.0000
  H   H905      1.0  0.21066  0.80734  0.55519  1.0000
  C   C523      1.0  0.48193  0.63692  0.60595  1.0000
  H   H906      1.0  0.35096  0.75713  0.55921  1.0000
  S   S150      1.0  0.28751  0.79226  0.58450  1.0000
  H   H907      1.0  0.13103  0.51557  0.60814  1.0000
  H   H908      1.0  0.38915  0.67794  0.61659  1.0000
  C   C524      1.0  0.47407  0.83260  0.69104  1.0000
  C   C525      1.0  0.41904  0.65600  0.51584  1.0000
  H   H909      1.0  0.17110  0.80327  0.54552  1.0000
  H   H910      1.0  0.19541  0.77395  0.66214  1.0000
  H   H911      1.0  0.40195  0.74353  0.67305  1.0000
  C   C526      1.0  0.37329  0.78301  0.65500  1.0000
  C   C527      1.0  0.45295  0.88906  0.47851  1.0000
  C   C528      1.0  0.09402  0.46769  0.48069  1.0000
  H   H912      1.0  0.19328  0.56311  0.67559  1.0000
  C   C529      1.0  0.32364  0.65541  0.61772  1.0000
  S   S151      1.0  0.46677  0.58357  0.58372  1.0000
  H   H913      1.0  0.09404  0.79811  0.50909  1.0000
  Fe  Fe75      1.0  0.39238  0.50811  0.55394  1.0000
  H   H914      1.0  0.05837  0.93635  0.56077  1.0000
  H   H915      1.0  0.33945  0.49097  0.49809  1.0000
  C   C530      1.0  0.28815  0.84932  0.60076  1.0000
  C   C531      1.0  0.46461  0.60671  0.62759  1.0000
  N   N41       1.0  0.17944  0.83600  0.58971  1.0000
  H   H916      1.0  0.30487  0.89187  0.69903  1.0000
  H   H917      1.0  0.20913  0.60836  0.51767  1.0000
  H   H918      1.0  0.47106  0.51243  0.49804  1.0000
  C   C532      1.0  0.44442  0.59609  0.68246  1.0000
  S   S152      1.0  0.39996  0.80660  0.59109  1.0000
  C   C533      1.0  0.20498  0.84253  0.62005  1.0000
  S   S153      1.0  0.34809  0.49392  0.62310  1.0000
  C   C534      1.0  0.16201  0.51803  0.47185  1.0000
  H   H919      1.0  0.45378  0.86395  0.50787  1.0000
  H   H920      1.0  0.27246  0.50391  0.56169  1.0000
  C   C535      1.0  0.31643  0.70260  0.64942  1.0000
  H   H921      1.0  0.37899  0.75255  0.50185  1.0000
  C   C536      1.0  0.36525  0.64683  0.70142  1.0000
  Fe  Fe76      1.0  0.50213  0.75778  0.53710  1.0000
  H   H922      1.0  0.17236  0.49269  0.55735  1.0000
  H   H923      1.0  0.27536  0.67042  0.61114  1.0000
  H   H924      1.0  0.11422  0.84304  0.56743  1.0000
  H   H925      1.0  0.43184  0.57235  0.70007  1.0000
  C   C537      1.0  0.13416  0.52224  0.56135  1.0000
  H   H926      1.0  0.47474  0.90326  0.47842  1.0000
  H   H927      1.0  0.37454  0.69809  0.66339  1.0000
  H   H928      1.0  0.17203  0.88527  0.54064  1.0000
  H   H929      1.0  0.49413  0.55019  0.48400  1.0000
  C   C538      1.0  0.14757  0.83217  0.62865  1.0000
  C   C539      1.0  0.45729  0.64684  0.69214  1.0000
  C   C540      1.0  0.29377  0.83415  0.56030  1.0000
  C   C541      1.0  0.20410  0.87364  0.63357  1.0000
  C   C542      1.0  0.24375  0.56821  0.64514  1.0000
  H   H930      1.0  0.26407  0.59603  0.52531  1.0000
  H   H931      1.0  0.06397  0.49270  0.55246  1.0000
  C   C543      1.0  0.38086  0.75279  0.68812  1.0000
  H   H932      1.0  0.28385  0.89461  0.61218  1.0000
  S   S154      1.0  0.37991  0.54199  0.67851  1.0000
  H   H933      1.0  0.35254  0.90179  0.57915  1.0000
  H   H934      1.0  0.19636  0.63755  0.69311  1.0000
  H   H935      1.0  0.29675  0.54108  0.53311  1.0000
  H   H936      1.0  0.51795  0.49236  0.47772  1.0000
  C   C544      1.0  0.47804  0.65707  0.63796  1.0000
  H   H937      1.0  0.43243  0.89910  0.49696  1.0000
  S   S155      1.0  0.52179  0.74011  0.62011  1.0000
  C   C545      1.0  0.27896  0.52655  0.52285  1.0000
  C   C546      1.0  0.34483  0.79393  0.67358  1.0000
  C   C547      1.0  0.50464  0.83255  0.70350  1.0000
  H   H938      1.0  0.54370  0.70310  0.55164  1.0000
  S   S156      1.0  0.49334  0.80609  0.54271  1.0000
  H   H939      1.0  0.14285  0.85495  0.63533  1.0000
  C   C548      1.0  0.30204  0.85264  0.50031  1.0000
  H   H940      1.0  0.12260  0.74966  0.51825  1.0000
  S   S157      1.0  0.30822  0.57538  0.60871  1.0000
  C   C549      1.0  0.05503  0.91338  0.59646  1.0000
  H   H941      1.0  0.29952  0.67209  0.54221  1.0000
  S   S158      1.0  0.40651  0.48676  0.48606  1.0000
  H   H942      1.0  0.39410  0.86128  0.49231  1.0000
  C   C550      1.0  0.21329  0.51888  0.71350  1.0000
  H   H943      1.0  0.33048  0.71436  0.53359  1.0000
  C   C551      1.0  0.36783  0.67860  0.64845  1.0000
  S   S159      1.0  0.11890  0.92142  0.59310  1.0000
  H   H944      1.0  0.43563  0.82816  0.47487  1.0000
  C   C552      1.0  0.37526  0.45948  0.49084  1.0000
  H   H945      1.0  0.23036  0.88410  0.50686  1.0000
  H   H946      1.0  0.28123  0.83508  0.64703  1.0000
  C   C553      1.0  0.27044  0.52067  0.68332  1.0000
  H   H947      1.0  0.32979  0.87002  0.66530  1.0000
  H   H948      1.0  0.34090  0.64467  0.59300  1.0000
  C   C554      1.0  0.29813  0.90127  0.52142  1.0000
  H   H949      1.0  0.08053  0.64769  0.51631  1.0000
  Fe  Fe77      1.0  0.47108  0.72118  0.66298  1.0000
  S   S160      1.0  0.26607  0.73133  0.51389  1.0000
  H   H950      1.0  0.10994  0.47810  0.50153  1.0000
  Fe  Fe78      1.0  0.28422  0.78041  0.50613  1.0000
  C   C555      1.0  0.21237  0.87320  0.49016  1.0000
  Fe  Fe79      1.0  0.50902  0.78668  0.62914  1.0000
  H   H951      1.0  0.43563  0.89747  0.65417  1.0000
  Fe  Fe80      1.0  0.44511  0.78275  0.59374  1.0000
  N   N42       1.0  0.33912  0.68577  0.61964  1.0000
  H   H952      1.0  0.41637  0.93243  0.64463  1.0000
  C   C556      1.0  0.18554  0.80593  0.57702  1.0000
  Fe  Fe81      1.0  0.38093  0.49078  0.68580  1.0000
  H   H953      1.0  0.24438  0.59330  0.61865  1.0000
  C   C557      1.0  0.26957  0.60153  0.47758  1.0000
  H   H954      1.0  0.31469  0.62506  0.47877  1.0000
  S   S161      1.0  0.45221  0.73660  0.58003  1.0000
  C   C558      1.0  0.41665  0.90786  0.67593  1.0000
  H   H955      1.0  0.23160  0.52659  0.50526  1.0000
  C   C559      1.0  0.44095  0.61606  0.71508  1.0000
  H   H956      1.0  0.28968  0.51979  0.48566  1.0000
  H   H957      1.0  0.43519  0.63766  0.53190  1.0000
  C   C560      1.0  0.07085  0.65680  0.47523  1.0000
  H   H958      1.0  0.20658  0.89550  0.59355  1.0000
  H   H959      1.0  0.18239  0.87312  0.66516  1.0000
  C   C561      1.0  0.30438  0.88628  0.48083  1.0000
  H   H960      1.0  0.18600  0.75419  0.61513  1.0000
  H   H961      1.0  0.49766  0.64511  0.56363  1.0000
  C   C562      1.0  0.29928  0.68291  0.71235  1.0000
  H   H962      1.0  0.45432  0.54947  0.47233  1.0000
  H   H963      1.0  0.30646  0.84110  0.46879  1.0000
  C   C563      1.0  0.36780  0.74084  0.54860  1.0000
  H   H964      1.0  0.17615  0.59777  0.49008  1.0000
  S   S162      1.0  0.46038  0.76529  0.68018  1.0000
  C   C564      1.0  0.34412  0.46771  0.49637  1.0000
  H   H965      1.0  0.16280  0.85761  0.50870  1.0000
  H   H966      1.0  0.28284  0.63497  0.59681  1.0000
  S   S163      1.0  0.53468  0.81816  0.66476  1.0000
  H   H967      1.0  0.36896  0.90778  0.47176  1.0000
  C   C565      1.0  0.19876  0.58984  0.50385  1.0000
  C   C566      1.0  0.21458  0.55108  0.67734  1.0000
  H   H968      1.0  0.36729  0.62606  0.68690  1.0000
  H   H969      1.0  0.33153  0.93969  0.63335  1.0000
  C   C567      1.0  0.27178  0.55309  0.64802  1.0000
  H   H970      1.0  0.31666  0.63638  0.66169  1.0000
  C   C568      1.0  0.47663  0.53796  0.46847  1.0000
  C   C569      1.0  0.32724  0.87984  0.70073  1.0000
  S   S164      1.0  0.42487  0.50043  0.61774  1.0000
  H   H971      1.0  0.23811  0.54575  0.55403  1.0000
  S   S165      1.0  0.29992  0.94295  0.49948  1.0000
  H   H972      1.0  0.39558  0.64688  0.54525  1.0000
  C   C570      1.0  0.11423  0.54276  0.52987  1.0000
  H   H973      1.0  0.47015  0.82939  0.65159  1.0000
  Fe  Fe82      1.0  0.34994  0.54618  0.61110  1.0000
  C   C571      1.0  0.35054  0.70824  0.55710  1.0000
  H   H974      1.0  0.05937  0.93852  0.46637  1.0000
  H   H975      1.0  0.31898  0.58739  0.47035  1.0000
  H   H976      1.0  0.56950  0.00987  0.89031  1.0000
  C   C572      1.0  0.85036  0.08425  0.80038  1.0000
  C   C573      1.0  0.99974  0.97173  0.72897  1.0000
  H   H977      1.0  0.56457  0.45216  0.74516  1.0000
  H   H978      1.0  0.60447  0.21479  0.83478  1.0000
  H   H979      1.0  0.58425  0.34533  0.81589  1.0000
  N   N43       1.0  0.63143  0.22953  0.74606  1.0000
  C   C574      1.0  0.91037  0.19931  0.86860  1.0000
  S   S166      1.0  0.74500  0.20343  0.77445  1.0000
  C   C575      1.0  0.86827  0.12251  0.84459  1.0000
  C   C576      1.0  0.66344  0.22800  0.76404  1.0000
  C   C577      1.0  0.77490  0.41827  0.71990  1.0000
  H   H980      1.0  0.65846  0.29271  0.90384  1.0000
  H   H981      1.0  0.88808  0.03393  0.82806  1.0000
  C   C578      1.0  0.00380  0.05531  0.77103  1.0000
  H   H982      1.0  0.97927  0.25580  0.91997  1.0000
  C   C579      1.0  0.01043  0.42118  0.76258  1.0000
  C   C580      1.0  0.73525  0.29632  0.72443  1.0000
  C   C581      1.0  0.57500  0.24542  0.95397  1.0000
  H   H983      1.0  0.83263  0.10130  0.78575  1.0000
  Fe  Fe83      1.0  0.03801  0.19329  0.95874  1.0000
  H   H984      1.0  0.59707  0.11650  0.89387  1.0000
  H   H985      1.0  0.61572  0.26932  0.77028  1.0000
  H   H986      1.0  0.59675  0.33689  0.73279  1.0000
  S   S167      1.0  0.69616  0.36915  0.76310  1.0000
  C   C582      1.0  0.92661  0.21347  0.81056  1.0000
  C   C583      1.0  0.92227  0.35601  0.90354  1.0000
  C   C584      1.0  0.57383  0.20183  0.78532  1.0000
  C   C585      1.0  0.01878  0.44639  0.77997  1.0000
  H   H987      1.0  0.69138  0.23939  0.82047  1.0000
  H   H988      1.0  0.98454  0.05208  0.80728  1.0000
  H   H989      1.0  0.90394  0.01525  0.74747  1.0000
  H   H990      1.0  0.82178  0.23578  0.93599  1.0000
  H   H991      1.0  0.90810  0.10874  0.72656  1.0000
  C   C586      1.0  0.60750  0.20669  0.79693  1.0000
  C   C587      1.0  0.94052  0.03371  0.96356  1.0000
  H   H992      1.0  0.61402  0.41530  0.77532  1.0000
  Fe  Fe84      1.0  0.99433  0.14480  0.93895  1.0000
  S   S168      1.0  0.84224  0.98057  0.75104  1.0000
  C   C588      1.0  0.04286  0.09890  0.84392  1.0000
  H   H993      1.0  0.60345  0.36422  0.85487  1.0000
  H   H994      1.0  0.60474  0.97180  0.91254  1.0000
  H   H995      1.0  0.62341  0.16751  0.73391  1.0000
  H   H996      1.0  0.88962  0.13442  0.85208  1.0000
  H   H997      1.0  0.96007  0.30586  0.91873  1.0000
  H   H998      1.0  0.01438  0.40422  0.92522  1.0000
  H   H999      1.0  0.98524  0.96556  0.82192  1.0000
  C   C589      1.0  0.90969  0.22022  0.76486  1.0000
  H   H1000     1.0  0.56193  0.22418  0.77581  1.0000
  C   C590      1.0  0.66609  0.44150  0.82908  1.0000
  C   C591      1.0  0.90890  0.05151  0.81903  1.0000
  H   H1001     1.0  0.02808  0.01650  0.82045  1.0000
  H   H1002     1.0  0.97871  0.06671  0.90069  1.0000
  H   H1003     1.0  0.02602  0.30444  0.78774  1.0000
  C   C592      1.0  0.71086  0.34407  0.72671  1.0000
  S   S169      1.0  0.55864  0.27437  0.84708  1.0000
  C   C593      1.0  0.94548  0.29136  0.90200  1.0000
  S   S170      1.0  0.99050  0.35871  0.78369  1.0000
  H   H1004     1.0  0.83158  0.39249  0.87205  1.0000
  H   H1005     1.0  0.86363  0.21944  0.74194  1.0000
  H   H1006     1.0  0.92678  0.03811  0.84286  1.0000
  H   H1007     1.0  0.01227  0.27737  0.72275  1.0000
  H   H1008     1.0  0.73832  0.44485  0.92794  1.0000
  H   H1009     1.0  0.74848  0.44965  0.78724  1.0000
  H   H1010     1.0  0.85179  0.38992  0.77519  1.0000
  H   H1011     1.0  0.88276  0.33585  0.87876  1.0000
  C   C594      1.0  0.84561  0.10663  0.90421  1.0000
  H   H1012     1.0  0.00912  0.42609  0.71741  1.0000
  C   C595      1.0  0.83313  0.34068  0.79952  1.0000
  H   H1013     1.0  0.85995  0.97266  0.86003  1.0000
  H   H1014     1.0  0.89113  0.25079  0.91574  1.0000
  H   H1015     1.0  0.67336  0.16315  0.93632  1.0000
  C   C596      1.0  0.86021  0.20027  0.83543  1.0000
  C   C597      1.0  0.68677  0.14341  0.86948  1.0000
  H   H1016     1.0  0.87115  0.16619  0.72751  1.0000
  H   H1017     1.0  0.85783  0.07590  0.76341  1.0000
  C   C598      1.0  0.55397  0.99356  0.87929  1.0000
  H   H1018     1.0  0.72543  0.24872  0.88295  1.0000
  C   C599      1.0  0.58548  0.26522  0.89520  1.0000
  C   C600      1.0  0.94362  0.09166  0.93533  1.0000
  H   H1019     1.0  0.91831  0.13672  0.75813  1.0000
  H   H1020     1.0  0.89792  0.30762  0.79697  1.0000
  H   H1021     1.0  0.57381  0.19243  0.74974  1.0000
  H   H1022     1.0  0.66854  0.20259  0.78365  1.0000
  H   H1023     1.0  0.55911  0.18380  0.82569  1.0000
  H   H1024     1.0  0.90313  0.36847  0.91953  1.0000
  C   C601      1.0  0.89110  0.27692  0.89076  1.0000
  H   H1025     1.0  0.86490  0.18158  0.92596  1.0000
  C   C602      1.0  0.81493  0.31409  0.84355  1.0000
  H   H1026     1.0  0.00004  0.35948  0.89391  1.0000
  H   H1027     1.0  0.70951  0.23957  0.95860  1.0000
  C   C603      1.0  0.94193  0.42094  0.96412  1.0000
  C   C604      1.0  0.63263  0.14089  0.91972  1.0000
  H   H1028     1.0  0.86580  0.28160  0.89780  1.0000
  H   H1029     1.0  0.92362  0.09264  0.83744  1.0000
  S   S171      1.0  0.71888  0.31343  0.91973  1.0000
  C   C605      1.0  0.62078  0.26274  0.73096  1.0000
  H   H1030     1.0  0.68316  0.23900  0.72565  1.0000
  C   C606      1.0  0.64371  0.11743  0.84511  1.0000
  H   H1031     1.0  0.61607  0.18265  0.81341  1.0000
  H   H1032     1.0  0.80759  0.06008  0.86651  1.0000
  C   C607      1.0  0.90066  0.07889  0.84116  1.0000
  H   H1033     1.0  0.04946  0.25554  0.81091  1.0000
  H   H1034     1.0  0.78856  0.42008  0.91077  1.0000
  H   H1035     1.0  0.92351  0.19290  0.90393  1.0000
  H   H1036     1.0  0.82122  0.10131  0.89847  1.0000
  C   C608      1.0  0.82750  0.37038  0.86470  1.0000
  S   S172      1.0  0.70258  0.12332  0.77733  1.0000
  C   C609      1.0  0.89771  0.12307  0.75197  1.0000
  C   C610      1.0  0.75728  0.22395  0.93938  1.0000
  H   H1037     1.0  0.96346  0.01252  0.74983  1.0000
  H   H1038     1.0  0.78445  0.36866  0.73795  1.0000
  C   C611      1.0  0.61597  0.28156  0.87719  1.0000
  H   H1039     1.0  0.59755  0.26350  0.71653  1.0000
  C   C612      1.0  0.72440  0.31615  0.75503  1.0000
  H   H1040     1.0  0.84380  0.12405  0.92690  1.0000
  H   H1041     1.0  0.77099  0.24783  0.92554  1.0000
  S   S173      1.0  0.66369  0.43333  0.94445  1.0000
  H   H1042     1.0  0.93779  0.97712  0.78749  1.0000
  N   N44       1.0  0.91092  0.29687  0.91292  1.0000
  H   H1043     1.0  0.03977  0.07305  0.87174  1.0000
  H   H1044     1.0  0.78667  0.41781  0.75684  1.0000
  S   S174      1.0  0.04620  0.16169  0.90668  1.0000
  C   C613      1.0  0.83915  0.36887  0.80994  1.0000
  C   C614      1.0  0.62203  0.12372  0.88772  1.0000
  C   C615      1.0  0.83214  0.05492  0.85271  1.0000
  N   N45       1.0  0.87840  0.10141  0.81054  1.0000
  H   H1045     1.0  0.92466  0.27654  0.81315  1.0000
  Fe  Fe85      1.0  0.70144  0.35598  0.85660  1.0000
  H   H1046     1.0  0.66836  0.44744  0.73895  1.0000
  H   H1047     1.0  0.89160  0.06739  0.88873  1.0000
  C   C616      1.0  0.67605  0.12792  0.83505  1.0000
  H   H1048     1.0  0.78815  0.29566  0.93190  1.0000
  H   H1049     1.0  0.76875  0.21359  0.90769  1.0000
  C   C617      1.0  0.02841  0.03533  0.77849  1.0000
  H   H1050     1.0  0.62695  0.35742  0.79538  1.0000
  H   H1051     1.0  0.75974  0.96684  0.85241  1.0000
  Fe  Fe86      1.0  0.99164  0.21067  0.72301  1.0000
  C   C618      1.0  0.01933  0.44036  0.83885  1.0000
  H   H1052     1.0  0.57303  0.40100  0.79252  1.0000
  S   S175      1.0  0.72728  0.39086  0.88382  1.0000
  H   H1053     1.0  0.71031  0.20832  0.92816  1.0000
  H   H1054     1.0  0.85381  0.08491  0.93399  1.0000
  S   S176      1.0  0.91661  0.39758  0.74199  1.0000
  C   C619      1.0  0.94866  0.99396  0.74244  1.0000
  C   C620      1.0  0.87722  0.19282  0.88103  1.0000
  H   H1055     1.0  0.74565  0.27473  0.74625  1.0000
  C   C621      1.0  0.72350  0.23024  0.92751  1.0000
  C   C622      1.0  0.63527  0.27941  0.91827  1.0000
  S   S177      1.0  0.02079  0.16905  0.74387  1.0000
  Fe  Fe87      1.0  0.79637  0.19563  0.77507  1.0000
  H   H1056     1.0  0.62411  0.29736  0.83217  1.0000
  S   S178      1.0  0.96752  0.22519  0.79556  1.0000
  S   S179      1.0  0.96180  0.12981  0.88978  1.0000
  H   H1057     1.0  0.04250  0.33935  0.72614  1.0000
  Fe  Fe88      1.0  0.74352  0.16202  0.74385  1.0000
  C   C623      1.0  0.60341  0.36401  0.81046  1.0000
  H   H1058     1.0  0.96650  0.43161  0.94176  1.0000
  H   H1059     1.0  0.56765  0.98747  0.84324  1.0000
  H   H1060     1.0  0.95045  0.01258  0.95946  1.0000
  H   H1061     1.0  0.91951  0.06050  0.77191  1.0000
  Fe  Fe89      1.0  0.68240  0.38646  0.94728  1.0000
  H   H1062     1.0  0.64992  0.23216  0.85054  1.0000
  C   C624      1.0  0.95308  0.25639  0.92875  1.0000
  S   S180      1.0  0.79385  0.15224  0.75040  1.0000
  C   C625      1.0  0.59677  0.39741  0.77123  1.0000
  C   C626      1.0  0.87651  0.21360  0.77733  1.0000
  C   C627      1.0  0.00562  0.38362  0.86217  1.0000
  S   S181      1.0  0.81871  0.19197  0.85211  1.0000
  C   C628      1.0  0.66507  0.15028  0.91111  1.0000
  H   H1063     1.0  0.66658  0.26968  0.79119  1.0000
  C   C629      1.0  0.90037  0.28270  0.82505  1.0000
  S   S182      1.0  0.84847  0.33874  0.73161  1.0000
  H   H1064     1.0  0.71184  0.14999  0.86423  1.0000
  H   H1065     1.0  0.03482  0.10218  0.80241  1.0000
  H   H1066     1.0  0.94317  0.24122  0.90772  1.0000
  H   H1067     1.0  0.88368  0.26717  0.81421  1.0000
  C   C630      1.0  0.00358  0.38987  0.80381  1.0000
  H   H1068     1.0  0.01702  0.31164  0.95615  1.0000
  H   H1069     1.0  0.93612  0.34551  0.93821  1.0000
  H   H1070     1.0  0.92588  0.43215  0.93386  1.0000
  H   H1071     1.0  0.92013  0.33897  0.83377  1.0000
  H   H1072     1.0  0.63531  0.10536  0.81866  1.0000
  H   H1073     1.0  0.01341  0.99525  0.71859  1.0000
  H   H1074     1.0  0.95541  0.29982  0.85432  1.0000
  S   S183      1.0  0.65601  0.35330  0.91755  1.0000
  H   H1075     1.0  0.74831  0.16359  0.94258  1.0000
  H   H1076     1.0  0.85541  0.14211  0.81954  1.0000
  C   C631      1.0  0.80292  0.31575  0.89813  1.0000
  H   H1077     1.0  0.67381  0.41784  0.84005  1.0000
  H   H1078     1.0  0.93830  0.37520  0.86697  1.0000
  H   H1079     1.0  0.82992  0.03393  0.83909  1.0000
  C   C632      1.0  0.90809  0.33181  0.88023  1.0000
  C   C633      1.0  0.78897  0.44612  0.90259  1.0000
  H   H1080     1.0  0.72643  0.30981  0.80032  1.0000
  C   C634      1.0  0.01326  0.40891  0.87988  1.0000
  C   C635      1.0  0.04038  0.31278  0.74241  1.0000
  C   C636      1.0  0.66754  0.24333  0.80921  1.0000
  H   H1081     1.0  0.80999  0.29241  0.83519  1.0000
  Fe  Fe90      1.0  0.73971  0.34819  0.95375  1.0000
  H   H1082     1.0  0.84339  0.04720  0.89163  1.0000
  H   H1083     1.0  0.74956  0.41017  0.74038  1.0000
  C   C637      1.0  0.80929  0.34381  0.90862  1.0000
  C   C638      1.0  0.95662  0.06425  0.93070  1.0000
  H   H1084     1.0  0.02644  0.11072  0.86742  1.0000
  H   H1085     1.0  0.75546  0.95659  0.92959  1.0000
  H   H1086     1.0  0.59571  0.05727  0.71861  1.0000
  C   C639      1.0  0.05333  0.03972  0.73144  1.0000
  H   H1087     1.0  0.55674  0.33049  0.72682  1.0000
  C   C640      1.0  0.75990  0.45378  0.93960  1.0000
  H   H1088     1.0  0.92206  0.23169  0.72000  1.0000
  C   C641      1.0  0.00470  0.08010  0.71708  1.0000
  H   H1089     1.0  0.86655  0.32464  0.98050  1.0000
  H   H1090     1.0  0.95628  0.97960  0.10312  1.0000
  C   C642      1.0  0.04805  0.29299  0.02044  1.0000
  H   H1091     1.0  0.63510  0.02673  0.19415  1.0000
  H   H1092     1.0  0.87135  0.44884  0.12172  1.0000
  C   C643      1.0  0.87564  0.41539  0.04896  1.0000
  N   N46       1.0  0.90709  0.40744  0.06755  1.0000
  H   H1093     1.0  0.03013  0.34041  0.98669  1.0000
  H   H1094     1.0  0.90453  0.10981  0.97623  1.0000
  H   H1095     1.0  0.00294  0.01683  0.04665  1.0000
  C   C644      1.0  0.89732  0.44816  0.11977  1.0000
  S   S184      1.0  0.77470  0.99687  0.21452  1.0000
  S   S185      1.0  0.60662  0.44445  0.20123  1.0000
  H   H1096     1.0  0.65282  0.26803  0.18864  1.0000
  H   H1097     1.0  0.57716  0.99419  0.04486  1.0000
  H   H1098     1.0  0.59875  0.27798  0.17606  1.0000
  H   H1099     1.0  0.72640  0.22835  0.04223  1.0000
  H   H1100     1.0  0.99726  0.20474  0.09856  1.0000
  C   C645      1.0  0.92262  0.01141  0.16628  1.0000
  H   H1101     1.0  0.99520  0.31294  0.06844  1.0000
  H   H1102     1.0  0.56182  0.34523  0.04014  1.0000
  N   N47       1.0  0.75776  0.44054  0.00529  1.0000
  H   H1103     1.0  0.05146  0.22287  0.05517  1.0000
  S   S186      1.0  0.60601  0.15250  0.96850  1.0000
  C   C646      1.0  0.62703  0.96115  0.11976  1.0000
  C   C647      1.0  0.00758  0.29518  0.09926  1.0000
  H   H1104     1.0  0.91872  0.06055  0.10876  1.0000
  C   C648      1.0  0.91979  0.15735  0.09394  1.0000
  H   H1105     1.0  0.60325  0.34649  0.03682  1.0000
  H   H1106     1.0  0.95695  0.42717  0.03793  1.0000
  H   H1107     1.0  0.84382  0.41032  0.99246  1.0000
  H   H1108     1.0  0.80115  0.42899  0.09670  1.0000
  C   C649      1.0  0.86387  0.39831  0.01088  1.0000
  C   C650      1.0  0.59443  0.24327  0.99517  1.0000
  C   C651      1.0  0.73347  0.06362  0.19668  1.0000
  H   H1109     1.0  0.64597  0.35798  0.14855  1.0000
  H   H1110     1.0  0.03659  0.03950  0.19832  1.0000
  S   S187      1.0  0.64473  0.26589  0.03023  1.0000
  H   H1111     1.0  0.95531  0.05781  0.13292  1.0000
  S   S188      1.0  0.78400  0.08762  0.10583  1.0000
  S   S189      1.0  0.84714  0.02900  0.15216  1.0000
  Fe  Fe91      1.0  0.99599  0.14109  0.06254  1.0000
  S   S190      1.0  0.80139  0.25908  0.20567  1.0000
  H   H1112     1.0  0.78260  0.20519  0.10448  1.0000
  S   S191      1.0  0.96623  0.12911  0.15205  1.0000
  H   H1113     1.0  0.94037  0.33422  0.11305  1.0000
  S   S192      1.0  0.03743  0.44228  0.18011  1.0000
  H   H1114     1.0  0.70684  0.42937  0.02459  1.0000
  C   C652      1.0  0.62717  0.35768  0.12274  1.0000
  Fe  Fe92      1.0  0.55472  0.13287  0.98735  1.0000
  H   H1115     1.0  0.96063  0.26993  0.14801  1.0000
  H   H1116     1.0  0.00160  0.03501  0.09961  1.0000
  H   H1117     1.0  0.56053  0.35220  0.12874  1.0000
  C   C653      1.0  0.57648  0.98959  0.00418  1.0000
  H   H1118     1.0  0.85141  0.09761  0.14501  1.0000
  H   H1119     1.0  0.88420  0.18129  0.04731  1.0000
  H   H1120     1.0  0.97119  0.22451  0.13653  1.0000
  C   C654      1.0  0.72501  0.44477  0.03299  1.0000
  C   C655      1.0  0.61694  0.29913  0.15668  1.0000
  H   H1121     1.0  0.75066  0.39433  0.99757  1.0000
  N   N48       1.0  0.58863  0.97394  0.19895  1.0000
  H   H1122     1.0  0.57127  0.44480  0.98649  1.0000
  H   H1123     1.0  0.89595  0.20277  0.19817  1.0000
  H   H1124     1.0  0.97597  0.29868  0.17357  1.0000
  C   C656      1.0  0.88639  0.19381  0.12276  1.0000
  H   H1125     1.0  0.76544  0.24757  0.01877  1.0000
  C   C657      1.0  0.57073  0.02916  0.19205  1.0000
  H   H1126     1.0  0.62158  0.19886  0.11372  1.0000
  H   H1127     1.0  0.73824  0.15888  0.07007  1.0000
  C   C658      1.0  0.73610  0.17387  0.02468  1.0000
  H   H1128     1.0  0.94203  0.36287  0.14734  1.0000
  H   H1129     1.0  0.91902  0.05684  0.18171  1.0000
  H   H1130     1.0  0.85995  0.28922  0.04444  1.0000
  H   H1131     1.0  0.84715  0.28818  0.98062  1.0000
  S   S193      1.0  0.98531  0.17996  0.98373  1.0000
  S   S194      1.0  0.69660  0.34560  0.02011  1.0000
  H   H1132     1.0  0.72176  0.43630  0.08131  1.0000
  C   C659      1.0  0.92999  0.04837  0.14682  1.0000
  H   H1133     1.0  0.85475  0.37286  0.03761  1.0000
  H   H1134     1.0  0.88942  0.35792  0.11899  1.0000
  H   H1135     1.0  0.64535  0.11144  0.06240  1.0000
  S   S195      1.0  0.00152  0.10517  0.01947  1.0000
  H   H1136     1.0  0.58581  0.22900  0.04084  1.0000
  H   H1137     1.0  0.71647  0.13798  0.99507  1.0000
  H   H1138     1.0  0.89645  0.26065  0.99990  1.0000
  C   C660      1.0  0.03930  0.24917  0.11495  1.0000
  H   H1139     1.0  0.62990  0.98638  0.08871  1.0000
  C   C661      1.0  0.89894  0.28728  0.97788  1.0000
  H   H1140     1.0  0.64755  0.95582  0.14233  1.0000
  H   H1141     1.0  0.74213  0.18587  0.12811  1.0000
  C   C662      1.0  0.61499  0.39107  0.10628  1.0000
  C   C663      1.0  0.90984  0.37195  0.08382  1.0000
  H   H1142     1.0  0.67994  0.19333  0.11682  1.0000
  H   H1143     1.0  0.00998  0.25212  0.01052  1.0000
  C   C664      1.0  0.89857  0.05804  0.00582  1.0000
  H   H1144     1.0  0.75084  0.22571  0.12505  1.0000
  H   H1145     1.0  0.77497  0.13711  0.15308  1.0000
  H   H1146     1.0  0.57739  0.15510  0.09213  1.0000
  H   H1147     1.0  0.78794  0.40184  0.01494  1.0000
  N   N49       1.0  0.75942  0.20358  0.00143  1.0000
  C   C665      1.0  0.75729  0.20872  0.10254  1.0000
  C   C666      1.0  0.58218  0.00653  0.15984  1.0000
  S   S196      1.0  0.87813  0.28037  0.18299  1.0000
  H   H1148     1.0  0.02613  0.30964  0.10873  1.0000
  H   H1149     1.0  0.87570  0.05598  0.03318  1.0000
  Fe  Fe93      1.0  0.67482  0.31287  0.98251  1.0000
  H   H1150     1.0  0.88209  0.39929  0.97339  1.0000
  C   C667      1.0  0.81944  0.22073  0.98304  1.0000
  H   H1151     1.0  0.75882  0.39057  0.12054  1.0000
  H   H1152     1.0  0.66622  0.13269  0.20075  1.0000
  C   C668      1.0  0.90149  0.18927  0.17035  1.0000
  H   H1153     1.0  0.91295  0.00679  0.13094  1.0000
  C   C669      1.0  0.64303  0.00297  0.19734  1.0000
  H   H1154     1.0  0.94203  0.39515  0.97141  1.0000
  C   C670      1.0  0.63879  0.14474  0.10802  1.0000
  H   H1155     1.0  0.62588  0.30030  0.11126  1.0000
  H   H1156     1.0  0.56815  0.18102  0.13293  1.0000
  H   H1157     1.0  0.66385  0.22331  0.14180  1.0000
  H   H1158     1.0  0.92684  0.14501  0.06424  1.0000
  H   H1159     1.0  0.66510  0.14898  0.10041  1.0000
  C   C671      1.0  0.98274  0.27969  0.15616  1.0000
  C   C672      1.0  0.86637  0.29819  0.99590  1.0000
  C   C673      1.0  0.94054  0.36025  0.10513  1.0000
  H   H1160     1.0  0.63180  0.16314  0.06938  1.0000
  C   C674      1.0  0.75581  0.08990  0.16312  1.0000
  H   H1161     1.0  0.84681  0.12962  0.17126  1.0000
  C   C675      1.0  0.89565  0.17787  0.08437  1.0000
  H   H1162     1.0  0.55625  0.40357  0.02447  1.0000
  H   H1163     1.0  0.96925  0.03694  0.06005  1.0000
  C   C676      1.0  0.76232  0.40524  0.02396  1.0000
  H   H1164     1.0  0.63556  0.40981  0.08586  1.0000
  Fe  Fe94      1.0  0.84823  0.99621  0.10205  1.0000
  H   H1165     1.0  0.61289  0.18940  0.18967  1.0000
  H   H1166     1.0  0.03165  0.11441  0.15697  1.0000
  H   H1167     1.0  0.98916  0.97344  0.14022  1.0000
  N   N50       1.0  0.60245  0.32940  0.15576  1.0000
  H   H1168     1.0  0.67098  0.18636  0.19442  1.0000
  C   C677      1.0  0.75171  0.22339  0.03905  1.0000
  H   H1169     1.0  0.02259  0.23289  0.15441  1.0000
  H   H1170     1.0  0.63774  0.09163  0.14018  1.0000
  C   C678      1.0  0.97029  0.98967  0.12774  1.0000
  H   H1171     1.0  0.71111  0.17988  0.02920  1.0000
  Fe  Fe95      1.0  0.78087  0.96691  0.15876  1.0000
  S   S197      1.0  0.89091  0.99257  0.04048  1.0000
  H   H1172     1.0  0.60597  0.10765  0.10165  1.0000
  C   C679      1.0  0.85444  0.10513  0.18197  1.0000
  C   C680      1.0  0.62395  0.26155  0.97774  1.0000
  H   H1173     1.0  0.93194  0.41408  0.13261  1.0000
  H   H1174     1.0  0.60325  0.01912  0.12544  1.0000
  H   H1175     1.0  0.57993  0.30809  0.06213  1.0000
  H   H1176     1.0  0.90812  0.36394  0.04698  1.0000
  C   C681      1.0  0.62874  0.18377  0.15522  1.0000
  C   C682      1.0  0.73990  0.15104  0.99025  1.0000
  C   C683      1.0  0.93434  0.15241  0.14237  1.0000
  H   H1177     1.0  0.72252  0.38159  0.09850  1.0000
  C   C684      1.0  0.58043  0.33277  0.06309  1.0000
  C   C685      1.0  0.93447  0.42783  0.02091  1.0000
  C   C686      1.0  0.57395  0.33169  0.12681  1.0000
  C   C687      1.0  0.79242  0.19325  0.00262  1.0000
  N   N51       1.0  0.94944  0.99109  0.18180  1.0000
  H   H1178     1.0  0.79427  0.17618  0.04689  1.0000
  Fe  Fe96      1.0  0.79848  0.03751  0.13283  1.0000
  S   S198      1.0  0.04811  0.15726  0.04092  1.0000
  H   H1179     1.0  0.55617  0.31051  0.15134  1.0000
  H   H1180     1.0  0.68137  0.45090  0.16637  1.0000
  H   H1181     1.0  0.88006  0.10568  0.18376  1.0000
  H   H1182     1.0  0.75532  0.35872  0.09478  1.0000
  S   S199      1.0  0.78891  0.34768  0.97183  1.0000
  C   C688      1.0  0.78639  0.44932  0.08372  1.0000
  H   H1183     1.0  0.56375  0.00379  0.13516  1.0000
  H   H1184     1.0  0.96207  0.37270  0.07191  1.0000
  C   C689      1.0  0.63129  0.11174  0.10393  1.0000
  S   S200      1.0  0.01692  0.38746  0.12996  1.0000
  H   H1185     1.0  0.58458  0.11137  0.18989  1.0000
  C   C690      1.0  0.92481  0.16798  0.18107  1.0000
  H   H1186     1.0  0.93050  0.45367  0.00695  1.0000
  C   C691      1.0  0.91477  0.08855  0.97332  1.0000
  H   H1187     1.0  0.85623  0.40903  0.08815  1.0000
  H   H1188     1.0  0.58126  0.05409  0.16532  1.0000
  H   H1189     1.0  0.89227  0.39685  0.16058  1.0000
  C   C692      1.0  0.66299  0.19699  0.15206  1.0000
  H   H1190     1.0  0.90264  0.45240  0.15885  1.0000
  Fe  Fe97      1.0  0.01963  0.44115  0.10142  1.0000
  H   H1191     1.0  0.63988  0.35589  0.08164  1.0000
  H   H1192     1.0  0.59961  0.39471  0.07342  1.0000
  C   C693      1.0  0.56891  0.15571  0.13624  1.0000
  C   C694      1.0  0.91141  0.03064  0.00091  1.0000
  C   C695      1.0  0.90774  0.41514  0.12182  1.0000
  C   C696      1.0  0.75740  0.11695  0.17862  1.0000
  H   H1193     1.0  0.90252  0.00420  0.20450  1.0000
  N   N52       1.0  0.62404  0.14860  0.16430  1.0000
  H   H1194     1.0  0.96158  0.21771  0.07436  1.0000
  C   C697      1.0  0.05052  0.03600  0.16118  1.0000
  S   S201      1.0  0.85582  0.21903  0.11158  1.0000
  C   C698      1.0  0.98140  0.22423  0.09300  1.0000
  H   H1195     1.0  0.98024  0.27296  0.03524  1.0000
  N   N53       1.0  0.02278  0.27282  0.07185  1.0000
  C   C699      1.0  0.64512  0.29142  0.18885  1.0000
  Fe  Fe98      1.0  0.05274  0.12441  0.99086  1.0000
  H   H1196     1.0  0.91631  0.29606  0.99887  1.0000
  C   C700      1.0  0.98675  0.02170  0.08167  1.0000
  S   S202      1.0  0.80150  0.00823  0.07602  1.0000
  C   C701      1.0  0.99874  0.25678  0.05005  1.0000
  C   C702      1.0  0.74885  0.38344  0.08824  1.0000
  H   H1197     1.0  0.66590  0.30965  0.16650  1.0000
  C   C703      1.0  0.58900  0.13753  0.18094  1.0000
  H   H1198     1.0  0.65349  0.00403  0.15301  1.0000
  H   H1199     1.0  0.99191  0.26127  0.19132  1.0000
  H   H1200     1.0  0.73145  0.04319  0.18356  1.0000
  Fe  Fe99      1.0  0.84678  0.23921  0.18283  1.0000
  H   H1201     1.0  0.98195  0.02692  0.19078  1.0000
  H   H1202     1.0  0.56859  0.22210  0.19308  1.0000
  H   H1203     1.0  0.60224  0.39523  0.14501  1.0000
  Fe  Fe100     1.0  0.03792  0.38955  0.20460  1.0000
  S   S203      1.0  0.82305  0.34940  0.18219  1.0000
  H   H1204     1.0  0.87605  0.44174  0.02504  1.0000
  H   H1205     1.0  0.80787  0.40673  0.20373  1.0000
  H   H1206     1.0  0.82394  0.95787  0.03112  1.0000
  H   H1207     1.0  0.81648  0.23587  0.00997  1.0000
  Fe  Fe101     1.0  0.83275  0.29765  0.21458  1.0000
  H   H1208     1.0  0.84226  0.21019  0.98862  1.0000
  C   C704      1.0  0.04250  0.12359  0.18614  1.0000
  H   H1209     1.0  0.60114  0.99464  0.97893  1.0000
  H   H1210     1.0  0.94474  0.24573  0.97679  1.0000
  H   H1211     1.0  0.76326  0.44328  0.11419  1.0000
  H   H1212     1.0  0.56097  0.00680  0.98063  1.0000
  H   H1213     1.0  0.75679  0.13327  0.00683  1.0000
  H   H1214     1.0  0.79812  0.17932  0.97374  1.0000
  H   H1215     1.0  0.02507  0.13785  0.20111  1.0000
  C   C705      1.0  0.63980  0.12835  0.21275  1.0000
  C   C706      1.0  0.03677  0.32039  0.97212  1.0000
  H   H1216     1.0  0.05214  0.08526  0.10327  1.0000
  C   C707      1.0  0.56263  0.95466  0.02032  1.0000
  H   H1217     1.0  0.90311  0.44649  0.44443  1.0000
  C   C708      1.0  0.71710  0.08969  0.26538  1.0000
  C   C709      1.0  0.99891  0.29112  0.31878  1.0000
  H   H1218     1.0  0.99316  0.45444  0.39388  1.0000
  H   H1219     1.0  0.89076  0.06214  0.27098  1.0000
  H   H1220     1.0  0.56296  0.19246  0.36906  1.0000
  H   H1221     1.0  0.56345  0.22672  0.26204  1.0000
  C   C710      1.0  0.95903  0.42305  0.27425  1.0000
  H   H1222     1.0  0.96779  0.01663  0.29188  1.0000
  S   S204      1.0  0.83275  0.27101  0.31011  1.0000
  H   H1223     1.0  0.69834  0.04228  0.27559  1.0000
  H   H1224     1.0  0.86823  0.33164  0.25853  1.0000
  H   H1225     1.0  0.57893  0.17878  0.31022  1.0000
  H   H1226     1.0  0.81007  0.07810  0.23024  1.0000
  H   H1227     1.0  0.79626  0.12028  0.26000  1.0000
  H   H1228     1.0  0.04402  0.45438  0.44537  1.0000
  H   H1229     1.0  0.01361  0.14419  0.29060  1.0000
  Fe  Fe102     1.0  0.55859  0.41623  0.23724  1.0000
  C   C711      1.0  0.98626  0.34800  0.45078  1.0000
  H   H1230     1.0  0.03382  0.09620  0.37465  1.0000
  H   H1231     1.0  0.01466  0.17437  0.43474  1.0000
  H   H1232     1.0  0.68418  0.26074  0.27462  1.0000
  C   C712      1.0  0.99445  0.31801  0.45083  1.0000
  H   H1233     1.0  0.86436  0.10309  0.34211  1.0000
  H   H1234     1.0  0.68577  0.25835  0.46018  1.0000
  S   S205      1.0  0.57869  0.99126  0.43836  1.0000
  H   H1235     1.0  0.78364  0.10977  0.36702  1.0000
  C   C713      1.0  0.99309  0.32317  0.29371  1.0000
  H   H1236     1.0  0.84323  0.05710  0.24707  1.0000
  H   H1237     1.0  0.99625  0.21087  0.43077  1.0000
  C   C714      1.0  0.71423  0.06340  0.24808  1.0000
  H   H1238     1.0  0.79534  0.34407  0.36712  1.0000
  S   S206      1.0  0.05096  0.97434  0.23500  1.0000
  H   H1239     1.0  0.98899  0.98709  0.22637  1.0000
  C   C715      1.0  0.95181  0.00357  0.27482  1.0000
  H   H1240     1.0  0.04088  0.44628  0.34968  1.0000
  H   H1241     1.0  0.87863  0.11908  0.26583  1.0000
  H   H1242     1.0  0.83257  0.14201  0.25221  1.0000
  H   H1243     1.0  0.66279  0.31106  0.41696  1.0000
  C   C716      1.0  0.88773  0.07005  0.30872  1.0000
  C   C717      1.0  0.61579  0.97566  0.22998  1.0000
  C   C718      1.0  0.96493  0.33035  0.27216  1.0000
  C   C719      1.0  0.62896  0.13112  0.27308  1.0000
  H   H1244     1.0  0.65207  0.18816  0.44550  1.0000
  C   C720      1.0  0.86861  0.36662  0.29935  1.0000
  H   H1245     1.0  0.66247  0.99908  0.22284  1.0000
  C   C721      1.0  0.71734  0.96938  0.35089  1.0000
  Fe  Fe103     1.0  0.80431  0.23136  0.29915  1.0000
  S   S207      1.0  0.84729  0.20869  0.27587  1.0000
  H   H1246     1.0  0.74018  0.13720  0.24336  1.0000
  H   H1247     1.0  0.57740  0.02295  0.23556  1.0000
  S   S208      1.0  0.69716  0.08757  0.33387  1.0000
  H   H1248     1.0  0.70696  0.17433  0.44838  1.0000
  H   H1249     1.0  0.55543  0.96980  0.27816  1.0000
  C   C722      1.0  0.94220  0.30529  0.27788  1.0000
  H   H1250     1.0  0.94891  0.19538  0.41262  1.0000
  H   H1251     1.0  0.82252  0.12865  0.36277  1.0000
  H   H1252     1.0  0.60721  0.97857  0.27240  1.0000
  Fe  Fe104     1.0  0.76963  0.44553  0.43651  1.0000
  H   H1253     1.0  0.93499  0.09544  0.44729  1.0000
  H   H1254     1.0  0.92547  0.13479  0.40376  1.0000
  H   H1255     1.0  0.97394  0.14794  0.42292  1.0000
  C   C723      1.0  0.94795  0.27321  0.30445  1.0000
  S   S209      1.0  0.83881  0.97948  0.31474  1.0000
  H   H1256     1.0  0.84804  0.14917  0.42392  1.0000
  H   H1257     1.0  0.79416  0.15131  0.32475  1.0000
  H   H1258     1.0  0.93653  0.16484  0.21772  1.0000
  S   S210      1.0  0.57443  0.37990  0.31303  1.0000
  H   H1259     1.0  0.77590  0.25671  0.43046  1.0000
  H   H1260     1.0  0.61255  0.33239  0.23673  1.0000
  H   H1261     1.0  0.92012  0.31072  0.26281  1.0000
  C   C724      1.0  0.02843  0.09571  0.33295  1.0000
  N   N54       1.0  0.72492  0.29432  0.44658  1.0000
  C   C725      1.0  0.82474  0.39548  0.23045  1.0000
  H   H1262     1.0  0.87923  0.04916  0.34997  1.0000
  S   S211      1.0  0.02026  0.35357  0.29376  1.0000
  C   C726      1.0  0.98936  0.44511  0.35928  1.0000
  H   H1263     1.0  0.74438  0.99308  0.43469  1.0000
  H   H1264     1.0  0.02052  0.28526  0.33534  1.0000
  H   H1265     1.0  0.98855  0.11137  0.28791  1.0000
  H   H1266     1.0  0.60801  0.11363  0.29873  1.0000
  C   C727      1.0  0.93364  0.18472  0.45689  1.0000
  H   H1267     1.0  0.02406  0.41878  0.32332  1.0000
  S   S212      1.0  0.65469  0.00185  0.44045  1.0000
  H   H1268     1.0  0.81629  0.06664  0.38604  1.0000
  H   H1269     1.0  0.97464  0.40684  0.29970  1.0000
  H   H1270     1.0  0.96305  0.42164  0.22998  1.0000
  H   H1271     1.0  0.58284  0.27715  0.26988  1.0000
  H   H1272     1.0  0.73163  0.39305  0.29690  1.0000
  Fe  Fe105     1.0  0.65587  0.04977  0.36925  1.0000
  H   H1273     1.0  0.70202  0.33721  0.44374  1.0000
  Fe  Fe106     1.0  0.62097  0.41015  0.28115  1.0000
  C   C728      1.0  0.97661  0.26634  0.32353  1.0000
  C   C729      1.0  0.05068  0.09466  0.23553  1.0000
  C   C730      1.0  0.80365  0.12755  0.33794  1.0000
  S   S213      1.0  0.76539  0.19960  0.37039  1.0000
  H   H1274     1.0  0.77666  0.96549  0.38602  1.0000
  Fe  Fe107     1.0  0.55991  0.41250  0.36161  1.0000
  H   H1275     1.0  0.00037  0.31410  0.41030  1.0000
  H   H1276     1.0  0.75314  0.40122  0.37755  1.0000
  Fe  Fe108     1.0  0.82385  0.98621  0.22946  1.0000
  C   C731      1.0  0.57041  0.29916  0.26095  1.0000
  C   C732      1.0  0.78091  0.05312  0.34323  1.0000
  C   C733      1.0  0.91897  0.30355  0.42417  1.0000
  C   C734      1.0  0.83592  0.36686  0.22848  1.0000
  N   N55       1.0  0.83302  0.09025  0.29215  1.0000
  H   H1277     1.0  0.01597  0.07131  0.34556  1.0000
  C   C735      1.0  0.93560  0.95711  0.22005  1.0000
  C   C736      1.0  0.00428  0.18877  0.46003  1.0000
  C   C737      1.0  0.67460  0.39712  0.43197  1.0000
  C   C738      1.0  0.83511  0.40934  0.26770  1.0000
  C   C739      1.0  0.68281  0.39065  0.33797  1.0000
  H   H1278     1.0  0.82791  0.04037  0.35028  1.0000
  C   C740      1.0  0.72670  0.20922  0.36368  1.0000
  Fe  Fe109     1.0  0.58567  0.03994  0.36624  1.0000
  S   S214      1.0  0.61202  0.06299  0.41352  1.0000
  C   C741      1.0  0.66438  0.22527  0.35975  1.0000
  H   H1279     1.0  0.66374  0.28763  0.37233  1.0000
  H   H1280     1.0  0.91844  0.95683  0.25910  1.0000
  H   H1281     1.0  0.79328  0.31030  0.43300  1.0000
  C   C742      1.0  0.70743  0.40306  0.42639  1.0000
  C   C743      1.0  0.70099  0.27860  0.42417  1.0000
  H   H1282     1.0  0.73604  0.98831  0.34614  1.0000
  C   C744      1.0  0.02238  0.44313  0.32526  1.0000
  H   H1283     1.0  0.73997  0.33481  0.36501  1.0000
  C   C745      1.0  0.86584  0.09723  0.30195  1.0000
  H   H1284     1.0  0.56400  0.30253  0.30342  1.0000
  H   H1285     1.0  0.85858  0.32036  0.43217  1.0000
  H   H1286     1.0  0.69258  0.32127  0.35072  1.0000
  S   S215      1.0  0.62583  0.23671  0.36066  1.0000
  C   C746      1.0  0.70194  0.19283  0.41038  1.0000
  H   H1287     1.0  0.88589  0.35557  0.32535  1.0000
  H   H1288     1.0  0.98149  0.24172  0.34267  1.0000
  H   H1289     1.0  0.93387  0.41385  0.29432  1.0000
  C   C747      1.0  0.66232  0.39062  0.38797  1.0000
  H   H1290     1.0  0.57443  0.15291  0.38448  1.0000
  H   H1291     1.0  0.94101  0.29231  0.41579  1.0000
  C   C748      1.0  0.67090  0.20087  0.40870  1.0000
  H   H1292     1.0  0.93014  0.01622  0.27005  1.0000
  Fe  Fe110     1.0  0.83657  0.44419  0.37617  1.0000
  C   C749      1.0  0.81567  0.06247  0.34476  1.0000
  C   C750      1.0  0.67903  0.30127  0.38927  1.0000
  H   H1293     1.0  0.94547  0.97904  0.30850  1.0000
  H   H1294     1.0  0.98749  0.11932  0.35440  1.0000
  C   C751      1.0  0.72028  0.23357  0.31431  1.0000
  H   H1295     1.0  0.69524  0.98123  0.34464  1.0000
  H   H1296     1.0  0.03056  0.07548  0.24887  1.0000
  H   H1297     1.0  0.63870  0.28900  0.23531  1.0000
  H   H1298     1.0  0.76589  0.04740  0.38715  1.0000
  H   H1299     1.0  0.91172  0.07917  0.31102  1.0000
  S   S216      1.0  0.62979  0.03051  0.31591  1.0000
  H   H1300     1.0  0.64864  0.12643  0.29779  1.0000
  H   H1301     1.0  0.92465  0.32983  0.40067  1.0000
  H   H1302     1.0  0.73934  0.24660  0.27829  1.0000
  H   H1303     1.0  0.75908  0.30038  0.36734  1.0000
  H   H1304     1.0  0.92814  0.42628  0.37550  1.0000
  S   S217      1.0  0.66756  0.38917  0.27778  1.0000
  H   H1305     1.0  0.62312  0.15532  0.27046  1.0000
  C   C752      1.0  0.00324  0.11899  0.31455  1.0000
  H   H1306     1.0  0.77934  0.03201  0.32985  1.0000
  H   H1307     1.0  0.77027  0.07261  0.31296  1.0000
  C   C753      1.0  0.72790  0.39982  0.37922  1.0000
  C   C754      1.0  0.68900  0.24148  0.31218  1.0000
  H   H1308     1.0  0.74695  0.11909  0.45776  1.0000
  S   S218      1.0  0.60771  0.44038  0.33458  1.0000
  H   H1309     1.0  0.96020  0.35510  0.25308  1.0000
  C   C755      1.0  0.93311  0.45285  0.36069  1.0000
  H   H1310     1.0  0.71324  0.26707  0.39479  1.0000
  Fe  Fe111     1.0  0.87596  0.25100  0.27772  1.0000
  S   S219      1.0  0.91985  0.24086  0.31642  1.0000
  Fe  Fe112     1.0  0.60088  0.21621  0.45470  1.0000
  H   H1311     1.0  0.97893  0.41985  0.38295  1.0000
  H   H1312     1.0  0.77295  0.34509  0.43337  1.0000
  H   H1313     1.0  0.63693  0.38608  0.39246  1.0000
  C   C756      1.0  0.85828  0.35278  0.26216  1.0000
  C   C757      1.0  0.75013  0.31437  0.39481  1.0000
  C   C758      1.0  0.83436  0.08106  0.23920  1.0000
  Fe  Fe113     1.0  0.62485  0.98312  0.39077  1.0000
  C   C759      1.0  0.56329  0.17205  0.35370  1.0000
  H   H1314     1.0  0.82686  0.43165  0.26826  1.0000
  C   C760      1.0  0.85648  0.39452  0.30319  1.0000
  C   C761      1.0  0.81644  0.12041  0.28257  1.0000
  H   H1315     1.0  0.90104  0.29417  0.40515  1.0000
  S   S220      1.0  0.86840  0.41023  0.35268  1.0000
  H   H1316     1.0  0.98585  0.36702  0.40960  1.0000
  H   H1317     1.0  0.56711  0.34830  0.42791  1.0000
  C   C762      1.0  0.92951  0.11943  0.44769  1.0000
  C   C763      1.0  0.71565  0.39409  0.33457  1.0000
  C   C764      1.0  0.59183  0.32919  0.21685  1.0000
  H   H1318     1.0  0.73973  0.22947  0.45756  1.0000
  H   H1319     1.0  0.70977  0.11333  0.43813  1.0000
  C   C765      1.0  0.77936  0.32908  0.40890  1.0000
  H   H1320     1.0  0.57853  0.13998  0.22296  1.0000
  C   C766      1.0  0.55963  0.95780  0.24586  1.0000
  C   C767      1.0  0.73794  0.11687  0.22980  1.0000
  H   H1321     1.0  0.03336  0.39944  0.46284  1.0000
  H   H1322     1.0  0.83370  0.27041  0.44750  1.0000
  H   H1323     1.0  0.63500  0.10243  0.22047  1.0000
  C   C768      1.0  0.75357  0.97175  0.46396  1.0000
  H   H1324     1.0  0.72315  0.96003  0.31509  1.0000
  H   H1325     1.0  0.71189  0.45211  0.23998  1.0000
  H   H1326     1.0  0.89497  0.35706  0.44656  1.0000
  H   H1327     1.0  0.04644  0.03202  0.36287  1.0000
  H   H1328     1.0  0.91265  0.22906  0.44928  1.0000
  H   H1329     1.0  0.91087  0.17593  0.44895  1.0000
  C   C769      1.0  0.95718  0.13493  0.46487  1.0000
  C   C770      1.0  0.96954  0.00267  0.21620  1.0000
  H   H1330     1.0  0.57832  0.35001  0.21568  1.0000
  H   H1331     1.0  0.90575  0.26790  0.51171  1.0000
  H   H1332     1.0  0.66501  0.31837  0.52962  1.0000
  S   S221      1.0  0.97430  0.10494  0.70674  1.0000
  S   S222      1.0  0.84138  0.08069  0.47384  1.0000
  H   H1333     1.0  0.84109  0.44926  0.61651  1.0000
  C   C771      1.0  0.93113  0.10659  0.59038  1.0000
  H   H1334     1.0  0.82174  0.26007  0.52578  1.0000
  C   C772      1.0  0.83963  0.10942  0.50677  1.0000
  H   H1335     1.0  0.64349  0.18235  0.65944  1.0000
  H   H1336     1.0  0.97894  0.04680  0.59109  1.0000
  H   H1337     1.0  0.74775  0.43191  0.56873  1.0000
  H   H1338     1.0  0.68329  0.08696  0.54282  1.0000
  H   H1339     1.0  0.65639  0.96957  0.60264  1.0000
  H   H1340     1.0  0.65247  0.23680  0.65649  1.0000
  H   H1341     1.0  0.94809  0.03561  0.48632  1.0000
  H   H1342     1.0  0.63376  0.29735  0.64064  1.0000
  C   C773      1.0  0.97762  0.16919  0.51202  1.0000
  H   H1343     1.0  0.72728  0.32626  0.49430  1.0000
  C   C774      1.0  0.73255  0.30458  0.66569  1.0000
  H   H1344     1.0  0.01587  0.43881  0.51177  1.0000
  H   H1345     1.0  0.77247  0.15673  0.48881  1.0000
  H   H1346     1.0  0.97082  0.11581  0.48967  1.0000
  C   C775      1.0  0.59798  0.03275  0.65754  1.0000
  C   C776      1.0  0.04128  0.43895  0.49249  1.0000
  Fe  Fe114     1.0  0.76126  0.23394  0.67981  1.0000
  H   H1347     1.0  0.91147  0.20358  0.52353  1.0000
  C   C777      1.0  0.61609  0.06627  0.55576  1.0000
  S   S223      1.0  0.55490  0.23433  0.48025  1.0000
  H   H1348     1.0  0.00902  0.95976  0.51917  1.0000
  H   H1349     1.0  0.76402  0.11057  0.60804  1.0000
  C   C778      1.0  0.57149  0.38151  0.70112  1.0000
  H   H1350     1.0  0.62309  0.06893  0.51085  1.0000
  C   C779      1.0  0.59230  0.43758  0.67736  1.0000
  Fe  Fe115     1.0  0.59718  0.16551  0.57699  1.0000
  Fe  Fe116     1.0  0.60891  0.01386  0.48197  1.0000
  H   H1351     1.0  0.02396  0.19675  0.47731  1.0000
  H   H1352     1.0  0.55623  0.08587  0.49907  1.0000
  H   H1353     1.0  0.71788  0.33957  0.59174  1.0000
  C   C780      1.0  0.61839  0.09337  0.57097  1.0000
  C   C781      1.0  0.56086  0.30111  0.57026  1.0000
  H   H1354     1.0  0.99169  0.98334  0.62113  1.0000
  H   H1355     1.0  0.71359  0.08965  0.67325  1.0000
  H   H1356     1.0  0.61282  0.45389  0.67642  1.0000
  H   H1357     1.0  0.73409  0.16015  0.52640  1.0000
  Fe  Fe117     1.0  0.85097  0.98585  0.65625  1.0000
  H   H1358     1.0  0.59088  0.44275  0.63072  1.0000
  C   C782      1.0  0.74369  0.04394  0.65021  1.0000
  H   H1359     1.0  0.92927  0.30187  0.50637  1.0000
  C   C783      1.0  0.04481  0.40393  0.49647  1.0000
  H   H1360     1.0  0.68970  0.28992  0.56912  1.0000
  H   H1361     1.0  0.68101  0.14316  0.59302  1.0000
  S   S224      1.0  0.81262  0.23008  0.68298  1.0000
  H   H1362     1.0  0.98855  0.14872  0.54029  1.0000
  C   C784      1.0  0.90856  0.29456  0.49082  1.0000
  C   C785      1.0  0.89141  0.29571  0.61412  1.0000
  S   S225      1.0  0.58213  0.16419  0.49587  1.0000
  H   H1363     1.0  0.63660  0.37360  0.69959  1.0000
  C   C786      1.0  0.60475  0.03612  0.59856  1.0000
  C   C787      1.0  0.56811  0.31084  0.50946  1.0000
  H   H1364     1.0  0.92695  0.08891  0.56976  1.0000
  N   N56       1.0  0.77844  0.45188  0.67435  1.0000
  C   C788      1.0  0.84394  0.14197  0.47106  1.0000
  C   C789      1.0  0.63386  0.22045  0.69286  1.0000
  H   H1365     1.0  0.94825  0.22631  0.47799  1.0000
  C   C790      1.0  0.92452  0.14058  0.55266  1.0000
  H   H1366     1.0  0.73589  0.95972  0.50473  1.0000
  C   C791      1.0  0.78722  0.39138  0.69928  1.0000
  C   C792      1.0  0.88869  0.34432  0.49487  1.0000
  Fe  Fe118     1.0  0.94866  0.39129  0.59270  1.0000
  C   C793      1.0  0.97809  0.35280  0.50371  1.0000
  S   S226      1.0  0.96560  0.19510  0.66486  1.0000
  C   C794      1.0  0.72784  0.05953  0.59691  1.0000
  H   H1367     1.0  0.91409  0.28563  0.60545  1.0000
  S   S227      1.0  0.62048  0.21614  0.53352  1.0000
  H   H1368     1.0  0.86368  0.26554  0.58562  1.0000
  S   S228      1.0  0.97629  0.41952  0.63087  1.0000
  H   H1369     1.0  0.65787  0.39729  0.59849  1.0000
  C   C795      1.0  0.84423  0.16548  0.49591  1.0000
  C   C796      1.0  0.83924  0.15662  0.55667  1.0000
  Fe  Fe119     1.0  0.84849  0.03156  0.53305  1.0000
  C   C797      1.0  0.86831  0.29183  0.57509  1.0000
  H   H1370     1.0  0.83148  0.31504  0.49638  1.0000
  H   H1371     1.0  0.81258  0.39628  0.67808  1.0000
  S   S229      1.0  0.96621  0.38997  0.50354  1.0000
  S   S230      1.0  0.03504  0.18119  0.60384  1.0000
  H   H1372     1.0  0.03246  0.38662  0.53992  1.0000
  H   H1373     1.0  0.98432  0.27765  0.59734  1.0000
  Fe  Fe120     1.0  0.99667  0.15503  0.68181  1.0000
  C   C798      1.0  0.02976  0.08473  0.67052  1.0000
  H   H1374     1.0  0.87340  0.38808  0.50465  1.0000
  H   H1375     1.0  0.63920  0.43315  0.58900  1.0000
  H   H1376     1.0  0.91446  0.09841  0.63322  1.0000
  H   H1377     1.0  0.90829  0.99483  0.69757  1.0000
  H   H1378     1.0  0.69878  0.37417  0.64555  1.0000
  H   H1379     1.0  0.89622  0.32107  0.60954  1.0000
  C   C799      1.0  0.86327  0.36277  0.51754  1.0000
  C   C800      1.0  0.63575  0.40674  0.61297  1.0000
  N   N57       1.0  0.94823  0.15735  0.49654  1.0000
  C   C801      1.0  0.74436  0.43958  0.60695  1.0000
  H   H1380     1.0  0.76875  0.16352  0.55527  1.0000
  H   H1381     1.0  0.76745  0.22851  0.50399  1.0000
  H   H1382     1.0  0.66667  0.28074  0.52197  1.0000
  H   H1383     1.0  0.04475  0.41393  0.60392  1.0000
  C   C802      1.0  0.56135  0.34112  0.47452  1.0000
  H   H1384     1.0  0.97337  0.33105  0.59710  1.0000
  H   H1385     1.0  0.84505  0.29933  0.59032  1.0000
  C   C803      1.0  0.68135  0.30000  0.52707  1.0000
  H   H1386     1.0  0.64552  0.31129  0.69473  1.0000
  H   H1387     1.0  0.98879  0.03962  0.66036  1.0000
  H   H1388     1.0  0.70478  0.04475  0.60523  1.0000
  S   S231      1.0  0.56789  0.26270  0.61392  1.0000
  S   S232      1.0  0.94299  0.96623  0.52361  1.0000
  S   S233      1.0  0.75619  0.19328  0.64867  1.0000
  H   H1389     1.0  0.76702  0.05694  0.64593  1.0000
  H   H1390     1.0  0.84876  0.19062  0.46777  1.0000
  H   H1391     1.0  0.67706  0.12965  0.67010  1.0000
  H   H1392     1.0  0.03219  0.31089  0.65800  1.0000
  H   H1393     1.0  0.03037  0.10377  0.62867  1.0000
  S   S234      1.0  0.00275  0.25499  0.50231  1.0000
  N   N58       1.0  0.59761  0.40285  0.70762  1.0000
  C   C804      1.0  0.73895  0.26877  0.49104  1.0000
  C   C805      1.0  0.60135  0.05978  0.67310  1.0000
  H   H1394     1.0  0.85629  0.35308  0.56595  1.0000
  Fe  Fe121     1.0  0.89352  0.37133  0.69500  1.0000
  H   H1395     1.0  0.90012  0.13857  0.54411  1.0000
  H   H1396     1.0  0.56493  0.39272  0.65733  1.0000
  C   C806      1.0  0.83383  0.12404  0.59284  1.0000
  C   C807      1.0  0.99074  0.03031  0.62469  1.0000
  C   C808      1.0  0.61059  0.09021  0.62951  1.0000
  H   H1397     1.0  0.77432  0.98138  0.47657  1.0000
  C   C809      1.0  0.63032  0.39840  0.67987  1.0000
  S   S235      1.0  0.59788  0.00286  0.57878  1.0000
  C   C810      1.0  0.85294  0.30534  0.47977  1.0000
  S   S236      1.0  0.02938  0.24190  0.64898  1.0000
  N   N59       1.0  0.96840  0.97663  0.70907  1.0000
  H   H1398     1.0  0.74819  0.01916  0.65327  1.0000
  H   H1399     1.0  0.61158  0.22382  0.67515  1.0000
  C   C811      1.0  0.75648  0.24479  0.46863  1.0000
  C   C812      1.0  0.70537  0.10358  0.53135  1.0000
  Fe  Fe122     1.0  0.00605  0.22273  0.59252  1.0000
  C   C813      1.0  0.02810  0.03977  0.48164  1.0000
  C   C814      1.0  0.98592  0.29736  0.55626  1.0000
  C   C815      1.0  0.77677  0.45237  0.61396  1.0000
  S   S237      1.0  0.61153  0.12439  0.64779  1.0000
  H   H1400     1.0  0.71471  0.14733  0.62668  1.0000
  H   H1401     1.0  0.84313  0.43389  0.69364  1.0000
  C   C816      1.0  0.97154  0.02774  0.48844  1.0000
  C   C817      1.0  0.84168  0.27052  0.48767  1.0000
  C   C818      1.0  0.97868  0.32759  0.55626  1.0000
  H   H1402     1.0  0.84195  0.36357  0.49748  1.0000
  S   S238      1.0  0.72246  0.41580  0.47693  1.0000
  C   C819      1.0  0.64198  0.18594  0.70167  1.0000
  C   C820      1.0  0.56202  0.44899  0.70377  1.0000
  H   H1403     1.0  0.61609  0.39616  0.59946  1.0000
  C   C821      1.0  0.92625  0.21224  0.47899  1.0000
  N   N60       1.0  0.72285  0.09462  0.58180  1.0000
  N   N61       1.0  0.87959  0.30900  0.51014  1.0000
  C   C822      1.0  0.02005  0.30337  0.70433  1.0000
  C   C823      1.0  0.00594  0.98499  0.50625  1.0000
  C   C824      1.0  0.70970  0.31585  0.47580  1.0000
  H   H1404     1.0  0.58604  0.34593  0.66196  1.0000
  H   H1405     1.0  0.77249  0.10418  0.54097  1.0000
  H   H1406     1.0  0.97157  0.18424  0.53883  1.0000
  H   H1407     1.0  0.64883  0.41344  0.68830  1.0000
  C   C825      1.0  0.64332  0.29007  0.68180  1.0000
  C   C826      1.0  0.83460  0.10036  0.56778  1.0000
  Fe  Fe123     1.0  0.82456  0.96088  0.57268  1.0000
  C   C827      1.0  0.99406  0.29263  0.50338  1.0000
  H   H1408     1.0  0.62670  0.11668  0.53736  1.0000
  S   S239      1.0  0.74330  0.27927  0.62741  1.0000
  H   H1409     1.0  0.92294  0.15504  0.58114  1.0000
  S   S240      1.0  0.84473  0.18646  0.58531  1.0000
  C   C828      1.0  0.69358  0.13163  0.62930  1.0000
  H   H1410     1.0  0.95557  0.10603  0.59930  1.0000
  C   C829      1.0  0.57888  0.34709  0.70607  1.0000
  H   H1411     1.0  0.93006  0.03361  0.67825  1.0000
  C   C830      1.0  0.97558  0.99510  0.50390  1.0000
  H   H1412     1.0  0.75561  0.27970  0.51035  1.0000
  H   H1413     1.0  0.91052  0.34819  0.51112  1.0000
  S   S241      1.0  0.85880  0.99406  0.49391  1.0000
  H   H1414     1.0  0.89694  0.16129  0.66898  1.0000
  Fe  Fe124     1.0  0.89575  0.98203  0.55007  1.0000
  C   C831      1.0  0.70204  0.09773  0.63440  1.0000
  H   H1415     1.0  0.83133  0.07518  0.59552  1.0000
  H   H1416     1.0  0.66764  0.28371  0.67209  1.0000
  H   H1417     1.0  0.86054  0.25415  0.49391  1.0000
  C   C832      1.0  0.97519  0.99546  0.64410  1.0000
  H   H1418     1.0  0.79496  0.43858  0.59905  1.0000
  C   C833      1.0  0.99792  0.05012  0.47681  1.0000
  C   C834      1.0  0.75485  0.11373  0.56724  1.0000
  S   S242      1.0  0.88759  0.02163  0.58467  1.0000
  H   H1419     1.0  0.57928  0.29521  0.48920  1.0000
  H   H1420     1.0  0.69656  0.12733  0.52232  1.0000
  C   C835      1.0  0.75696  0.15034  0.53255  1.0000
  H   H1421     1.0  0.58962  0.00937  0.69105  1.0000
  S   S243      1.0  0.81121  0.99947  0.60707  1.0000
  C   C836      1.0  0.71971  0.33286  0.63730  1.0000
  C   C837      1.0  0.03217  0.00727  0.49527  1.0000
  H   H1422     1.0  0.86041  0.13622  0.69845  1.0000
  H   H1423     1.0  0.72009  0.25418  0.52892  1.0000
  H   H1424     1.0  0.83031  0.11711  0.63985  1.0000
  C   C838      1.0  0.70877  0.35243  0.66784  1.0000
  H   H1425     1.0  0.74316  0.05580  0.55958  1.0000
  S   S244      1.0  0.90328  0.41266  0.60926  1.0000
  H   H1426     1.0  0.73278  0.41874  0.64601  1.0000
  H   H1427     1.0  0.01640  0.03213  0.60588  1.0000
  H   H1428     1.0  0.67922  0.08201  0.64656  1.0000
  Fe  Fe125     1.0  0.80671  0.18721  0.65796  1.0000
  H   H1429     1.0  0.95338  0.99593  0.62510  1.0000
  Fe  Fe126     1.0  0.57296  0.23041  0.56219  1.0000
  Fe  Fe127     1.0  0.93000  0.43718  0.65498  1.0000
  H   H1430     1.0  0.72802  0.04138  0.69209  1.0000
  H   H1431     1.0  0.88037  0.28221  0.66078  1.0000
  H   H1432     1.0  0.77312  0.38650  0.66928  1.0000
  S   S245      1.0  0.93695  0.34824  0.67612  1.0000
  S   S246      1.0  0.81426  0.43188  0.47048  1.0000
  C   C839      1.0  0.88001  0.14782  0.71036  1.0000
  H   H1433     1.0  0.01528  0.95974  0.70422  1.0000
  H   H1434     1.0  0.99798  0.31556  0.70482  1.0000
  H   H1435     1.0  0.90687  0.11501  0.47914  1.0000
  H   H1436     1.0  0.65861  0.39855  0.46929  1.0000
  C   C840      1.0  0.92133  0.01029  0.71429  1.0000
  H   H1437     1.0  0.99478  0.07520  0.46635  1.0000
  Fe  Fe128     1.0  0.96106  0.37807  0.71554  1.0000
  C   C841      1.0  0.72411  0.10358  0.47268  1.0000
  H   H1438     1.0  0.66541  0.18158  0.71461  1.0000
  H   H1439     1.0  0.72837  0.07900  0.47449  1.0000
  H   H1440     1.0  0.78830  0.45839  0.85544  1.0000
  C   C842      1.0  0.88896  0.90104  0.87392  1.0000
  H   H1441     1.0  0.86285  0.75288  0.86161  1.0000
  C   C843      1.0  0.56209  0.72112  0.87744  1.0000
  S   S247      1.0  0.81957  0.52928  0.89214  1.0000
  H   H1442     1.0  0.56904  0.57163  0.79606  1.0000
  H   H1443     1.0  0.83713  0.71786  0.86994  1.0000
  C   C844      1.0  0.73509  0.55105  0.84659  1.0000
  H   H1444     1.0  0.68581  0.62724  0.77302  1.0000
  H   H1445     1.0  0.73193  0.91689  0.86225  1.0000
  H   H1446     1.0  0.01100  0.52017  0.95710  1.0000
  H   H1447     1.0  0.72754  0.48404  0.76118  1.0000
  H   H1448     1.0  0.76945  0.48935  0.75214  1.0000
  H   H1449     1.0  0.94276  0.93114  0.76887  1.0000
  H   H1450     1.0  0.60836  0.89366  0.71622  1.0000
  C   C845      1.0  0.55699  0.83078  0.90530  1.0000
  H   H1451     1.0  0.02216  0.95103  0.80399  1.0000
  C   C846      1.0  0.91917  0.70355  0.89646  1.0000
  C   C847      1.0  0.94234  0.47962  0.76075  1.0000
  C   C848      1.0  0.93648  0.48057  0.81731  1.0000
  H   H1452     1.0  0.59183  0.93870  0.89603  1.0000
  H   H1453     1.0  0.70743  0.59648  0.76165  1.0000
  C   C849      1.0  0.93389  0.69995  0.80081  1.0000
  H   H1454     1.0  0.87277  0.64374  0.88522  1.0000
  H   H1455     1.0  0.57384  0.53011  0.76335  1.0000
  H   H1456     1.0  0.70410  0.84954  0.90282  1.0000
  H   H1457     1.0  0.66285  0.84993  0.92805  1.0000
  H   H1458     1.0  0.63582  0.84798  0.84685  1.0000
  S   S248      1.0  0.04690  0.81633  0.93786  1.0000
  H   H1459     1.0  0.96595  0.47680  0.74124  1.0000
  S   S249      1.0  0.65192  0.73099  0.87264  1.0000
  H   H1460     1.0  0.01733  0.63627  0.83151  1.0000
  H   H1461     1.0  0.74341  0.56365  0.79896  1.0000
  H   H1462     1.0  0.04755  0.74258  0.92844  1.0000
  H   H1463     1.0  0.05018  0.54050  0.93640  1.0000
  H   H1464     1.0  0.77824  0.69984  0.95976  1.0000
  S   S250      1.0  0.87938  0.56742  0.78674  1.0000
  H   H1465     1.0  0.56537  0.53367  0.88922  1.0000
  H   H1466     1.0  0.63081  0.65285  0.81274  1.0000
  H   H1467     1.0  0.75461  0.76958  0.94213  1.0000
  C   C850      1.0  0.74344  0.65294  0.94086  1.0000
  H   H1468     1.0  0.83556  0.75559  0.81345  1.0000
  C   C851      1.0  0.01521  0.57149  0.89937  1.0000
  H   H1469     1.0  0.01341  0.67653  0.89561  1.0000
  H   H1470     1.0  0.79038  0.89442  0.78451  1.0000
  Fe  Fe129     1.0  0.93817  0.84045  0.89055  1.0000
  S   S251      1.0  0.99640  0.78458  0.84685  1.0000
  H   H1471     1.0  0.98206  0.65626  0.82570  1.0000
  H   H1472     1.0  0.66838  0.62996  0.86627  1.0000
  H   H1473     1.0  0.59941  0.69836  0.83956  1.0000
  N   N62       1.0  0.72487  0.89196  0.95628  1.0000
  H   H1474     1.0  0.82286  0.81857  0.75675  1.0000
  C   C852      1.0  0.72183  0.57389  0.87672  1.0000
  C   C853      1.0  0.88165  0.48865  0.80974  1.0000
  H   H1475     1.0  0.75589  0.54096  0.86493  1.0000
  S   S252      1.0  0.82147  0.60684  0.82305  1.0000
  C   C854      1.0  0.89557  0.67796  0.91250  1.0000
  S   S253      1.0  0.98662  0.85912  0.83517  1.0000
  C   C855      1.0  0.75101  0.87175  0.94656  1.0000
  H   H1476     1.0  0.04286  0.83214  0.72783  1.0000
  C   C856      1.0  0.75441  0.84730  0.72643  1.0000
  C   C857      1.0  0.73567  0.63454  0.77037  1.0000
  H   H1477     1.0  0.70751  0.93552  0.90212  1.0000
  H   H1478     1.0  0.76049  0.48043  0.92257  1.0000
  H   H1479     1.0  0.98609  0.92821  0.80892  1.0000
  C   C858      1.0  0.85964  0.94924  0.79799  1.0000
  H   H1480     1.0  0.01045  0.71537  0.89537  1.0000
  H   H1481     1.0  0.03382  0.52943  0.88422  1.0000
  H   H1482     1.0  0.63817  0.59895  0.80469  1.0000
  H   H1483     1.0  0.64160  0.93272  0.93281  1.0000
  H   H1484     1.0  0.56321  0.67228  0.87307  1.0000
  Fe  Fe130     1.0  0.97516  0.82629  0.78931  1.0000
  H   H1485     1.0  0.55631  0.78269  0.82653  1.0000
  H   H1486     1.0  0.62785  0.82993  0.72325  1.0000
  C   C859      1.0  0.61115  0.85175  0.85682  1.0000
  C   C860      1.0  0.66767  0.56741  0.86056  1.0000
  H   H1487     1.0  0.85825  0.49276  0.82783  1.0000
  H   H1488     1.0  0.03482  0.58790  0.86541  1.0000
  C   C861      1.0  0.60143  0.88280  0.83494  1.0000
  C   C862      1.0  0.64881  0.48588  0.85608  1.0000
  S   S254      1.0  0.80301  0.54615  0.74061  1.0000
  H   H1489     1.0  0.94582  0.55162  0.80624  1.0000
  C   C863      1.0  0.99227  0.56869  0.81758  1.0000
  C   C864      1.0  0.65740  0.69895  0.76273  1.0000
  C   C865      1.0  0.95988  0.54621  0.91596  1.0000
  C   C866      1.0  0.83868  0.74416  0.85950  1.0000
  C   C867      1.0  0.81266  0.75347  0.89976  1.0000
  H   H1490     1.0  0.86856  0.49074  0.72886  1.0000
  C   C868      1.0  0.84410  0.83226  0.75991  1.0000
  Fe  Fe131     1.0  0.82664  0.56315  0.79924  1.0000
  H   H1491     1.0  0.86218  0.91964  0.74580  1.0000
  C   C869      1.0  0.64557  0.50292  0.79778  1.0000
  S   S255      1.0  0.55690  0.92624  0.81908  1.0000
  H   H1492     1.0  0.67352  0.55453  0.82986  1.0000
  C   C870      1.0  0.74962  0.47317  0.75149  1.0000
  C   C871      1.0  0.78172  0.88706  0.75218  1.0000
  H   H1493     1.0  0.88661  0.76993  0.95962  1.0000
  H   H1494     1.0  0.83535  0.84805  0.78374  1.0000
  H   H1495     1.0  0.77435  0.88283  0.94778  1.0000
  H   H1496     1.0  0.71746  0.53045  0.85454  1.0000
  H   H1497     1.0  0.04029  0.73675  0.80475  1.0000
  C   C872      1.0  0.76357  0.62865  0.94171  1.0000
  C   C873      1.0  0.63592  0.58106  0.84957  1.0000
  H   H1498     1.0  0.99361  0.63502  0.77843  1.0000
  N   N63       1.0  0.69498  0.59165  0.85294  1.0000
  C   C874      1.0  0.70471  0.61180  0.78856  1.0000
  C   C875      1.0  0.62081  0.67215  0.72602  1.0000
  H   H1499     1.0  0.61824  0.56123  0.85396  1.0000
  H   H1500     1.0  0.97399  0.57039  0.74038  1.0000
  C   C876      1.0  0.65254  0.48899  0.75539  1.0000
  S   S256      1.0  0.02671  0.47227  0.86124  1.0000
  Fe  Fe132     1.0  0.81917  0.57309  0.91563  1.0000
  C   C877      1.0  0.86596  0.95183  0.84956  1.0000
  C   C878      1.0  0.59177  0.76109  0.74924  1.0000
  C   C879      1.0  0.56078  0.73827  0.77093  1.0000
  H   H1501     1.0  0.60855  0.75418  0.77986  1.0000
  S   S257      1.0  0.05147  0.55443  0.72374  1.0000
  C   C880      1.0  0.90621  0.48572  0.84134  1.0000
  H   H1502     1.0  0.74294  0.82336  0.73835  1.0000
  C   C881      1.0  0.75799  0.94637  0.89467  1.0000
  H   H1503     1.0  0.94893  0.70824  0.75779  1.0000
  C   C882      1.0  0.96476  0.57184  0.78369  1.0000
  H   H1504     1.0  0.74190  0.59088  0.87504  1.0000
  H   H1505     1.0  0.70644  0.63034  0.88127  1.0000
  H   H1506     1.0  0.88843  0.87714  0.81263  1.0000
  Fe  Fe133     1.0  0.87208  0.53599  0.88135  1.0000
  C   C883      1.0  0.88751  0.48761  0.75348  1.0000
  C   C884      1.0  0.72910  0.92248  0.90293  1.0000
  C   C885      1.0  0.65917  0.45505  0.87183  1.0000
  H   H1507     1.0  0.93756  0.54843  0.89843  1.0000
  H   H1508     1.0  0.01260  0.58614  0.78816  1.0000
  H   H1509     1.0  0.85958  0.72340  0.96100  1.0000
  C   C886      1.0  0.97211  0.60447  0.86963  1.0000
  H   H1510     1.0  0.61871  0.90301  0.80828  1.0000
  S   S258      1.0  0.87184  0.57712  0.91229  1.0000
  N   N64       1.0  0.98484  0.57273  0.87576  1.0000
  H   H1511     1.0  0.94784  0.60490  0.85908  1.0000
  S   S259      1.0  0.95631  0.79993  0.95656  1.0000
  H   H1512     1.0  0.02360  0.47070  0.74821  1.0000
  H   H1513     1.0  0.73908  0.64884  0.72270  1.0000
  C   C887      1.0  0.99279  0.63441  0.82359  1.0000
  S   S260      1.0  0.90821  0.65267  0.77095  1.0000
  S   S261      1.0  0.72914  0.74915  0.83631  1.0000
  H   H1514     1.0  0.96901  0.60810  0.91210  1.0000
  H   H1515     1.0  0.88645  0.93059  0.92595  1.0000
  C   C888      1.0  0.91802  0.48375  0.72845  1.0000
  H   H1516     1.0  0.95587  0.73512  0.82735  1.0000
  Fe  Fe134     1.0  0.69318  0.72430  0.91863  1.0000
  H   H1517     1.0  0.71418  0.55889  0.92404  1.0000
  S   S262      1.0  0.68682  0.76844  0.94054  1.0000
  S   S263      1.0  0.90627  0.87127  0.92385  1.0000
  C   C889      1.0  0.66284  0.45834  0.77137  1.0000
  C   C890      1.0  0.56926  0.88755  0.84685  1.0000
  H   H1518     1.0  0.58833  0.68087  0.91733  1.0000
  C   C891      1.0  0.99770  0.95295  0.79487  1.0000
  C   C892      1.0  0.59385  0.94655  0.93311  1.0000
  S   S264      1.0  0.59640  0.63796  0.73554  1.0000
  Fe  Fe135     1.0  0.68735  0.75976  0.79156  1.0000
  H   H1519     1.0  0.01294  0.58038  0.93607  1.0000
  H   H1520     1.0  0.78967  0.74868  0.88760  1.0000
  H   H1521     1.0  0.75397  0.87098  0.90192  1.0000
  H   H1522     1.0  0.75679  0.62113  0.77718  1.0000
  C   C893      1.0  0.63587  0.67271  0.77120  1.0000
  H   H1523     1.0  0.66324  0.54824  0.90494  1.0000
  H   H1524     1.0  0.58074  0.73956  0.87554  1.0000
  H   H1525     1.0  0.78070  0.93540  0.89228  1.0000
  H   H1526     1.0  0.89157  0.79657  0.73177  1.0000
  H   H1527     1.0  0.64300  0.49636  0.88902  1.0000
  H   H1528     1.0  0.62610  0.59175  0.88184  1.0000
  H   H1529     1.0  0.74375  0.67312  0.90067  1.0000
  C   C894      1.0  0.91105  0.67356  0.81769  1.0000
  H   H1530     1.0  0.81561  0.78005  0.88697  1.0000
  Fe  Fe136     1.0  0.87434  0.60828  0.81794  1.0000
  Fe  Fe137     1.0  0.00388  0.81608  0.89728  1.0000
  S   S265      1.0  0.92543  0.81043  0.84055  1.0000
  C   C895      1.0  0.88243  0.89809  0.82265  1.0000
  H   H1531     1.0  0.85877  0.81566  0.78711  1.0000
  H   H1532     1.0  0.95454  0.59508  0.77528  1.0000
  H   H1533     1.0  0.88051  0.66957  0.95541  1.0000
  C   C896      1.0  0.76578  0.85652  0.76845  1.0000
  H   H1534     1.0  0.63719  0.52646  0.78576  1.0000
  H   H1535     1.0  0.00001  0.54443  0.82349  1.0000
  C   C897      1.0  0.86772  0.92224  0.78467  1.0000
  H   H1536     1.0  0.73480  0.65199  0.79276  1.0000
  H   H1537     1.0  0.66984  0.69870  0.79712  1.0000
  C   C898      1.0  0.93784  0.71510  0.84016  1.0000
  H   H1538     1.0  0.77946  0.63021  0.90214  1.0000
  S   S266      1.0  0.68044  0.80620  0.80467  1.0000
  C   C899      1.0  0.58881  0.82577  0.89243  1.0000
  Fe  Fe138     1.0  0.71991  0.79372  0.85487  1.0000
  S   S267      1.0  0.76059  0.82983  0.84110  1.0000
  C   C900      1.0  0.68573  0.61354  0.88564  1.0000
  H   H1539     1.0  0.95577  0.47885  0.84100  1.0000
  C   C901      1.0  0.68626  0.86465  0.91418  1.0000
  Fe  Fe139     1.0  0.94762  0.77122  0.90227  1.0000
  S   S268      1.0  0.92551  0.72037  0.94764  1.0000
  C   C902      1.0  0.88076  0.92794  0.88708  1.0000
  H   H1540     1.0  0.68495  0.88580  0.87460  1.0000
  C   C903      1.0  0.89133  0.66316  0.87294  1.0000
  Fe  Fe140     1.0  0.64812  0.77685  0.88871  1.0000
  S   S269      1.0  0.89979  0.49367  0.90618  1.0000
  C   C904      1.0  0.57891  0.69142  0.87633  1.0000
  H   H1541     1.0  0.96637  0.52206  0.91733  1.0000
  C   C905      1.0  0.02784  0.53833  0.92037  1.0000
  S   S270      1.0  0.59936  0.78664  0.92186  1.0000
  H   H1542     1.0  0.85688  0.78901  0.92273  1.0000
  C   C906      1.0  0.67323  0.59713  0.95212  1.0000
  C   C907      1.0  0.01865  0.69204  0.92014  1.0000
  H   H1543     1.0  0.56643  0.71454  0.76891  1.0000
  C   C908      1.0  0.94982  0.94495  0.72103  1.0000
  H   H1544     1.0  0.58673  0.78628  0.74090  1.0000
  H   H1545     1.0  0.65646  0.57544  0.96392  1.0000
  H   H1546     1.0  0.81691  0.68844  0.96504  1.0000
  H   H1547     1.0  0.02719  0.62789  0.96412  1.0000
  C   C909      1.0  0.86061  0.77130  0.96466  1.0000
  N   N65       1.0  0.81112  0.73647  0.96459  1.0000
  C   C910      1.0  0.05284  0.63482  0.94514  1.0000
  H   H1548     1.0  0.81194  0.45495  0.90920  1.0000
  C   C911      1.0  0.61878  0.92730  0.96455  1.0000
  C   C912      1.0  0.69262  0.87465  0.96492  1.0000
  C   C913      1.0  0.59540  0.95259  0.16402  1.0000
  C   C914      1.0  0.91542  0.60399  0.09490  1.0000
  H   H1549     1.0  0.58501  0.65308  0.10277  1.0000
  H   H1550     1.0  0.56628  0.53515  0.05454  1.0000
  S   S271      1.0  0.58443  0.60038  0.97990  1.0000
  C   C915      1.0  0.99278  0.50722  0.09212  1.0000
  H   H1551     1.0  0.79182  0.84676  0.14189  1.0000
  H   H1552     1.0  0.75792  0.65183  0.21183  1.0000
  C   C916      1.0  0.69157  0.47467  0.16372  1.0000
  C   C917      1.0  0.59405  0.70173  0.03991  1.0000
  C   C918      1.0  0.58064  0.54629  0.07555  1.0000
  H   H1553     1.0  0.99931  0.78734  0.04208  1.0000
  C   C919      1.0  0.72244  0.65060  0.99207  1.0000
  C   C920      1.0  0.59467  0.57786  0.04612  1.0000
  H   H1554     1.0  0.59858  0.83794  0.04895  1.0000
  C   C921      1.0  0.97300  0.52424  0.11888  1.0000
  H   H1555     1.0  0.00755  0.66433  0.01659  1.0000
  H   H1556     1.0  0.57232  0.50545  0.15640  1.0000
  Fe  Fe141     1.0  0.55918  0.85100  0.17025  1.0000
  H   H1557     1.0  0.70614  0.62285  0.08377  1.0000
  H   H1558     1.0  0.79416  0.90320  0.09374  1.0000
  H   H1559     1.0  0.61529  0.69599  0.01468  1.0000
  H   H1560     1.0  0.05142  0.82537  0.21153  1.0000
  H   H1561     1.0  0.79950  0.77839  0.98492  1.0000
  H   H1562     1.0  0.94343  0.52002  0.00929  1.0000
  H   H1563     1.0  0.72706  0.82220  0.98517  1.0000
  H   H1564     1.0  0.67435  0.49203  0.14762  1.0000
  H   H1565     1.0  0.03991  0.50597  0.04758  1.0000
  H   H1566     1.0  0.79735  0.86910  0.03491  1.0000
  H   H1567     1.0  0.68002  0.53268  0.17685  1.0000
  H   H1568     1.0  0.78622  0.50878  0.14650  1.0000
  H   H1569     1.0  0.63668  0.70840  0.21524  1.0000
  H   H1570     1.0  0.88766  0.66051  0.05773  1.0000
  C   C922      1.0  0.85942  0.66125  0.13625  1.0000
  H   H1571     1.0  0.88061  0.88684  0.02653  1.0000
  H   H1572     1.0  0.91169  0.55859  0.20612  1.0000
  H   H1573     1.0  0.74439  0.83468  0.03632  1.0000
  C   C923      1.0  0.01667  0.83506  0.08006  1.0000
  H   H1574     1.0  0.78570  0.65631  0.05535  1.0000
  S   S272      1.0  0.00669  0.66330  0.16090  1.0000
  C   C924      1.0  0.82346  0.86841  0.03225  1.0000
  H   H1575     1.0  0.71343  0.93401  0.05016  1.0000
  H   H1576     1.0  0.68836  0.85281  0.00525  1.0000
  H   H1577     1.0  0.83603  0.65446  0.12858  1.0000
  C   C925      1.0  0.99650  0.67986  0.98085  1.0000
  H   H1578     1.0  0.57640  0.95233  0.13885  1.0000
  H   H1579     1.0  0.69300  0.59086  0.97642  1.0000
  S   S273      1.0  0.75542  0.78460  0.16393  1.0000
  H   H1580     1.0  0.59749  0.72699  0.03694  1.0000
  H   H1581     1.0  0.71304  0.87512  0.15476  1.0000
  H   H1582     1.0  0.56150  0.68116  0.12128  1.0000
  S   S274      1.0  0.74305  0.93340  0.15204  1.0000
  H   H1583     1.0  0.65933  0.61398  0.96749  1.0000
  H   H1584     1.0  0.85597  0.61844  0.05475  1.0000
  H   H1585     1.0  0.91023  0.46819  0.08062  1.0000
  C   C926      1.0  0.96047  0.74413  0.21534  1.0000
  Fe  Fe142     1.0  0.71428  0.75464  0.15751  1.0000
  H   H1586     1.0  0.87473  0.55561  0.10092  1.0000
  C   C927      1.0  0.71518  0.47928  0.01206  1.0000
  H   H1587     1.0  0.97047  0.56590  0.14349  1.0000
  H   H1588     1.0  0.75000  0.53904  0.18972  1.0000
  C   C928      1.0  0.82468  0.85133  0.19551  1.0000
  H   H1589     1.0  0.69010  0.67147  0.12506  1.0000
  H   H1590     1.0  0.81841  0.87406  0.20063  1.0000
  C   C929      1.0  0.82962  0.93556  0.02341  1.0000
  C   C930      1.0  0.78354  0.45887  0.01907  1.0000
  H   H1591     1.0  0.80727  0.45616  0.99652  1.0000
  H   H1592     1.0  0.93559  0.61382  0.10893  1.0000
  H   H1593     1.0  0.59531  0.92708  0.19365  1.0000
  H   H1594     1.0  0.74176  0.58078  0.08533  1.0000
  H   H1595     1.0  0.04694  0.71077  0.99541  1.0000
  N   N66       1.0  0.83354  0.87573  0.08196  1.0000
  H   H1596     1.0  0.74159  0.76369  0.01734  1.0000
  C   C931      1.0  0.66939  0.81685  0.12972  1.0000
  C   C932      1.0  0.58617  0.67778  0.10396  1.0000
  H   H1597     1.0  0.71419  0.57250  0.19597  1.0000
  C   C933      1.0  0.61514  0.57615  0.13205  1.0000
  H   H1598     1.0  0.85481  0.59858  0.20866  1.0000
  C   C934      1.0  0.99627  0.74720  0.18992  1.0000
  H   H1599     1.0  0.93412  0.93069  0.16037  1.0000
  C   C935      1.0  0.59894  0.65363  0.20120  1.0000
  C   C936      1.0  0.63616  0.80730  0.06651  1.0000
  C   C937      1.0  0.62682  0.84996  0.10397  1.0000
  C   C938      1.0  0.86936  0.87765  0.07378  1.0000
  C   C939      1.0  0.74226  0.60067  0.04489  1.0000
  C   C940      1.0  0.70280  0.92049  0.02668  1.0000
  H   H1600     1.0  0.01451  0.80735  0.17200  1.0000
  H   H1601     1.0  0.69630  0.93893  0.98825  1.0000
  H   H1602     1.0  0.67348  0.88952  0.97263  1.0000
  C   C941      1.0  0.88596  0.89874  0.10036  1.0000
  C   C942      1.0  0.02456  0.51902  0.06812  1.0000
  H   H1603     1.0  0.97569  0.66504  0.97948  1.0000
  C   C943      1.0  0.72219  0.62463  0.04403  1.0000
  C   C944      1.0  0.58394  0.52956  0.13319  1.0000
  H   H1604     1.0  0.62325  0.93425  0.00129  1.0000
  H   H1605     1.0  0.92812  0.81438  0.10172  1.0000
  C   C945      1.0  0.88657  0.78275  0.11195  1.0000
  H   H1606     1.0  0.84220  0.72496  0.02769  1.0000
  H   H1607     1.0  0.94568  0.60875  0.01272  1.0000
  H   H1608     1.0  0.68068  0.90597  0.05544  1.0000
  H   H1609     1.0  0.69158  0.47942  0.03824  1.0000
  S   S275      1.0  0.74209  0.71335  0.15909  1.0000
  C   C946      1.0  0.61212  0.59280  0.07407  1.0000
  C   C947      1.0  0.60070  0.54470  0.16161  1.0000
  C   C948      1.0  0.98873  0.77008  0.08660  1.0000
  C   C949      1.0  0.03656  0.54813  0.06931  1.0000
  C   C950      1.0  0.04211  0.77014  0.10976  1.0000
  C   C951      1.0  0.72698  0.89870  0.01086  1.0000
  H   H1610     1.0  0.82584  0.82543  0.13882  1.0000
  C   C952      1.0  0.66143  0.79950  0.09626  1.0000
  C   C953      1.0  0.79856  0.70178  0.98128  1.0000
  H   H1611     1.0  0.87601  0.89381  0.14680  1.0000
  H   H1612     1.0  0.92936  0.55916  0.98266  1.0000
  N   N67       1.0  0.56136  0.94381  0.96986  1.0000
  H   H1613     1.0  0.79295  0.61358  0.18997  1.0000
  H   H1614     1.0  0.62262  0.73240  0.11054  1.0000
  H   H1615     1.0  0.86343  0.68792  0.11847  1.0000
  H   H1616     1.0  0.04255  0.83590  0.06473  1.0000
  C   C954      1.0  0.60659  0.71371  0.14820  1.0000
  H   H1617     1.0  0.74360  0.72956  0.99647  1.0000
  H   H1618     1.0  0.82861  0.83598  0.98438  1.0000
  C   C955      1.0  0.84911  0.76902  0.20326  1.0000
  C   C956      1.0  0.81813  0.84893  0.13819  1.0000
  N   N68       1.0  0.00768  0.77319  0.13054  1.0000
  C   C957      1.0  0.64146  0.67802  0.11454  1.0000
  H   H1619     1.0  0.60370  0.63037  0.19602  1.0000
  H   H1620     1.0  0.96933  0.55468  0.99507  1.0000
  H   H1621     1.0  0.83495  0.88688  0.98927  1.0000
  H   H1622     1.0  0.91732  0.57783  0.10989  1.0000
  S   S276      1.0  0.03314  0.60109  0.09768  1.0000
  S   S277      1.0  0.78537  0.57002  0.99690  1.0000
  C   C958      1.0  0.85759  0.76714  0.14797  1.0000
  H   H1623     1.0  0.90920  0.65699  0.11419  1.0000
  C   C959      1.0  0.65215  0.84220  0.13349  1.0000
  H   H1624     1.0  0.62809  0.58780  0.15422  1.0000
  C   C960      1.0  0.01717  0.56488  0.09685  1.0000
  H   H1625     1.0  0.85530  0.93861  0.00467  1.0000
  H   H1626     1.0  0.80308  0.68721  0.07463  1.0000
  H   H1627     1.0  0.57633  0.93872  0.05107  1.0000
  C   C961      1.0  0.85632  0.60205  0.10037  1.0000
  H   H1628     1.0  0.87163  0.54520  0.20325  1.0000
  H   H1629     1.0  0.63006  0.79393  0.04030  1.0000
  H   H1630     1.0  0.83370  0.60517  0.12582  1.0000
  C   C962      1.0  0.61393  0.71711  0.20456  1.0000
  N   N69       1.0  0.60845  0.68110  0.14309  1.0000
  H   H1631     1.0  0.58252  0.72172  0.14503  1.0000
  H   H1632     1.0  0.83504  0.55188  0.14135  1.0000
  S   S278      1.0  0.82802  0.95262  0.18094  1.0000
  C   C963      1.0  0.88670  0.64800  0.10543  1.0000
  H   H1633     1.0  0.88567  0.92459  0.07513  1.0000
  H   H1634     1.0  0.78928  0.74186  0.04523  1.0000
  C   C964      1.0  0.98541  0.55292  0.12212  1.0000
  C   C965      1.0  0.91757  0.93843  0.19103  1.0000
  C   C966      1.0  0.84352  0.73748  0.97999  1.0000
  H   H1635     1.0  0.01263  0.85710  0.08994  1.0000
  S   S279      1.0  0.68410  0.76916  0.08938  1.0000
  C   C967      1.0  0.75556  0.75365  0.98734  1.0000
  C   C968      1.0  0.98601  0.73693  0.08121  1.0000
  H   H1636     1.0  0.97229  0.71840  0.12176  1.0000
  H   H1637     1.0  0.81570  0.93357  0.99081  1.0000
  H   H1638     1.0  0.00962  0.72948  0.06889  1.0000
  H   H1639     1.0  0.87705  0.85328  0.09177  1.0000
  C   C969      1.0  0.78715  0.68242  0.04737  1.0000
  H   H1640     1.0  0.04535  0.74508  0.11274  1.0000
  H   H1641     1.0  0.65788  0.85528  0.16032  1.0000
  H   H1642     1.0  0.90428  0.60562  0.01035  1.0000
  C   C970      1.0  0.74103  0.89401  0.20186  1.0000
  H   H1643     1.0  0.98809  0.70035  0.99251  1.0000
  H   H1644     1.0  0.73206  0.49665  0.01809  1.0000
  S   S280      1.0  0.69565  0.67894  0.99398  1.0000
  H   H1645     1.0  0.85642  0.83151  0.03181  1.0000
  H   H1646     1.0  0.72292  0.87591  0.04976  1.0000
  H   H1647     1.0  0.75133  0.90861  0.00994  1.0000
  H   H1648     1.0  0.78205  0.48521  0.00093  1.0000
  H   H1649     1.0  0.64139  0.65634  0.10231  1.0000
  C   C971      1.0  0.76258  0.60222  0.99375  1.0000
  C   C972      1.0  0.92236  0.61611  0.02751  1.0000
  H   H1650     1.0  0.81512  0.81562  0.06126  1.0000
  C   C973      1.0  0.89809  0.80258  0.18634  1.0000
  C   C974      1.0  0.78994  0.75292  0.99736  1.0000
  H   H1651     1.0  0.89312  0.78165  0.06885  1.0000
  H   H1652     1.0  0.05015  0.78521  0.06259  1.0000
  H   H1653     1.0  0.84333  0.56719  0.06288  1.0000
  H   H1654     1.0  0.76287  0.68751  0.06278  1.0000
  C   C975      1.0  0.95006  0.54536  0.97906  1.0000
  H   H1655     1.0  0.57387  0.69992  0.01802  1.0000
  C   C976      1.0  0.74721  0.83664  0.99012  1.0000
  H   H1656     1.0  0.00428  0.83633  0.04371  1.0000
  H   H1657     1.0  0.71417  0.48092  0.13150  1.0000
  H   H1658     1.0  0.82841  0.91405  0.11559  1.0000
  C   C977      1.0  0.83149  0.83591  0.02796  1.0000
  H   H1659     1.0  0.64978  0.69893  0.07293  1.0000
  C   C978      1.0  0.82062  0.90660  0.08178  1.0000
  S   S281      1.0  0.97855  0.47076  0.08961  1.0000
  C   C979      1.0  0.61859  0.83237  0.07092  1.0000
  H   H1660     1.0  0.62210  0.61760  0.05182  1.0000
  H   H1661     1.0  0.96420  0.77655  0.09583  1.0000
  H   H1662     1.0  0.76887  0.82525  0.98030  1.0000
  H   H1663     1.0  0.92411  0.64260  0.00766  1.0000
  S   S282      1.0  0.83113  0.74717  0.12232  1.0000
  S   S283      1.0  0.60372  0.87971  0.11269  1.0000
  Fe  Fe143     1.0  0.78182  0.74144  0.17354  1.0000
  C   C980      1.0  0.72480  0.86947  0.19183  1.0000
  H   H1664     1.0  0.94843  0.51497  0.13781  1.0000
  N   N70       1.0  0.88430  0.61188  0.12228  1.0000
  C   C981      1.0  0.66797  0.67591  0.15010  1.0000
  C   C982      1.0  0.00358  0.80537  0.13586  1.0000
  H   H1665     1.0  0.67347  0.69902  0.15493  1.0000
  H   H1666     1.0  0.68895  0.81070  0.15228  1.0000
  H   H1667     1.0  0.84961  0.84756  0.20007  1.0000
  C   C983      1.0  0.90653  0.80098  0.13073  1.0000
  H   H1668     1.0  0.73401  0.52613  0.13971  1.0000
  H   H1669     1.0  0.66307  0.65584  0.19313  1.0000
  H   H1670     1.0  0.97261  0.73826  0.04602  1.0000
  H   H1671     1.0  0.91135  0.89415  0.09782  1.0000
  C   C984      1.0  0.85253  0.56722  0.10209  1.0000
  H   H1672     1.0  0.56232  0.89401  0.02608  1.0000
  Fe  Fe144     1.0  0.01272  0.61198  0.17608  1.0000
  H   H1673     1.0  0.61551  0.74300  0.19841  1.0000
  H   H1674     1.0  0.97802  0.80802  0.14812  1.0000
  H   H1675     1.0  0.89981  0.95244  0.16802  1.0000
  C   C985      1.0  0.76698  0.49585  0.18471  1.0000
  H   H1676     1.0  0.61232  0.90101  0.97971  1.0000
  C   C986      1.0  0.73969  0.51733  0.18436  1.0000
  H   H1677     1.0  0.85310  0.78079  0.99974  1.0000
  H   H1678     1.0  0.75953  0.47278  0.18136  1.0000
  H   H1679     1.0  0.79799  0.47021  0.08975  1.0000
  H   H1680     1.0  0.62755  0.94573  0.09328  1.0000
  H   H1681     1.0  0.94516  0.73901  0.18728  1.0000
  S   S284      1.0  0.92239  0.82631  0.20897  1.0000
  H   H1682     1.0  0.00222  0.72329  0.18952  1.0000
  H   H1683     1.0  0.85874  0.65362  0.18400  1.0000
  C   C987      1.0  0.87955  0.59703  0.18823  1.0000
  H   H1684     1.0  0.89527  0.61069  0.20483  1.0000
  C   C988      1.0  0.88610  0.56172  0.21564  1.0000
  H   H1685     1.0  0.71211  0.48754  0.96580  1.0000
  H   H1686     1.0  0.04906  0.70150  0.39269  1.0000
  H   H1687     1.0  0.75361  0.67324  0.39989  1.0000
  S   S285      1.0  0.80015  0.54804  0.25588  1.0000
  H   H1688     1.0  0.05330  0.51940  0.45143  1.0000
  C   C989      1.0  0.97262  0.49934  0.31111  1.0000
  H   H1689     1.0  0.77747  0.49116  0.22437  1.0000
  H   H1690     1.0  0.90472  0.91602  0.22530  1.0000
  H   H1691     1.0  0.60380  0.82860  0.43042  1.0000
  H   H1692     1.0  0.00753  0.80107  0.29795  1.0000
  H   H1693     1.0  0.79519  0.89516  0.42473  1.0000
  C   C990      1.0  0.00070  0.89450  0.32237  1.0000
  S   S286      1.0  0.96647  0.59349  0.23917  1.0000
  H   H1694     1.0  0.68921  0.82554  0.37599  1.0000
  Fe  Fe145     1.0  0.99481  0.59240  0.30797  1.0000
  C   C991      1.0  0.73935  0.83003  0.27695  1.0000
  S   S287      1.0  0.56220  0.81075  0.25345  1.0000
  C   C992      1.0  0.55370  0.87196  0.37018  1.0000
  H   H1695     1.0  0.75948  0.62109  0.38882  1.0000
  C   C993      1.0  0.86959  0.78619  0.22279  1.0000
  S   S288      1.0  0.91766  0.66714  0.22128  1.0000
  C   C994      1.0  0.86375  0.88799  0.36513  1.0000
  H   H1696     1.0  0.95160  0.93050  0.44361  1.0000
  H   H1697     1.0  0.55563  0.67335  0.23040  1.0000
  N   N71       1.0  0.96622  0.46386  0.32435  1.0000
  H   H1698     1.0  0.59462  0.70482  0.24283  1.0000
  C   C995      1.0  0.82473  0.61716  0.39312  1.0000
  Fe  Fe146     1.0  0.58948  0.47225  0.25777  1.0000
  H   H1699     1.0  0.78366  0.66763  0.44335  1.0000
  S   S289      1.0  0.63633  0.93915  0.37024  1.0000
  Fe  Fe147     1.0  0.82503  0.48433  0.45259  1.0000
  H   H1700     1.0  0.73454  0.89959  0.37155  1.0000
  H   H1701     1.0  0.96355  0.86456  0.43368  1.0000
  C   C996      1.0  0.77350  0.57427  0.27022  1.0000
  H   H1702     1.0  0.02917  0.46123  0.28061  1.0000
  C   C997      1.0  0.01575  0.91921  0.45017  1.0000
  C   C998      1.0  0.88282  0.68478  0.38925  1.0000
  C   C999      1.0  0.92455  0.55428  0.39760  1.0000
  S   S290      1.0  0.04155  0.60649  0.24535  1.0000
  H   H1703     1.0  0.92164  0.48630  0.40596  1.0000
  S   S291      1.0  0.94015  0.76047  0.34854  1.0000
  S   S292      1.0  0.87463  0.69518  0.45121  1.0000
  H   H1704     1.0  0.73371  0.47335  0.29837  1.0000
  C   C1000     1.0  0.87731  0.70590  0.33564  1.0000
  C   C1001     1.0  0.85666  0.90403  0.44916  1.0000
  C   C1002     1.0  0.71865  0.49359  0.28982  1.0000
  H   H1705     1.0  0.83422  0.64184  0.38674  1.0000
  C   C1003     1.0  0.58351  0.87376  0.33577  1.0000
  C   C1004     1.0  0.01190  0.91334  0.35799  1.0000
  H   H1706     1.0  0.85560  0.92365  0.28487  1.0000
  S   S293      1.0  0.87211  0.78970  0.37184  1.0000
  C   C1005     1.0  0.56379  0.65005  0.23123  1.0000
  C   C1006     1.0  0.76532  0.94947  0.43118  1.0000
  C   C1007     1.0  0.64902  0.80825  0.34622  1.0000
  H   H1707     1.0  0.00609  0.54184  0.26588  1.0000
  C   C1008     1.0  0.88639  0.69929  0.28466  1.0000
  H   H1708     1.0  0.62663  0.95255  0.24252  1.0000
  C   C1009     1.0  0.68552  0.52567  0.22154  1.0000
  H   H1709     1.0  0.95461  0.94230  0.23748  1.0000
  C   C1010     1.0  0.02405  0.86698  0.43818  1.0000
  H   H1710     1.0  0.69329  0.92412  0.40891  1.0000
  H   H1711     1.0  0.95413  0.51261  0.28855  1.0000
  H   H1712     1.0  0.01034  0.51356  0.23095  1.0000
  C   C1011     1.0  0.69053  0.48321  0.34227  1.0000
  S   S294      1.0  0.60273  0.52458  0.23469  1.0000
  H   H1713     1.0  0.67322  0.46287  0.25482  1.0000
  Fe  Fe148     1.0  0.89587  0.74648  0.41747  1.0000
  H   H1714     1.0  0.69870  0.55338  0.27384  1.0000
  C   C1012     1.0  0.77806  0.88725  0.40271  1.0000
  C   C1013     1.0  0.77578  0.66173  0.40781  1.0000
  C   C1014     1.0  0.90208  0.67224  0.28674  1.0000
  H   H1715     1.0  0.98004  0.62679  0.43458  1.0000
  S   S295      1.0  0.85121  0.49552  0.36108  1.0000
  Fe  Fe149     1.0  0.91798  0.80541  0.30663  1.0000
  C   C1015     1.0  0.61733  0.75637  0.32095  1.0000
  C   C1016     1.0  0.69391  0.55742  0.22966  1.0000
  H   H1716     1.0  0.61340  0.65549  0.23318  1.0000
  H   H1717     1.0  0.74779  0.61758  0.46217  1.0000
  H   H1718     1.0  0.86264  0.78768  0.26527  1.0000
  C   C1017     1.0  0.69672  0.47191  0.22510  1.0000
  H   H1719     1.0  0.56352  0.93284  0.27220  1.0000
  H   H1720     1.0  0.57014  0.92818  0.42738  1.0000
  H   H1721     1.0  0.61848  0.73463  0.30924  1.0000
  H   H1722     1.0  0.76845  0.90569  0.25817  1.0000
  S   S296      1.0  0.70834  0.64442  0.31131  1.0000
  H   H1723     1.0  0.65286  0.84209  0.39296  1.0000
  H   H1724     1.0  0.76612  0.86328  0.43205  1.0000
  H   H1725     1.0  0.71142  0.86193  0.46167  1.0000
  H   H1726     1.0  0.87952  0.55425  0.26394  1.0000
  C   C1018     1.0  0.05112  0.93310  0.43064  1.0000
  H   H1727     1.0  0.91840  0.62927  0.34257  1.0000
  H   H1728     1.0  0.73334  0.51381  0.29210  1.0000
  C   C1019     1.0  0.00538  0.51580  0.27439  1.0000
  C   C1020     1.0  0.03154  0.80483  0.30403  1.0000
  H   H1729     1.0  0.59612  0.55794  0.38509  1.0000
  H   H1730     1.0  0.67318  0.57169  0.22482  1.0000
  S   S297      1.0  0.98820  0.64264  0.30292  1.0000
  C   C1021     1.0  0.85628  0.91836  0.33041  1.0000
  H   H1731     1.0  0.76578  0.93098  0.34285  1.0000
  H   H1732     1.0  0.62013  0.72842  0.40889  1.0000
  C   C1022     1.0  0.94747  0.91020  0.42927  1.0000
  H   H1733     1.0  0.58639  0.79107  0.38372  1.0000
  C   C1023     1.0  0.73005  0.58575  0.33339  1.0000
  H   H1734     1.0  0.67834  0.76757  0.42533  1.0000
  H   H1735     1.0  0.94589  0.59832  0.45633  1.0000
  H   H1736     1.0  0.90110  0.64026  0.43340  1.0000
  H   H1737     1.0  0.02466  0.50735  0.29897  1.0000
  Fe  Fe150     1.0  0.95826  0.78616  0.40112  1.0000
  H   H1738     1.0  0.63118  0.82017  0.32009  1.0000
  S   S298      1.0  0.98871  0.55251  0.39517  1.0000
  C   C1024     1.0  0.59456  0.80337  0.45617  1.0000
  C   C1025     1.0  0.56673  0.68023  0.41506  1.0000
  C   C1026     1.0  0.71138  0.94176  0.41130  1.0000
  H   H1739     1.0  0.80243  0.76776  0.37811  1.0000
  H   H1740     1.0  0.00963  0.90839  0.27502  1.0000
  H   H1741     1.0  0.57345  0.67413  0.37666  1.0000
  C   C1027     1.0  0.78537  0.57128  0.45220  1.0000
  C   C1028     1.0  0.03771  0.79800  0.36047  1.0000
  H   H1742     1.0  0.86895  0.87001  0.34607  1.0000
  H   H1743     1.0  0.58433  0.54699  0.32884  1.0000
  H   H1744     1.0  0.82686  0.75714  0.23130  1.0000
  H   H1745     1.0  0.79377  0.67241  0.36689  1.0000
  C   C1029     1.0  0.89249  0.54360  0.42302  1.0000
  S   S299      1.0  0.00705  0.78347  0.42236  1.0000
  C   C1030     1.0  0.82040  0.61762  0.33260  1.0000
  H   H1746     1.0  0.01010  0.87077  0.33237  1.0000
  H   H1747     1.0  0.77849  0.56924  0.41248  1.0000
  H   H1748     1.0  0.59183  0.75948  0.33109  1.0000
  S   S300      1.0  0.79154  0.45566  0.34299  1.0000
  S   S301      1.0  0.76769  0.72033  0.27104  1.0000
  C   C1031     1.0  0.89690  0.65667  0.39205  1.0000
  H   H1749     1.0  0.84294  0.62826  0.30075  1.0000
  H   H1750     1.0  0.71157  0.81858  0.22160  1.0000
  H   H1751     1.0  0.88276  0.71598  0.24303  1.0000
  C   C1032     1.0  0.60419  0.91390  0.36961  1.0000
  H   H1752     1.0  0.80172  0.63274  0.31566  1.0000
  N   N72       1.0  0.71019  0.50220  0.23013  1.0000
  C   C1033     1.0  0.97087  0.88464  0.44699  1.0000
  C   C1034     1.0  0.75473  0.85461  0.28842  1.0000
  C   C1035     1.0  0.79457  0.74176  0.40050  1.0000
  C   C1036     1.0  0.86348  0.88070  0.42488  1.0000
  C   C1037     1.0  0.77556  0.60572  0.23003  1.0000
  C   C1038     1.0  0.60893  0.89417  0.33662  1.0000
  C   C1039     1.0  0.85033  0.93451  0.41417  1.0000
  H   H1753     1.0  0.65780  0.74488  0.36285  1.0000
  C   C1040     1.0  0.90683  0.65057  0.34061  1.0000
  Fe  Fe151     1.0  0.72561  0.69558  0.25611  1.0000
  H   H1754     1.0  0.76664  0.84864  0.32532  1.0000
  H   H1755     1.0  0.94821  0.47219  0.24453  1.0000
  H   H1756     1.0  0.00875  0.75109  0.22303  1.0000
  H   H1757     1.0  0.78200  0.73458  0.37082  1.0000
  C   C1041     1.0  0.72414  0.83754  0.22918  1.0000
  H   H1758     1.0  0.67594  0.50311  0.34248  1.0000
  Fe  Fe152     1.0  0.80376  0.50580  0.33632  1.0000
  H   H1759     1.0  0.79181  0.88439  0.36323  1.0000
  H   H1760     1.0  0.01283  0.84756  0.42737  1.0000
  H   H1761     1.0  0.98877  0.46777  0.23662  1.0000
  H   H1762     1.0  0.97450  0.89159  0.32892  1.0000
  H   H1763     1.0  0.93066  0.57247  0.35432  1.0000
  C   C1042     1.0  0.57897  0.54173  0.37650  1.0000
  H   H1764     1.0  0.74807  0.53996  0.35230  1.0000
  H   H1765     1.0  0.94764  0.91948  0.38163  1.0000
  S   S302      1.0  0.69485  0.73521  0.25402  1.0000
  H   H1766     1.0  0.58710  0.85880  0.30983  1.0000
  H   H1767     1.0  0.00216  0.94052  0.43869  1.0000
  C   C1043     1.0  0.76855  0.62527  0.42507  1.0000
  C   C1044     1.0  0.73278  0.61746  0.29402  1.0000
  C   C1045     1.0  0.66717  0.83409  0.36052  1.0000
  S   S303      1.0  0.73983  0.78971  0.32057  1.0000
  H   H1768     1.0  0.81556  0.59304  0.33303  1.0000
  H   H1769     1.0  0.66278  0.51423  0.25195  1.0000
  C   C1046     1.0  0.94848  0.54106  0.42803  1.0000
  C   C1047     1.0  0.75060  0.56431  0.32175  1.0000
  H   H1770     1.0  0.04524  0.72596  0.45339  1.0000
  H   H1771     1.0  0.71229  0.57793  0.37332  1.0000
  N   N73       1.0  0.79573  0.60573  0.44136  1.0000
  H   H1772     1.0  0.97109  0.50413  0.35223  1.0000
  C   C1048     1.0  0.65333  0.76943  0.44423  1.0000
  C   C1049     1.0  0.63318  0.75082  0.37453  1.0000
  H   H1773     1.0  0.95508  0.72372  0.25811  1.0000
  C   C1050     1.0  0.59983  0.78178  0.41991  1.0000
  Fe  Fe153     1.0  0.89533  0.81332  0.42278  1.0000
  H   H1774     1.0  0.67515  0.46239  0.34394  1.0000
  H   H1775     1.0  0.66707  0.80213  0.31505  1.0000
  C   C1051     1.0  0.75556  0.62743  0.24231  1.0000
  H   H1776     1.0  0.03774  0.92025  0.34125  1.0000
  H   H1777     1.0  0.86655  0.72770  0.33318  1.0000
  H   H1778     1.0  0.67470  0.85557  0.31972  1.0000
  H   H1779     1.0  0.91491  0.46326  0.33414  1.0000
  H   H1780     1.0  0.84433  0.60203  0.40521  1.0000
  N   N74       1.0  0.00565  0.89604  0.42330  1.0000
  C   C1052     1.0  0.57407  0.91303  0.40198  1.0000
  Fe  Fe154     1.0  0.96287  0.64464  0.23026  1.0000
  H   H1781     1.0  0.63216  0.89500  0.31102  1.0000
  H   H1782     1.0  0.87409  0.55341  0.39897  1.0000
  C   C1053     1.0  0.75370  0.91157  0.38440  1.0000
  H   H1783     1.0  0.00126  0.93659  0.34575  1.0000
  C   C1054     1.0  0.84952  0.94164  0.35510  1.0000
  C   C1055     1.0  0.75590  0.88670  0.25037  1.0000
  Fe  Fe155     1.0  0.73840  0.76166  0.26141  1.0000
  S   S304      1.0  0.77825  0.49693  0.42760  1.0000
  H   H1784     1.0  0.70002  0.47568  0.38350  1.0000
  H   H1785     1.0  0.81537  0.72769  0.40564  1.0000
  H   H1786     1.0  0.62947  0.77697  0.28179  1.0000
  Fe  Fe156     1.0  0.03247  0.65700  0.23439  1.0000
  N   N75       1.0  0.63372  0.77811  0.39690  1.0000
  S   S305      1.0  0.93950  0.83239  0.35429  1.0000
  C   C1056     1.0  0.96613  0.45834  0.26798  1.0000
  N   N76       1.0  0.74018  0.92561  0.42914  1.0000
  C   C1057     1.0  0.92563  0.46069  0.41676  1.0000
  H   H1787     1.0  0.58380  0.51683  0.40045  1.0000
  H   H1788     1.0  0.78471  0.93699  0.45164  1.0000
  H   H1789     1.0  0.80536  0.55605  0.45931  1.0000
  H   H1790     1.0  0.56082  0.63387  0.27782  1.0000
  H   H1791     1.0  0.69950  0.95091  0.44471  1.0000
  H   H1792     1.0  0.58722  0.75799  0.44846  1.0000
  H   H1793     1.0  0.65476  0.78847  0.46286  1.0000
  H   H1794     1.0  0.92305  0.89885  0.45133  1.0000
  H   H1795     1.0  0.95354  0.76580  0.22399  1.0000
  H   H1796     1.0  0.80985  0.83147  0.23286  1.0000
  H   H1797     1.0  0.04832  0.87235  0.41102  1.0000
  H   H1798     1.0  0.80957  0.79235  0.44335  1.0000
  H   H1799     1.0  0.74892  0.74361  0.44761  1.0000
  H   H1800     1.0  0.84490  0.95224  0.43358  1.0000
  H   H1801     1.0  0.76775  0.79201  0.44800  1.0000
  C   C1058     1.0  0.77151  0.73418  0.45939  1.0000
  H   H1802     1.0  0.05286  0.63454  0.41832  1.0000
  H   H1803     1.0  0.94428  0.45464  0.44367  1.0000
  H   H1804     1.0  0.86058  0.47314  0.64698  1.0000
  C   C1059     1.0  0.03427  0.50481  0.48846  1.0000
  H   H1805     1.0  0.67162  0.93406  0.64412  1.0000
  H   H1806     1.0  0.81080  0.56005  0.55059  1.0000
  S   S306      1.0  0.64209  0.65378  0.57832  1.0000
  C   C1060     1.0  0.02508  0.89556  0.61694  1.0000
  H   H1807     1.0  0.02692  0.46878  0.57494  1.0000
  C   C1061     1.0  0.78672  0.90817  0.69382  1.0000
  H   H1808     1.0  0.75138  0.86098  0.63528  1.0000
  C   C1062     1.0  0.78417  0.80218  0.51683  1.0000
  H   H1809     1.0  0.78242  0.47732  0.58111  1.0000
  H   H1810     1.0  0.75976  0.80906  0.52544  1.0000
  H   H1811     1.0  0.05310  0.60780  0.49064  1.0000
  H   H1812     1.0  0.70349  0.85329  0.53876  1.0000
  C   C1063     1.0  0.63423  0.92670  0.59686  1.0000
  C   C1064     1.0  0.75184  0.46996  0.69130  1.0000
  C   C1065     1.0  0.80942  0.47005  0.67134  1.0000
  C   C1066     1.0  0.90283  0.81635  0.69032  1.0000
  H   H1813     1.0  0.57491  0.91391  0.55824  1.0000
  S   S307      1.0  0.66769  0.59091  0.55376  1.0000
  H   H1814     1.0  0.75172  0.88866  0.50540  1.0000
  N   N77       1.0  0.87813  0.83570  0.66138  1.0000
  S   S308      1.0  0.91561  0.76886  0.47364  1.0000
  H   H1815     1.0  0.75913  0.52937  0.52398  1.0000
  C   C1067     1.0  0.04624  0.85474  0.69119  1.0000
  C   C1068     1.0  0.77633  0.89867  0.65132  1.0000
  C   C1069     1.0  0.95360  0.61927  0.52145  1.0000
  C   C1070     1.0  0.02076  0.86629  0.66436  1.0000
  H   H1816     1.0  0.03887  0.82904  0.50894  1.0000
  S   S309      1.0  0.98320  0.84478  0.69167  1.0000
  C   C1071     1.0  0.99010  0.57744  0.60503  1.0000
  H   H1817     1.0  0.73403  0.55743  0.48457  1.0000
  H   H1818     1.0  0.64532  0.71656  0.48351  1.0000
  S   S310      1.0  0.60049  0.63144  0.46890  1.0000
  S   S311      1.0  0.87087  0.84259  0.47069  1.0000
  H   H1819     1.0  0.56851  0.80335  0.46982  1.0000
  C   C1072     1.0  0.56813  0.90595  0.67488  1.0000
  H   H1820     1.0  0.81189  0.83955  0.65906  1.0000
  H   H1821     1.0  0.75818  0.70794  0.57894  1.0000
  C   C1073     1.0  0.64172  0.73765  0.49648  1.0000
  H   H1822     1.0  0.83797  0.76955  0.53988  1.0000
  H   H1823     1.0  0.60425  0.79425  0.49693  1.0000
  H   H1824     1.0  0.89885  0.64450  0.64450  1.0000
  H   H1825     1.0  0.00722  0.57527  0.56822  1.0000
  H   H1826     1.0  0.00963  0.90877  0.49875  1.0000
  H   H1827     1.0  0.89281  0.54213  0.65355  1.0000
  H   H1828     1.0  0.72274  0.58202  0.62248  1.0000
  H   H1829     1.0  0.84663  0.58232  0.50049  1.0000
  H   H1830     1.0  0.90959  0.78181  0.64502  1.0000
  S   S312      1.0  0.68716  0.75939  0.70172  1.0000
  H   H1831     1.0  0.62785  0.86873  0.56567  1.0000
  C   C1074     1.0  0.81380  0.73437  0.51341  1.0000
  C   C1075     1.0  0.82473  0.82810  0.63069  1.0000
  H   H1832     1.0  0.79981  0.82517  0.49512  1.0000
  C   C1076     1.0  0.78519  0.57574  0.69218  1.0000
  C   C1077     1.0  0.79630  0.60829  0.67330  1.0000
  H   H1833     1.0  0.99396  0.60162  0.60675  1.0000
  H   H1834     1.0  0.72827  0.45792  0.69332  1.0000
  H   H1835     1.0  0.87467  0.87606  0.58342  1.0000
  H   H1836     1.0  0.86775  0.57423  0.64120  1.0000
  C   C1078     1.0  0.64951  0.94396  0.63134  1.0000
  H   H1837     1.0  0.95023  0.90004  0.70652  1.0000
  H   H1838     1.0  0.88339  0.62996  0.59507  1.0000
  H   H1839     1.0  0.66970  0.87911  0.61145  1.0000
  H   H1840     1.0  0.88202  0.86822  0.70762  1.0000
  S   S313      1.0  0.73357  0.65031  0.57226  1.0000
  C   C1079     1.0  0.89258  0.86007  0.60179  1.0000
  H   H1841     1.0  0.60380  0.76041  0.70672  1.0000
  H   H1842     1.0  0.94417  0.55145  0.64739  1.0000
  H   H1843     1.0  0.89381  0.59966  0.53824  1.0000
  Fe  Fe157     1.0  0.62339  0.61632  0.54805  1.0000
  H   H1844     1.0  0.96623  0.87436  0.49565  1.0000
  H   H1845     1.0  0.05097  0.70508  0.52719  1.0000
  S   S314      1.0  0.66297  0.59484  0.68378  1.0000
  H   H1846     1.0  0.61648  0.73648  0.51701  1.0000
  N   N78       1.0  0.78262  0.74737  0.50192  1.0000
  H   H1847     1.0  0.04355  0.86743  0.51463  1.0000
  H   H1848     1.0  0.94127  0.78741  0.67979  1.0000
  C   C1080     1.0  0.56815  0.67100  0.51641  1.0000
  C   C1081     1.0  0.94023  0.51795  0.48467  1.0000
  S   S315      1.0  0.92616  0.48658  0.65533  1.0000
  Fe  Fe158     1.0  0.64349  0.56136  0.64618  1.0000
  H   H1849     1.0  0.65913  0.88181  0.68169  1.0000
  H   H1850     1.0  0.83204  0.74263  0.47266  1.0000
  H   H1851     1.0  0.61511  0.94119  0.58002  1.0000
  H   H1852     1.0  0.58790  0.86143  0.70657  1.0000
  H   H1853     1.0  0.72801  0.45871  0.59853  1.0000
  C   C1082     1.0  0.82451  0.58410  0.52887  1.0000
  C   C1083     1.0  0.59265  0.90028  0.54207  1.0000
  H   H1854     1.0  0.93760  0.81764  0.61243  1.0000
  C   C1084     1.0  0.78646  0.78364  0.47458  1.0000
  H   H1855     1.0  0.76416  0.74346  0.59175  1.0000
  N   N79       1.0  0.93579  0.59431  0.57789  1.0000
  H   H1856     1.0  0.70957  0.73633  0.59654  1.0000
  H   H1857     1.0  0.63172  0.82571  0.65267  1.0000
  H   H1858     1.0  0.76606  0.70762  0.47982  1.0000
  H   H1859     1.0  0.72069  0.91026  0.52215  1.0000
  Fe  Fe159     1.0  0.61946  0.61987  0.66777  1.0000
  H   H1860     1.0  0.57454  0.93226  0.65392  1.0000
  C   C1085     1.0  0.59735  0.88717  0.68396  1.0000
  C   C1086     1.0  0.72389  0.74132  0.55230  1.0000
  C   C1087     1.0  0.90627  0.58041  0.56593  1.0000
  H   H1861     1.0  0.86466  0.54519  0.60748  1.0000
  H   H1862     1.0  0.84488  0.79257  0.69614  1.0000
  C   C1088     1.0  0.64280  0.83701  0.67892  1.0000
  H   H1863     1.0  0.91822  0.65890  0.56958  1.0000
  C   C1089     1.0  0.95570  0.56733  0.60219  1.0000
  N   N80       1.0  0.62188  0.89182  0.62992  1.0000
  C   C1090     1.0  0.92121  0.88262  0.59949  1.0000
  H   H1864     1.0  0.84766  0.87087  0.67632  1.0000
  H   H1865     1.0  0.68157  0.88150  0.49325  1.0000
  H   H1866     1.0  0.94914  0.62030  0.63090  1.0000
  H   H1867     1.0  0.61488  0.69770  0.63758  1.0000
  C   C1091     1.0  0.85376  0.81301  0.65412  1.0000
  H   H1868     1.0  0.63255  0.94395  0.67020  1.0000
  C   C1092     1.0  0.74311  0.58953  0.63677  1.0000
  H   H1869     1.0  0.04643  0.66241  0.48901  1.0000
  H   H1870     1.0  0.61061  0.91747  0.50579  1.0000
  C   C1093     1.0  0.78092  0.63151  0.63521  1.0000
  H   H1871     1.0  0.71300  0.72490  0.53435  1.0000
  H   H1872     1.0  0.65150  0.74531  0.62384  1.0000
  H   H1873     1.0  0.65216  0.92922  0.55720  1.0000
  C   C1094     1.0  0.80448  0.60948  0.49504  1.0000
  H   H1874     1.0  0.91590  0.59169  0.66558  1.0000
  H   H1875     1.0  0.72218  0.76662  0.52495  1.0000
  C   C1095     1.0  0.66284  0.72526  0.70982  1.0000
  C   C1096     1.0  0.75396  0.62205  0.61789  1.0000
  H   H1876     1.0  0.57531  0.65731  0.55702  1.0000
  H   H1877     1.0  0.97083  0.93310  0.64497  1.0000
  C   C1097     1.0  0.64766  0.72479  0.66448  1.0000
  S   S316      1.0  0.78704  0.92331  0.57717  1.0000
  H   H1878     1.0  0.90188  0.48925  0.55356  1.0000
  H   H1879     1.0  0.86457  0.80191  0.62285  1.0000
  H   H1880     1.0  0.81806  0.63332  0.48368  1.0000
  C   C1098     1.0  0.88434  0.52015  0.47940  1.0000
  H   H1881     1.0  0.95737  0.55159  0.57594  1.0000
  C   C1099     1.0  0.86339  0.85340  0.69916  1.0000
  H   H1882     1.0  0.75378  0.56539  0.53696  1.0000
  H   H1883     1.0  0.83126  0.59117  0.56419  1.0000
  C   C1100     1.0  0.73061  0.89987  0.48937  1.0000
  H   H1884     1.0  0.91875  0.83136  0.70379  1.0000
  H   H1885     1.0  0.00439  0.84551  0.53345  1.0000
  H   H1886     1.0  0.79186  0.78974  0.55856  1.0000
  H   H1887     1.0  0.00515  0.90470  0.59704  1.0000
  C   C1101     1.0  0.90570  0.63723  0.60617  1.0000
  H   H1888     1.0  0.81140  0.49513  0.63896  1.0000
  H   H1889     1.0  0.78300  0.60953  0.52650  1.0000
  H   H1890     1.0  0.85076  0.73046  0.56431  1.0000
  H   H1891     1.0  0.02275  0.52190  0.50673  1.0000
  H   H1892     1.0  0.81681  0.61548  0.68767  1.0000
  H   H1893     1.0  0.99661  0.56008  0.64515  1.0000
  H   H1894     1.0  0.01578  0.49438  0.47209  1.0000
  C   C1102     1.0  0.75932  0.86855  0.66794  1.0000
  H   H1895     1.0  0.65599  0.73537  0.53077  1.0000
  H   H1896     1.0  0.83133  0.84573  0.58513  1.0000
  C   C1103     1.0  0.64967  0.87392  0.64931  1.0000
  C   C1104     1.0  0.60874  0.87785  0.59005  1.0000
  C   C1105     1.0  0.62681  0.69806  0.67242  1.0000
  S   S317      1.0  0.84453  0.50553  0.51058  1.0000
  H   H1897     1.0  0.79872  0.93180  0.68200  1.0000
  C   C1106     1.0  0.96582  0.60675  0.47237  1.0000
  H   H1898     1.0  0.98857  0.91526  0.70928  1.0000
  C   C1107     1.0  0.75834  0.73447  0.55818  1.0000
  S   S318      1.0  0.59775  0.58394  0.63740  1.0000
  H   H1899     1.0  0.89999  0.84822  0.56989  1.0000
  H   H1900     1.0  0.75342  0.49460  0.65759  1.0000
  S   S319      1.0  0.86251  0.94557  0.62559  1.0000
  C   C1108     1.0  0.04719  0.47919  0.53744  1.0000
  C   C1109     1.0  0.70540  0.87277  0.49523  1.0000
  H   H1901     1.0  0.85613  0.89867  0.49519  1.0000
  H   H1902     1.0  0.92933  0.89921  0.55360  1.0000
  H   H1903     1.0  0.95849  0.50770  0.50875  1.0000
  H   H1904     1.0  0.92710  0.94884  0.70487  1.0000
  H   H1905     1.0  0.75013  0.54137  0.68802  1.0000
  C   C1110     1.0  0.92369  0.80014  0.65404  1.0000
  C   C1111     1.0  0.75889  0.56642  0.67330  1.0000
  H   H1906     1.0  0.81374  0.73654  0.60109  1.0000
  H   H1907     1.0  0.93822  0.63827  0.50261  1.0000
  C   C1112     1.0  0.90817  0.50763  0.51032  1.0000
  H   H1908     1.0  0.78949  0.65667  0.62024  1.0000
  H   H1909     1.0  0.80778  0.80889  0.63032  1.0000
  C   C1113     1.0  0.96633  0.92248  0.69346  1.0000
  C   C1114     1.0  0.75640  0.55523  0.50213  1.0000
  C   C1115     1.0  0.88168  0.55945  0.62044  1.0000
  Fe  Fe160     1.0  0.68414  0.62604  0.59120  1.0000
  C   C1116     1.0  0.02757  0.85169  0.50275  1.0000
  H   H1910     1.0  0.59145  0.85650  0.61607  1.0000
  H   H1911     1.0  0.81109  0.70759  0.52860  1.0000
  H   H1912     1.0  0.94172  0.86961  0.61280  1.0000
  H   H1913     1.0  0.57999  0.88546  0.52320  1.0000
  C   C1117     1.0  0.82937  0.74359  0.55753  1.0000
  H   H1914     1.0  0.91261  0.56503  0.53986  1.0000
  H   H1915     1.0  0.97412  0.63219  0.52888  1.0000
  H   H1916     1.0  0.66564  0.82652  0.68470  1.0000
  S   S320      1.0  0.64786  0.50821  0.68244  1.0000
  H   H1917     1.0  0.98150  0.58738  0.48569  1.0000
  H   H1918     1.0  0.91500  0.89778  0.62569  1.0000
  C   C1118     1.0  0.92742  0.60988  0.62236  1.0000
  C   C1119     1.0  0.57665  0.66275  0.46706  1.0000
  H   H1919     1.0  0.55837  0.47300  0.67296  1.0000
  C   C1120     1.0  0.83989  0.45529  0.65614  1.0000
  H   H1920     1.0  0.81080  0.47232  0.71390  1.0000
