data_image0
_chemical_formula_structural       HCSC3H4C2H5Fe3HNSCHFeHCSH2CH3SH2CS2NHFeC2H5C2H2CSC2H2CFeH2C3H2SHCHSCHSCH7CH3CHFeCHCH5CH4Fe2H7C2S2H2CSC2SH2C2H7CH7C3H2CH3CH6NC3SHCHSHCH3FeC3NHC3H2S2HC3HC2FeH2SH2CS2CH2CH2SHCFeCH3CFeH3CFeHCFeH3SHC2H6CHCSNSH2CSHC2H3SHCSC2H2C2HCHSC2H3CHFeH2FeHCHC2HCH4CSCNCHCH2CHCH3CHS2C3H4SH2C3HCH2C2HCH4CHCNCH5CHCHCHFeH3CNHNHC3HCH4CSH8SCHCH2CSH4CH3CH2CH2CFeH7C2H2C2HSCH2C3HCH2CH5SCHCH4SH2CHCH2CFeH2CH4CH5CHC2H2CHSH3SNHFeCHFeH2SC2HSCSFeHCHCH4CHCH2CH4C2H2CH2FeCH2C3FeC2H4CH2C2H4SHCSCH2C2HCNCNCHCHCH2CH5FeSCH2C2H11C2HS2CNC2HCHFeHCH2CSHCSCHC2H3SCH2CH4CH2SH4SCH6CS3HSCHSCHSCH5CH3C4Fe2HCH3C2H3CHNH4NSFeCSFeCH2SCH2CSHCHFe2HFeHC3H2SH2C3H2SH2FeC2HCH2CH2SFeHCH2C2H4CH5CH2SH3CHFeHC3HC2HNH2CHCH2CHNH3SCHFeHSH2CHSC2H6C2H2CH3FeSC4H3CH2FeC2H3CHNHFeSCHSCSH4CSHS2FeHCHC4H2C3HCHCH2SH2NCH5SC2FeH2CHCH2SC3HFeCH4CH2SH3NH3SCHCHCHFeH2C2SH2FeCH2C3H2C2HCNSH3C2HFeSC4HC3SH2CH2CFeH5CHNHC3NHCHC2H5C2S2H3SH2CHCSH3CH3SCHCH5CH3CSH3CHFeCS2CSNH2CH6CH2CH2C2HSH2CH2CHCSCFeCHC4HNCHCH2SCH4FeHC3SH2CH3C2FeH2SH2NHC2H5CH6C2SCHCHNCH8SCHC2H3C2H2CH3C2H2CSH6CHCH2SH2CFeC3H6CHFeH3CSCH2CH2CSHC2SCH2CHFeCHC3SC2HNHSC5H3SCNH3CH2C2HCH4C2HCHNHCHSFeH2CHCH2NCHCH3CH2C2H2C3H4CSCFeSH3SHSCHFeC2HCHCHCH4CHCH3C2H2CH2FeSH10CH2FeHCH2C3H3C2HSC2HSHS3HC2Fe2CFeSC4HCHNH3CHCH3CHC4HSHCH3SHCH2CHCH2CSH2CHCHSH2FeCHCH2C2H2CSCH2CH3NHCH6SHNCH2C2NH2CH2CH2C2HC4H3C2H4FeH3CHSCHCHCH2CH4CHCHSCHCH2CHCH5SHFeHCSFeC2H3C2SFeCH2CH2SFeHC3H4SHCHSHFeHC5HSHNC2FeSH2CSH5CH3FeSCH3S2H3CH2C2HC2H2SHCH4CH
_chemical_formula_sum              "H864 C504 S144 Fe72 N36"
_cell_length_a       30.4767
_cell_length_b       31.7932
_cell_length_c       22.8198
_cell_angle_alpha    90.2533
_cell_angle_beta     101.391
_cell_angle_gamma    65.6365

_space_group_name_H-M_alt    "P 1"
_space_group_IT_number       1

loop_
  _space_group_symop_operation_xyz
  'x, y, z'

loop_
  _atom_site_type_symbol
  _atom_site_label
  _atom_site_symmetry_multiplicity
  _atom_site_fract_x
  _atom_site_fract_y
  _atom_site_fract_z
  _atom_site_occupancy
  H   H1        1.0  0.68712  0.48769  0.93426  1.0000
  C   C1        1.0  0.70318  0.29693  0.73339  1.0000
  S   S1        1.0  0.33484  0.49855  0.84356  1.0000
  C   C2        1.0  0.57944  0.49834  0.91965  1.0000
  C   C3        1.0  0.58497  0.26014  0.92169  1.0000
  C   C4        1.0  0.55366  0.25558  0.87020  1.0000
  H   H2        1.0  0.32079  0.34283  0.85648  1.0000
  H   H3        1.0  0.56160  0.07807  0.91898  1.0000
  H   H4        1.0  0.58205  0.46872  0.89238  1.0000
  H   H5        1.0  0.69168  0.22406  0.76032  1.0000
  C   C5        1.0  0.62401  0.21630  0.82564  1.0000
  C   C6        1.0  0.57326  0.23452  0.82156  1.0000
  H   H6        1.0  0.51445  0.26911  0.86779  1.0000
  H   H7        1.0  0.46471  0.34044  0.79675  1.0000
  H   H8        1.0  0.24935  0.34009  0.92958  1.0000
  H   H9        1.0  0.26524  0.40412  0.91279  1.0000
  H   H10       1.0  0.37928  0.15154  0.92913  1.0000
  Fe  Fe1       1.0  0.41447  0.22067  0.86714  1.0000
  Fe  Fe2       1.0  0.66900  0.47521  0.73385  1.0000
  Fe  Fe3       1.0  0.41908  0.15785  0.76608  1.0000
  H   H11       1.0  0.35917  0.38275  0.97501  1.0000
  N   N1        1.0  0.35283  0.10296  0.95592  1.0000
  S   S2        1.0  0.35620  0.20927  0.80140  1.0000
  C   C7        1.0  0.50186  0.52713  0.73791  1.0000
  H   H12       1.0  0.37063  0.09451  0.86775  1.0000
  Fe  Fe4       1.0  0.47109  0.22251  0.77336  1.0000
  H   H13       1.0  0.30748  0.11552  0.86648  1.0000
  C   C8        1.0  0.63379  0.11843  0.96161  1.0000
  S   S3        1.0  0.47715  0.16576  0.83605  1.0000
  H   H14       1.0  0.40532  0.30827  0.93569  1.0000
  H   H15       1.0  0.45313  0.40016  0.79466  1.0000
  C   C9        1.0  0.38371  0.30950  0.96849  1.0000
  H   H16       1.0  0.63954  0.19801  0.78955  1.0000
  H   H17       1.0  0.32777  0.39599  0.85778  1.0000
  H   H18       1.0  0.30680  0.22396  0.93166  1.0000
  S   S4        1.0  0.41262  0.27852  0.80953  1.0000
  H   H19       1.0  0.25490  0.50945  0.73994  1.0000
  H   H20       1.0  0.38064  0.38239  0.74460  1.0000
  C   C10       1.0  0.66812  0.41571  0.97086  1.0000
  S   S5        1.0  0.70525  0.51313  0.79422  1.0000
  S   S6        1.0  0.41673  0.21573  0.96503  1.0000
  N   N2        1.0  0.64743  0.06489  0.87362  1.0000
  H   H21       1.0  0.67911  0.08718  0.77146  1.0000
  Fe  Fe5       1.0  0.36012  0.26226  0.74002  1.0000
  C   C11       1.0  0.30274  0.19094  0.92585  1.0000
  C   C12       1.0  0.27554  0.54221  0.81683  1.0000
  H   H22       1.0  0.64400  0.39702  0.95954  1.0000
  H   H23       1.0  0.58590  0.08126  0.79702  1.0000
  H   H24       1.0  0.26806  0.31315  0.86532  1.0000
  H   H25       1.0  0.29590  0.38333  0.79080  1.0000
  H   H26       1.0  0.45236  0.09274  0.95853  1.0000
  C   C13       1.0  0.35242  0.15045  0.95490  1.0000
  C   C14       1.0  0.54943  0.52472  0.74359  1.0000
  H   H27       1.0  0.73401  0.35729  0.95712  1.0000
  H   H28       1.0  0.62003  0.13460  0.77247  1.0000
  C   C15       1.0  0.65516  0.21992  0.87714  1.0000
  S   S7        1.0  0.72548  0.40517  0.77290  1.0000
  C   C16       1.0  0.63588  0.24250  0.92494  1.0000
  C   C17       1.0  0.25396  0.40502  0.86320  1.0000
  H   H29       1.0  0.66759  0.43105  0.92709  1.0000
  H   H30       1.0  0.60076  0.51562  0.90507  1.0000
  C   C18       1.0  0.30202  0.38001  0.84037  1.0000
  Fe  Fe6       1.0  0.34647  0.50315  0.94291  1.0000
  H   H31       1.0  0.27599  0.12019  0.95570  1.0000
  H   H32       1.0  0.54012  0.52378  0.90860  1.0000
  C   C19       1.0  0.62460  0.11296  0.89362  1.0000
  C   C20       1.0  0.44724  0.06053  0.96389  1.0000
  C   C21       1.0  0.34402  0.09074  0.89213  1.0000
  H   H33       1.0  0.63850  0.13557  0.87398  1.0000
  H   H34       1.0  0.71244  0.07697  0.87204  1.0000
  S   S8        1.0  0.42959  0.08531  0.74834  1.0000
  H   H35       1.0  0.69423  0.20507  0.87974  1.0000
  C   C22       1.0  0.45654  0.37106  0.76627  1.0000
  H   H36       1.0  0.29227  0.18897  0.87689  1.0000
  S   S9        1.0  0.27890  0.51196  0.97552  1.0000
  C   C23       1.0  0.62684  0.06728  0.80714  1.0000
  H   H37       1.0  0.39560  0.46725  0.75037  1.0000
  S   S10       1.0  0.53661  0.22982  0.75448  1.0000
  C   C24       1.0  0.63900  0.09746  0.76592  1.0000
  H   H38       1.0  0.68827  0.29600  0.77392  1.0000
  H   H39       1.0  0.60650  0.32335  0.74146  1.0000
  H   H40       1.0  0.58419  0.13016  0.87495  1.0000
  H   H41       1.0  0.48883  0.36216  0.74540  1.0000
  H   H42       1.0  0.27190  0.19367  0.94665  1.0000
  H   H43       1.0  0.56979  0.27721  0.95882  1.0000
  H   H44       1.0  0.65332  0.54137  0.96462  1.0000
  C   C25       1.0  0.68393  0.50617  0.97534  1.0000
  H   H45       1.0  0.66687  0.12557  0.97615  1.0000
  H   H46       1.0  0.60151  0.14838  0.97133  1.0000
  H   H47       1.0  0.33915  0.46188  0.73344  1.0000
  C   C26       1.0  0.56670  0.15946  0.19698  1.0000
  H   H48       1.0  0.53990  0.19147  0.21173  1.0000
  Fe  Fe7       1.0  0.40432  0.49941  0.06925  1.0000
  C   C27       1.0  0.35429  0.27072  0.03173  1.0000
  H   H49       1.0  0.41045  0.07942  0.03670  1.0000
  C   C28       1.0  0.70353  0.16882  0.14155  1.0000
  H   H50       1.0  0.51143  0.17731  0.04768  1.0000
  H   H51       1.0  0.45906  0.23224  0.11731  1.0000
  H   H52       1.0  0.44289  0.11827  0.10552  1.0000
  H   H53       1.0  0.71616  0.31044  0.17103  1.0000
  H   H54       1.0  0.48115  0.16320  0.18225  1.0000
  C   C29       1.0  0.40217  0.06858  0.99117  1.0000
  H   H55       1.0  0.63700  0.39984  0.06153  1.0000
  H   H56       1.0  0.74731  0.39407  0.01017  1.0000
  H   H57       1.0  0.31773  0.06570  0.99353  1.0000
  H   H58       1.0  0.74637  0.22392  0.10400  1.0000
  Fe  Fe8       1.0  0.33002  0.45697  0.04691  1.0000
  Fe  Fe9       1.0  0.25927  0.26580  0.13990  1.0000
  H   H59       1.0  0.59772  0.16749  0.19004  1.0000
  H   H60       1.0  0.57060  0.46587  0.99489  1.0000
  H   H61       1.0  0.67124  0.16213  0.14563  1.0000
  H   H62       1.0  0.35193  0.23970  0.04669  1.0000
  H   H63       1.0  0.42194  0.32764  0.12732  1.0000
  H   H64       1.0  0.71549  0.45860  0.05497  1.0000
  H   H65       1.0  0.51300  0.10316  0.17484  1.0000
  C   C30       1.0  0.35847  0.35150  0.99164  1.0000
  C   C31       1.0  0.43859  0.35221  0.14182  1.0000
  S   S11       1.0  0.67657  0.24730  0.98799  1.0000
  S   S12       1.0  0.47569  0.48858  0.13181  1.0000
  H   H66       1.0  0.30777  0.31386  0.08771  1.0000
  H   H67       1.0  0.34744  0.10839  0.07859  1.0000
  C   C32       1.0  0.62343  0.45700  0.11642  1.0000
  S   S13       1.0  0.30486  0.40378  0.07020  1.0000
  C   C33       1.0  0.58182  0.10295  0.12250  1.0000
  C   C34       1.0  0.31315  0.10193  0.98556  1.0000
  S   S14       1.0  0.39745  0.44438  0.01136  1.0000
  H   H68       1.0  0.61378  0.10947  0.11557  1.0000
  H   H69       1.0  0.50997  0.24847  0.13920  1.0000
  C   C35       1.0  0.32910  0.31270  0.05475  1.0000
  C   C36       1.0  0.40011  0.07646  0.20849  1.0000
  H   H70       1.0  0.47838  0.25692  0.06283  1.0000
  H   H71       1.0  0.58622  0.33664  0.17565  1.0000
  H   H72       1.0  0.66173  0.50688  0.05813  1.0000
  H   H73       1.0  0.42754  0.17751  0.09260  1.0000
  H   H74       1.0  0.53942  0.06679  0.07492  1.0000
  H   H75       1.0  0.58232  0.51549  0.01145  1.0000
  H   H76       1.0  0.63156  0.43495  0.15826  1.0000
  C   C37       1.0  0.45866  0.14280  0.09681  1.0000
  H   H77       1.0  0.28595  0.11408  0.06851  1.0000
  H   H78       1.0  0.63755  0.08859  0.98992  1.0000
  H   H79       1.0  0.58301  0.47167  0.09931  1.0000
  H   H80       1.0  0.48711  0.30589  0.21893  1.0000
  H   H81       1.0  0.50171  0.39364  0.16011  1.0000
  H   H82       1.0  0.56133  0.18873  0.08371  1.0000
  H   H83       1.0  0.73310  0.13478  0.13661  1.0000
  C   C38       1.0  0.49991  0.13805  0.15135  1.0000
  C   C39       1.0  0.38214  0.26904  0.98926  1.0000
  C   C40       1.0  0.51924  0.37695  0.20653  1.0000
  H   H84       1.0  0.54927  0.10579  0.02583  1.0000
  H   H85       1.0  0.40865  0.38748  0.12968  1.0000
  C   C41       1.0  0.52469  0.54108  0.17359  1.0000
  H   H86       1.0  0.71930  0.50969  0.98833  1.0000
  H   H87       1.0  0.69242  0.19224  0.10033  1.0000
  H   H88       1.0  0.25684  0.46400  0.15215  1.0000
  C   C42       1.0  0.45967  0.34264  0.21005  1.0000
  H   H89       1.0  0.63474  0.48527  0.12924  1.0000
  H   H90       1.0  0.67351  0.28330  0.15631  1.0000
  H   H91       1.0  0.54972  0.30535  0.17872  1.0000
  H   H92       1.0  0.68472  0.22066  0.20370  1.0000
  H   H93       1.0  0.59751  0.07474  0.15904  1.0000
  H   H94       1.0  0.53678  0.51947  0.21527  1.0000
  N   N3        1.0  0.54300  0.14621  0.13967  1.0000
  C   C43       1.0  0.70556  0.28576  0.14375  1.0000
  C   C44       1.0  0.56528  0.08137  0.06671  1.0000
  C   C45       1.0  0.33213  0.35290  0.03586  1.0000
  S   S15       1.0  0.33105  0.20273  0.15445  1.0000
  H   H95       1.0  0.69046  0.40791  0.09546  1.0000
  C   C46       1.0  0.35613  0.07105  0.20157  1.0000
  H   H96       1.0  0.29666  0.16093  0.04234  1.0000
  S   S16       1.0  0.34047  0.50739  0.11037  1.0000
  H   H97       1.0  0.72303  0.35429  0.03052  1.0000
  C   C47       1.0  0.49182  0.23307  0.10427  1.0000
  H   H98       1.0  0.69214  0.30049  0.09621  1.0000
  H   H99       1.0  0.36460  0.15886  0.00098  1.0000
  H   H100      1.0  0.46734  0.34662  0.11582  1.0000
  Fe  Fe10      1.0  0.35876  0.24065  0.22430  1.0000
  C   C48       1.0  0.67803  0.48000  0.02787  1.0000
  C   C49       1.0  0.65135  0.42682  0.07098  1.0000
  C   C50       1.0  0.59448  0.48328  0.98756  1.0000
  N   N4        1.0  0.64812  0.45206  0.01312  1.0000
  H   H101      1.0  0.47017  0.13546  0.05365  1.0000
  C   C51       1.0  0.52816  0.18491  0.09166  1.0000
  C   C52       1.0  0.31120  0.12263  0.04696  1.0000
  C   C53       1.0  0.49434  0.53314  0.12436  1.0000
  H   H102      1.0  0.42675  0.43756  0.18663  1.0000
  H   H103      1.0  0.26836  0.40976  0.18659  1.0000
  S   S17       1.0  0.72103  0.50582  0.18423  1.0000
  S   S18       1.0  0.28933  0.30560  0.20381  1.0000
  H   H104      1.0  0.47206  0.05093  0.18768  1.0000
  C   C54       1.0  0.71850  0.19067  0.19820  1.0000
  C   C55       1.0  0.56236  0.33022  0.20217  1.0000
  C   C56       1.0  0.74196  0.41574  0.21717  1.0000
  H   H105      1.0  0.59810  0.05167  0.05763  1.0000
  C   C57       1.0  0.72112  0.37853  0.99424  1.0000
  C   C58       1.0  0.24989  0.44773  0.19023  1.0000
  Fe  Fe11      1.0  0.30438  0.17994  0.22773  1.0000
  H   H106      1.0  0.53639  0.39929  0.22896  1.0000
  H   H107      1.0  0.71110  0.39719  0.33337  1.0000
  S   S19       1.0  0.73511  0.51558  0.45197  1.0000
  H   H108      1.0  0.71532  0.27829  0.47559  1.0000
  H   H109      1.0  0.33279  0.30029  0.33360  1.0000
  C   C59       1.0  0.25309  0.24455  0.46081  1.0000
  S   S20       1.0  0.42878  0.24927  0.23392  1.0000
  S   S21       1.0  0.33810  0.21270  0.29957  1.0000
  C   C60       1.0  0.54334  0.49985  0.43219  1.0000
  H   H110      1.0  0.44421  0.16107  0.29101  1.0000
  H   H111      1.0  0.27908  0.43683  0.28827  1.0000
  C   C61       1.0  0.71389  0.30490  0.44506  1.0000
  H   H112      1.0  0.52655  0.37696  0.32362  1.0000
  H   H113      1.0  0.53407  0.32052  0.30585  1.0000
  S   S22       1.0  0.38135  0.41168  0.44062  1.0000
  H   H114      1.0  0.36802  0.10263  0.42695  1.0000
  C   C62       1.0  0.47222  0.21340  0.29483  1.0000
  Fe  Fe12      1.0  0.65625  0.14141  0.44193  1.0000
  C   C63       1.0  0.67391  0.35669  0.35441  1.0000
  H   H115      1.0  0.63513  0.49045  0.46035  1.0000
  H   H116      1.0  0.59614  0.13933  0.29238  1.0000
  H   H117      1.0  0.50928  0.25840  0.30839  1.0000
  C   C64       1.0  0.63298  0.45689  0.46709  1.0000
  Fe  Fe13      1.0  0.67401  0.22502  0.41350  1.0000
  H   H118      1.0  0.39100  0.33406  0.37359  1.0000
  H   H119      1.0  0.64529  0.36929  0.31396  1.0000
  H   H120      1.0  0.53190  0.38278  0.47469  1.0000
  C   C65       1.0  0.47144  0.35630  0.34390  1.0000
  Fe  Fe14      1.0  0.34351  0.48913  0.43679  1.0000
  H   H121      1.0  0.26422  0.49453  0.25625  1.0000
  C   C66       1.0  0.27851  0.45724  0.24864  1.0000
  Fe  Fe15      1.0  0.74404  0.12951  0.38724  1.0000
  H   H122      1.0  0.71144  0.42977  0.23928  1.0000
  H   H123      1.0  0.28027  0.18251  0.41634  1.0000
  H   H124      1.0  0.55942  0.11069  0.26024  1.0000
  S   S23       1.0  0.66292  0.17137  0.35693  1.0000
  H   H125      1.0  0.44312  0.39132  0.34745  1.0000
  C   C67       1.0  0.54589  0.15639  0.39001  1.0000
  C   C68       1.0  0.45307  0.45867  0.27010  1.0000
  H   H126      1.0  0.51027  0.51585  0.33693  1.0000
  H   H127      1.0  0.45286  0.33357  0.32849  1.0000
  H   H128      1.0  0.62105  0.09375  0.24775  1.0000
  H   H129      1.0  0.48388  0.46364  0.25722  1.0000
  H   H130      1.0  0.59279  0.40043  0.43482  1.0000
  H   H131      1.0  0.48399  0.26579  0.44568  1.0000
  C   C69       1.0  0.25821  0.38885  0.40117  1.0000
  H   H132      1.0  0.42052  0.49271  0.26019  1.0000
  C   C70       1.0  0.44022  0.42258  0.23402  1.0000
  S   S24       1.0  0.63226  0.29943  0.37842  1.0000
  N   N5        1.0  0.48131  0.37471  0.23849  1.0000
  S   S25       1.0  0.59509  0.12064  0.44621  1.0000
  H   H133      1.0  0.31750  0.44601  0.24519  1.0000
  H   H134      1.0  0.71828  0.05774  0.33287  1.0000
  C   C71       1.0  0.29091  0.40889  0.42263  1.0000
  S   S26       1.0  0.26486  0.53930  0.39913  1.0000
  H   H135      1.0  0.46156  0.45010  0.31915  1.0000
  C   C72       1.0  0.38279  0.08248  0.47160  1.0000
  C   C73       1.0  0.27314  0.34976  0.36874  1.0000
  H   H136      1.0  0.27321  0.13354  0.34861  1.0000
  H   H137      1.0  0.71147  0.23342  0.30189  1.0000
  H   H138      1.0  0.42945  0.23837  0.40780  1.0000
  S   S27       1.0  0.68130  0.48935  0.32979  1.0000
  H   H139      1.0  0.27939  0.43908  0.44775  1.0000
  C   C74       1.0  0.42094  0.22022  0.44228  1.0000
  S   S28       1.0  0.37573  0.52818  0.39144  1.0000
  C   C75       1.0  0.50590  0.35682  0.30294  1.0000
  C   C76       1.0  0.50879  0.22663  0.32349  1.0000
  H   H140      1.0  0.70461  0.28417  0.25849  1.0000
  H   H141      1.0  0.40510  0.10305  0.23508  1.0000
  C   C77       1.0  0.54509  0.19855  0.37152  1.0000
  C   C78       1.0  0.50905  0.14309  0.36181  1.0000
  H   H142      1.0  0.72734  0.16566  0.23730  1.0000
  C   C79       1.0  0.33891  0.38894  0.41282  1.0000
  H   H143      1.0  0.38430  0.24278  0.45125  1.0000
  S   S29       1.0  0.30811  0.10825  0.23373  1.0000
  C   C80       1.0  0.32099  0.33035  0.35858  1.0000
  C   C81       1.0  0.47187  0.17186  0.31419  1.0000
  H   H144      1.0  0.50618  0.50659  0.43991  1.0000
  H   H145      1.0  0.54570  0.45493  0.35728  1.0000
  H   H146      1.0  0.58602  0.31423  0.24684  1.0000
  C   C82       1.0  0.67566  0.32258  0.39419  1.0000
  H   H147      1.0  0.54507  0.53390  0.43674  1.0000
  Fe  Fe16      1.0  0.26637  0.27586  0.27429  1.0000
  H   H148      1.0  0.51055  0.10978  0.37489  1.0000
  H   H149      1.0  0.49369  0.34231  0.38984  1.0000
  Fe  Fe17      1.0  0.72124  0.51791  0.28108  1.0000
  H   H150      1.0  0.57586  0.49307  0.35283  1.0000
  C   C83       1.0  0.46739  0.05909  0.45297  1.0000
  H   H151      1.0  0.57275  0.20945  0.39417  1.0000
  C   C84       1.0  0.54430  0.48964  0.36622  1.0000
  C   C85       1.0  0.35393  0.34963  0.38103  1.0000
  H   H152      1.0  0.63888  0.44075  0.42432  1.0000
  C   C86       1.0  0.71067  0.37305  0.36571  1.0000
  H   H153      1.0  0.41784  0.18930  0.42255  1.0000
  H   H154      1.0  0.44712  0.08935  0.41882  1.0000
  H   H155      1.0  0.50217  0.43688  0.43044  1.0000
  H   H156      1.0  0.28554  0.25141  0.45790  1.0000
  C   C87       1.0  0.58663  0.12331  0.25166  1.0000
  S   S30       1.0  0.73678  0.09486  0.46733  1.0000
  C   C88       1.0  0.73116  0.25276  0.28742  1.0000
  N   N6        1.0  0.58345  0.46367  0.47836  1.0000
  C   C89       1.0  0.52859  0.41888  0.47286  1.0000
  H   H157      1.0  0.35512  0.06925  0.47738  1.0000
  C   C90       1.0  0.58002  0.41769  0.47471  1.0000
  H   H158      1.0  0.36867  0.05622  0.35338  1.0000
  H   H159      1.0  0.40764  0.42137  0.24775  1.0000
  C   C91       1.0  0.74767  0.35707  0.41796  1.0000
  H   H160      1.0  0.74711  0.26470  0.32865  1.0000
  C   C92       1.0  0.72989  0.04861  0.29096  1.0000
  H   H161      1.0  0.24919  0.14133  0.46856  1.0000
  H   H162      1.0  0.42859  0.34434  0.23012  1.0000
  H   H163      1.0  0.28122  0.41773  0.60121  1.0000
  C   C93       1.0  0.35171  0.42274  0.62513  1.0000
  H   H164      1.0  0.45013  0.18642  0.53201  1.0000
  S   S31       1.0  0.59178  0.48023  0.71144  1.0000
  S   S32       1.0  0.66208  0.19808  0.49637  1.0000
  C   C94       1.0  0.70408  0.30772  0.59912  1.0000
  C   C95       1.0  0.50536  0.25257  0.49231  1.0000
  C   C96       1.0  0.55469  0.18281  0.59870  1.0000
  H   H165      1.0  0.46349  0.35518  0.63526  1.0000
  H   H166      1.0  0.26079  0.22704  0.50595  1.0000
  H   H167      1.0  0.40983  0.30195  0.48535  1.0000
  H   H168      1.0  0.48232  0.21174  0.61766  1.0000
  S   S33       1.0  0.34854  0.52282  0.52220  1.0000
  H   H169      1.0  0.62204  0.27634  0.62287  1.0000
  H   H170      1.0  0.41582  0.46115  0.62333  1.0000
  C   C97       1.0  0.71521  0.26276  0.63621  1.0000
  C   C98       1.0  0.26549  0.25203  0.65418  1.0000
  C   C99       1.0  0.30258  0.42758  0.63977  1.0000
  H   H171      1.0  0.59282  0.52649  0.60264  1.0000
  C   C100      1.0  0.50346  0.22365  0.59249  1.0000
  H   H172      1.0  0.54468  0.28025  0.56305  1.0000
  H   H173      1.0  0.34258  0.44987  0.58859  1.0000
  C   C101      1.0  0.45781  0.38966  0.61705  1.0000
  C   C102      1.0  0.39251  0.27998  0.56459  1.0000
  H   H174      1.0  0.68778  0.18569  0.63489  1.0000
  C   C103      1.0  0.34310  0.51383  0.67708  1.0000
  H   H175      1.0  0.41510  0.34987  0.69383  1.0000
  H   H176      1.0  0.35431  0.30376  0.54164  1.0000
  H   H177      1.0  0.73357  0.30138  0.57419  1.0000
  H   H178      1.0  0.56081  0.32008  0.68132  1.0000
  C   C104      1.0  0.53498  0.07108  0.65717  1.0000
  H   H179      1.0  0.53987  0.48700  0.54600  1.0000
  C   C105      1.0  0.48292  0.06187  0.71930  1.0000
  N   N7        1.0  0.47491  0.24145  0.52912  1.0000
  C   C106      1.0  0.70108  0.22163  0.71548  1.0000
  H   H180      1.0  0.60165  0.45268  0.57656  1.0000
  H   H181      1.0  0.49523  0.38787  0.61885  1.0000
  H   H182      1.0  0.39335  0.24490  0.56550  1.0000
  H   H183      1.0  0.50847  0.25175  0.61821  1.0000
  H   H184      1.0  0.70626  0.23998  0.60356  1.0000
  C   C107      1.0  0.50176  0.07179  0.50179  1.0000
  H   H185      1.0  0.32451  0.54007  0.70683  1.0000
  C   C108      1.0  0.42969  0.28502  0.53105  1.0000
  H   H186      1.0  0.67634  0.43870  0.56038  1.0000
  C   C109      1.0  0.43045  0.42912  0.65388  1.0000
  H   H187      1.0  0.70258  0.33660  0.62702  1.0000
  Fe  Fe18      1.0  0.74340  0.15397  0.51527  1.0000
  H   H188      1.0  0.34281  0.14371  0.51420  1.0000
  H   H189      1.0  0.53795  0.22068  0.48754  1.0000
  H   H190      1.0  0.62506  0.09341  0.71843  1.0000
  C   C110      1.0  0.38153  0.11790  0.51818  1.0000
  N   N8        1.0  0.68811  0.26898  0.68640  1.0000
  H   H191      1.0  0.51303  0.43509  0.51151  1.0000
  N   N9        1.0  0.38961  0.42469  0.67743  1.0000
  H   H192      1.0  0.71190  0.42590  0.50465  1.0000
  C   C111      1.0  0.52438  0.28889  0.51572  1.0000
  C   C112      1.0  0.57741  0.47998  0.53968  1.0000
  C   C113      1.0  0.46162  0.20424  0.50025  1.0000
  H   H193      1.0  0.37090  0.52380  0.66400  1.0000
  C   C114      1.0  0.36734  0.46566  0.71236  1.0000
  H   H194      1.0  0.39442  0.10181  0.56497  1.0000
  H   H195      1.0  0.44015  0.31161  0.55347  1.0000
  H   H196      1.0  0.58120  0.19354  0.58347  1.0000
  H   H197      1.0  0.61438  0.52741  0.53706  1.0000
  C   C115      1.0  0.49041  0.08820  0.67655  1.0000
  S   S34       1.0  0.41880  0.20981  0.70005  1.0000
  H   H198      1.0  0.55057  0.28993  0.48865  1.0000
  H   H199      1.0  0.57004  0.16993  0.64682  1.0000
  H   H200      1.0  0.60549  0.39331  0.51385  1.0000
  H   H201      1.0  0.36680  0.38944  0.60417  1.0000
  H   H202      1.0  0.31436  0.51654  0.63720  1.0000
  H   H203      1.0  0.49392  0.32419  0.50998  1.0000
  H   H204      1.0  0.62457  0.32975  0.64094  1.0000
  H   H205      1.0  0.43753  0.39596  0.56949  1.0000
  S   S35       1.0  0.29982  0.31862  0.67521  1.0000
  C   C116      1.0  0.63360  0.29441  0.66057  1.0000
  H   H206      1.0  0.68709  0.33430  0.71736  1.0000
  C   C117      1.0  0.58355  0.52516  0.55337  1.0000
  H   H207      1.0  0.55296  0.15321  0.57408  1.0000
  H   H208      1.0  0.39917  0.28907  0.61159  1.0000
  C   C118      1.0  0.25807  0.29727  0.63840  1.0000
  S   S36       1.0  0.70709  0.47738  0.66061  1.0000
  H   H209      1.0  0.48182  0.09777  0.53033  1.0000
  H   H210      1.0  0.66896  0.31859  0.56535  1.0000
  H   H211      1.0  0.29802  0.22972  0.68616  1.0000
  H   H212      1.0  0.46177  0.12165  0.65821  1.0000
  C   C119      1.0  0.67798  0.42593  0.51558  1.0000
  H   H213      1.0  0.27933  0.46386  0.64704  1.0000
  H   H214      1.0  0.68248  0.38957  0.51753  1.0000
  H   H215      1.0  0.54099  0.09174  0.62483  1.0000
  C   C120      1.0  0.59985  0.30188  0.70533  1.0000
  H   H216      1.0  0.49177  0.50210  0.71347  1.0000
  H   H217      1.0  0.30825  0.40475  0.67959  1.0000
  C   C121      1.0  0.67818  0.19165  0.67939  1.0000
  H   H218      1.0  0.49454  0.17614  0.48851  1.0000
  H   H219      1.0  0.40279  0.13735  0.50977  1.0000
  C   C122      1.0  0.40871  0.38117  0.71908  1.0000
  Fe  Fe19      1.0  0.74881  0.50844  0.72381  1.0000
  H   H220      1.0  0.45769  0.43441  0.69005  1.0000
  H   H221      1.0  0.63767  0.20618  0.67416  1.0000
  H   H222      1.0  0.69339  0.15691  0.70426  1.0000
  H   H223      1.0  0.60410  0.26875  0.72556  1.0000
  H   H224      1.0  0.74153  0.20057  0.72454  1.0000
  H   H225      1.0  0.52282  0.08610  0.48011  1.0000
  H   H226      1.0  0.28463  0.58268  0.88966  1.0000
  C   C123      1.0  0.65540  0.63596  0.75792  1.0000
  C   C124      1.0  0.63698  0.83194  0.88364  1.0000
  H   H227      1.0  0.27391  0.63927  0.95340  1.0000
  H   H228      1.0  0.28339  0.80007  0.82463  1.0000
  C   C125      1.0  0.37145  0.86533  0.97702  1.0000
  C   C126      1.0  0.73402  0.02585  0.94555  1.0000
  H   H229      1.0  0.41175  0.88861  0.81028  1.0000
  S   S37       1.0  0.40804  0.84813  0.92327  1.0000
  C   C127      1.0  0.56232  0.55727  0.77493  1.0000
  H   H230      1.0  0.38093  0.96140  0.78371  1.0000
  H   H231      1.0  0.28017  0.98318  0.89230  1.0000
  C   C128      1.0  0.28375  0.96011  0.85528  1.0000
  C   C129      1.0  0.48010  0.59455  0.79508  1.0000
  C   C130      1.0  0.30373  0.69538  0.77027  1.0000
  H   H232      1.0  0.65019  0.99628  0.88567  1.0000
  C   C131      1.0  0.41435  0.85005  0.73304  1.0000
  H   H233      1.0  0.63601  0.61797  0.77634  1.0000
  H   H234      1.0  0.43823  0.92408  0.88133  1.0000
  C   C132      1.0  0.49664  0.90251  0.82851  1.0000
  H   H235      1.0  0.25330  0.87395  0.87022  1.0000
  H   H236      1.0  0.33288  0.66571  0.86290  1.0000
  H   H237      1.0  0.28459  0.65115  0.82511  1.0000
  H   H238      1.0  0.65249  0.02328  0.95275  1.0000
  H   H239      1.0  0.27498  0.72705  0.78316  1.0000
  S   S38       1.0  0.48245  0.73509  0.85377  1.0000
  C   C133      1.0  0.34572  0.04193  0.88445  1.0000
  H   H240      1.0  0.56267  0.68035  0.77089  1.0000
  C   C134      1.0  0.63495  0.03058  0.90433  1.0000
  H   H241      1.0  0.73011  0.66412  0.82669  1.0000
  H   H242      1.0  0.30008  0.91240  0.75787  1.0000
  H   H243      1.0  0.33750  0.03756  0.83577  1.0000
  H   H244      1.0  0.29527  0.97463  0.82013  1.0000
  S   S39       1.0  0.43461  0.71521  0.96190  1.0000
  H   H245      1.0  0.51475  0.99839  0.77662  1.0000
  H   H246      1.0  0.74147  0.61733  0.93867  1.0000
  C   C135      1.0  0.57952  0.04445  0.90036  1.0000
  H   H247      1.0  0.52108  0.86986  0.85742  1.0000
  C   C136      1.0  0.65149  0.80162  0.83953  1.0000
  H   H248      1.0  0.53764  0.61739  0.82458  1.0000
  H   H249      1.0  0.52110  0.91853  0.81929  1.0000
  C   C137      1.0  0.25977  0.58021  0.85059  1.0000
  Fe  Fe20      1.0  0.55573  0.70253  0.91760  1.0000
  H   H250      1.0  0.46453  0.83625  0.81892  1.0000
  H   H251      1.0  0.69572  0.61534  0.77311  1.0000
  C   C138      1.0  0.31732  0.65613  0.81938  1.0000
  H   H252      1.0  0.71761  0.02167  0.85120  1.0000
  H   H253      1.0  0.43064  0.56354  0.75958  1.0000
  H   H254      1.0  0.33668  0.70288  0.77433  1.0000
  H   H255      1.0  0.53172  0.82528  0.77054  1.0000
  C   C139      1.0  0.61041  0.77981  0.92740  1.0000
  H   H256      1.0  0.65862  0.73625  0.80668  1.0000
  H   H257      1.0  0.30372  0.86537  0.83775  1.0000
  H   H258      1.0  0.73538  0.99097  0.95385  1.0000
  H   H259      1.0  0.50611  0.67726  0.73833  1.0000
  H   H260      1.0  0.48867  0.93821  0.90942  1.0000
  C   C140      1.0  0.64664  0.75983  0.84030  1.0000
  H   H261      1.0  0.59884  0.55568  0.77907  1.0000
  C   C141      1.0  0.46724  0.56200  0.76368  1.0000
  C   C142      1.0  0.50930  0.85828  0.74131  1.0000
  H   H262      1.0  0.44482  0.97159  0.84464  1.0000
  H   H263      1.0  0.57095  0.87938  0.76338  1.0000
  C   C143      1.0  0.62660  0.74863  0.88467  1.0000
  H   H264      1.0  0.63997  0.03203  0.79099  1.0000
  S   S40       1.0  0.62395  0.69485  0.88756  1.0000
  H   H265      1.0  0.34604  0.62261  0.81157  1.0000
  H   H266      1.0  0.64793  0.66932  0.77711  1.0000
  H   H267      1.0  0.27113  0.82811  0.75163  1.0000
  S   S41       1.0  0.70952  0.93679  0.80313  1.0000
  N   N10       1.0  0.47025  0.89184  0.77118  1.0000
  H   H268      1.0  0.57537  0.01779  0.92728  1.0000
  Fe  Fe21      1.0  0.45382  0.77125  0.93165  1.0000
  C   C144      1.0  0.52768  0.59212  0.80080  1.0000
  H   H269      1.0  0.31323  0.92598  0.87399  1.0000
  Fe  Fe22      1.0  0.68725  0.87940  0.81269  1.0000
  H   H270      1.0  0.66727  0.81000  0.80535  1.0000
  H   H271      1.0  0.38245  0.01428  0.90446  1.0000
  S   S42       1.0  0.43607  0.63776  0.82682  1.0000
  C   C145      1.0  0.46431  0.93603  0.86740  1.0000
  C   C146      1.0  0.61612  0.82127  0.92737  1.0000
  H   H272      1.0  0.60489  0.84477  0.96153  1.0000
  S   S43       1.0  0.64587  0.88262  0.88430  1.0000
  C   C147      1.0  0.26360  0.87389  0.82603  1.0000
  S   S44       1.0  0.54506  0.64109  0.94697  1.0000
  Fe  Fe23      1.0  0.46944  0.67650  0.88856  1.0000
  H   H273      1.0  0.73262  0.69038  0.91778  1.0000
  C   C148      1.0  0.44051  0.86708  0.78650  1.0000
  H   H274      1.0  0.38757  0.83947  0.74809  1.0000
  C   C149      1.0  0.26012  0.92198  0.74027  1.0000
  H   H275      1.0  0.55949  0.04547  0.85387  1.0000
  H   H276      1.0  0.59521  0.77126  0.96183  1.0000
  H   H277      1.0  0.35682  0.80461  0.97710  1.0000
  H   H278      1.0  0.74439  0.75786  0.94714  1.0000
  C   C150      1.0  0.51985  0.01827  0.74232  1.0000
  H   H279      1.0  0.74878  0.72705  0.78631  1.0000
  C   C151      1.0  0.25914  0.83220  0.79490  1.0000
  H   H280      1.0  0.44538  0.04493  0.92045  1.0000
  H   H281      1.0  0.31737  0.03726  0.90396  1.0000
  C   C152      1.0  0.38725  0.96565  0.73859  1.0000
  H   H282      1.0  0.59389  0.96903  0.74383  1.0000
  H   H283      1.0  0.25829  0.71053  0.89287  1.0000
  H   H284      1.0  0.45975  0.95763  0.73037  1.0000
  H   H285      1.0  0.74593  0.68707  0.73329  1.0000
  C   C153      1.0  0.70273  0.04814  0.88278  1.0000
  C   C154      1.0  0.53307  0.69032  0.73001  1.0000
  H   H286      1.0  0.37982  0.00273  0.73083  1.0000
  H   H287      1.0  0.34242  0.75201  0.14243  1.0000
  C   C155      1.0  0.49361  0.59706  0.06600  1.0000
  H   H288      1.0  0.48095  0.03552  0.99503  1.0000
  H   H289      1.0  0.25975  0.74424  0.11091  1.0000
  Fe  Fe24      1.0  0.51167  0.68435  0.01758  1.0000
  C   C156      1.0  0.34252  0.67280  0.08819  1.0000
  H   H290      1.0  0.30513  0.67336  0.08137  1.0000
  H   H291      1.0  0.36664  0.63837  0.07553  1.0000
  C   C157      1.0  0.34968  0.64683  0.19191  1.0000
  C   C158      1.0  0.72300  0.01375  0.19663  1.0000
  C   C159      1.0  0.33344  0.92251  0.04380  1.0000
  Fe  Fe25      1.0  0.64998  0.96088  0.18954  1.0000
  C   C160      1.0  0.73657  0.61200  0.18925  1.0000
  C   C161      1.0  0.38695  0.00858  0.13819  1.0000
  H   H292      1.0  0.52534  0.87905  0.04883  1.0000
  H   H293      1.0  0.66459  0.68845  0.13211  1.0000
  H   H294      1.0  0.32565  0.95594  0.06110  1.0000
  H   H295      1.0  0.70758  0.60789  0.03675  1.0000
  C   C162      1.0  0.31340  0.89413  0.06342  1.0000
  H   H296      1.0  0.36605  0.57510  0.21594  1.0000
  H   H297      1.0  0.42812  0.91217  0.19309  1.0000
  C   C163      1.0  0.65261  0.61306  0.08657  1.0000
  C   C164      1.0  0.47951  0.56064  0.07030  1.0000
  H   H298      1.0  0.61999  0.75367  0.19538  1.0000
  H   H299      1.0  0.59428  0.81063  0.15868  1.0000
  H   H300      1.0  0.56075  0.58468  0.20815  1.0000
  H   H301      1.0  0.34695  0.69352  0.99951  1.0000
  S   S45       1.0  0.35904  0.55778  0.99772  1.0000
  H   H302      1.0  0.64886  0.60361  0.13143  1.0000
  C   C165      1.0  0.36224  0.90827  0.00039  1.0000
  S   S46       1.0  0.52842  0.74309  0.99311  1.0000
  C   C166      1.0  0.48321  0.83938  0.21554  1.0000
  H   H303      1.0  0.54017  0.75488  0.19491  1.0000
  H   H304      1.0  0.46087  0.80176  0.07497  1.0000
  C   C167      1.0  0.43262  0.87951  0.21591  1.0000
  C   C168      1.0  0.38085  0.59440  0.19109  1.0000
  H   H305      1.0  0.41761  0.84633  0.10682  1.0000
  C   C169      1.0  0.44050  0.77796  0.14885  1.0000
  N   N11       1.0  0.49303  0.82468  0.15477  1.0000
  C   C170      1.0  0.35098  0.83714  0.99620  1.0000
  N   N12       1.0  0.36012  0.67845  0.15310  1.0000
  C   C171      1.0  0.69909  0.67926  0.11541  1.0000
  H   H306      1.0  0.48124  0.61877  0.02446  1.0000
  C   C172      1.0  0.27727  0.74616  0.15766  1.0000
  H   H307      1.0  0.62726  0.64979  0.07227  1.0000
  C   C173      1.0  0.33935  0.70984  0.04174  1.0000
  H   H308      1.0  0.72448  0.78499  0.05589  1.0000
  H   H309      1.0  0.54009  0.81969  0.05957  1.0000
  C   C174      1.0  0.34986  0.03659  0.16715  1.0000
  H   H310      1.0  0.40124  0.87105  0.19627  1.0000
  H   H311      1.0  0.37763  0.93038  0.98527  1.0000
  H   H312      1.0  0.52050  0.87765  0.14915  1.0000
  H   H313      1.0  0.26647  0.72764  0.18908  1.0000
  H   H314      1.0  0.47783  0.85887  0.02413  1.0000
  Fe  Fe26      1.0  0.29470  0.56191  0.03503  1.0000
  S   S47       1.0  0.27509  0.91304  0.11498  1.0000
  C   C175      1.0  0.32151  0.85176  0.03890  1.0000
  H   H315      1.0  0.71777  0.69778  0.03344  1.0000
  H   H316      1.0  0.47242  0.74365  0.15827  1.0000
  C   C176      1.0  0.49580  0.86395  0.12135  1.0000
  C   C177      1.0  0.68498  0.70108  0.05047  1.0000
  H   H317      1.0  0.41030  0.77327  0.11759  1.0000
  H   H318      1.0  0.63940  0.59205  0.05499  1.0000
  H   H319      1.0  0.40180  0.03421  0.99915  1.0000
  H   H320      1.0  0.66296  0.68670  0.01936  1.0000
  H   H321      1.0  0.26197  0.78314  0.16721  1.0000
  H   H322      1.0  0.30120  0.73752  0.02928  1.0000
  H   H323      1.0  0.38171  0.98259  0.11075  1.0000
  H   H324      1.0  0.37888  0.58324  0.14497  1.0000
  H   H325      1.0  0.66184  0.73876  0.04996  1.0000
  H   H326      1.0  0.71847  0.69806  0.14234  1.0000
  H   H327      1.0  0.36588  0.72533  0.05557  1.0000
  C   C178      1.0  0.51026  0.85438  0.05990  1.0000
  C   C179      1.0  0.70657  0.60198  0.08442  1.0000
  H   H328      1.0  0.54506  0.76419  0.12138  1.0000
  S   S48       1.0  0.47697  0.97781  0.10920  1.0000
  S   S49       1.0  0.53360  0.65576  0.11316  1.0000
  C   C180      1.0  0.45225  0.81428  0.11875  1.0000
  N   N13       1.0  0.73047  0.62784  0.12480  1.0000
  C   C181      1.0  0.52215  0.60630  0.11602  1.0000
  C   C182      1.0  0.33376  0.72765  0.16777  1.0000
  H   H329      1.0  0.67164  0.81652  0.12936  1.0000
  C   C183      1.0  0.70915  0.79113  0.14454  1.0000
  H   H330      1.0  0.30495  0.83029  0.05283  1.0000
  Fe  Fe27      1.0  0.55140  0.95523  0.17015  1.0000
  H   H331      1.0  0.42739  0.78921  0.19069  1.0000
  C   C184      1.0  0.43123  0.01340  0.14590  1.0000
  H   H332      1.0  0.42259  0.68866  0.13513  1.0000
  H   H333      1.0  0.45925  0.89429  0.11169  1.0000
  C   C185      1.0  0.53842  0.57779  0.16950  1.0000
  S   S50       1.0  0.62209  0.91203  0.14243  1.0000
  H   H334      1.0  0.70022  0.61922  0.19988  1.0000
  C   C186      1.0  0.54052  0.78139  0.16368  1.0000
  S   S51       1.0  0.69456  0.98678  0.14521  1.0000
  C   C187      1.0  0.72734  0.77494  0.20522  1.0000
  H   H335      1.0  0.43445  0.63060  0.15121  1.0000
  C   C188      1.0  0.41456  0.66599  0.16416  1.0000
  C   C189      1.0  0.58775  0.78789  0.18931  1.0000
  H   H336      1.0  0.31053  0.65200  0.17781  1.0000
  H   H337      1.0  0.31591  0.03230  0.16169  1.0000
  H   H338      1.0  0.34666  0.73129  0.21570  1.0000
  S   S52       1.0  0.57775  0.00668  0.21153  1.0000
  C   C190      1.0  0.43804  0.04697  0.18171  1.0000
  H   H339      1.0  0.41996  0.58379  0.21391  1.0000
  H   H340      1.0  0.45734  0.55373  0.03169  1.0000
  C   C191      1.0  0.73894  0.77303  0.10296  1.0000
  H   H341      1.0  0.72747  0.56398  0.09544  1.0000
  H   H342      1.0  0.72139  0.04742  0.98212  1.0000
  H   H343      1.0  0.73443  0.84595  0.00062  1.0000
  H   H344      1.0  0.74445  0.89790  0.09282  1.0000
  C   C192      1.0  0.43973  0.66826  0.22906  1.0000
  H   H345      1.0  0.71982  0.64736  0.42886  1.0000
  H   H346      1.0  0.26615  0.83645  0.38820  1.0000
  S   S53       1.0  0.69023  0.79687  0.25724  1.0000
  H   H347      1.0  0.36016  0.72736  0.34017  1.0000
  H   H348      1.0  0.63259  0.70001  0.39133  1.0000
  H   H349      1.0  0.43193  0.03835  0.34602  1.0000
  H   H350      1.0  0.48017  0.65420  0.23234  1.0000
  S   S54       1.0  0.67821  0.91905  0.27835  1.0000
  C   C193      1.0  0.71900  0.66769  0.46888  1.0000
  H   H351      1.0  0.42804  0.70448  0.24134  1.0000
  H   H352      1.0  0.58652  0.79208  0.44836  1.0000
  H   H353      1.0  0.74107  0.95676  0.37188  1.0000
  H   H354      1.0  0.49317  0.03180  0.42993  1.0000
  H   H355      1.0  0.41603  0.65706  0.45835  1.0000
  H   H356      1.0  0.58732  0.80160  0.23402  1.0000
  C   C194      1.0  0.55222  0.63952  0.38463  1.0000
  S   S55       1.0  0.30181  0.62162  0.44227  1.0000
  S   S56       1.0  0.44226  0.78904  0.32870  1.0000
  S   S57       1.0  0.59601  0.58409  0.41427  1.0000
  H   H357      1.0  0.32755  0.78754  0.34798  1.0000
  S   S58       1.0  0.70025  0.58395  0.32777  1.0000
  C   C195      1.0  0.32275  0.75532  0.33826  1.0000
  H   H358      1.0  0.69698  0.71436  0.36067  1.0000
  S   S59       1.0  0.29956  0.96590  0.47202  1.0000
  C   C196      1.0  0.54962  0.89823  0.45211  1.0000
  H   H359      1.0  0.51132  0.85074  0.23975  1.0000
  S   S60       1.0  0.59355  0.98861  0.38520  1.0000
  C   C197      1.0  0.52150  0.70889  0.31705  1.0000
  H   H360      1.0  0.28390  0.80601  0.45983  1.0000
  H   H361      1.0  0.52496  0.72749  0.28015  1.0000
  H   H362      1.0  0.67863  0.77048  0.38424  1.0000
  H   H363      1.0  0.32561  0.73453  0.42828  1.0000
  H   H364      1.0  0.54720  0.92489  0.36481  1.0000
  C   C198      1.0  0.48316  0.73073  0.34716  1.0000
  H   H365      1.0  0.50861  0.64200  0.44946  1.0000
  H   H366      1.0  0.53147  0.87650  0.43489  1.0000
  H   H367      1.0  0.43370  0.64720  0.26251  1.0000
  C   C199      1.0  0.47849  0.70646  0.39458  1.0000
  C   C200      1.0  0.59265  0.77082  0.40959  1.0000
  C   C201      1.0  0.51246  0.66068  0.41265  1.0000
  C   C202      1.0  0.40611  0.02747  0.36279  1.0000
  Fe  Fe28      1.0  0.43129  0.82165  0.41516  1.0000
  Fe  Fe29      1.0  0.29802  0.58177  0.36177  1.0000
  H   H368      1.0  0.58673  0.64682  0.31393  1.0000
  C   C203      1.0  0.29908  0.74178  0.38442  1.0000
  H   H369      1.0  0.73102  0.89767  0.41914  1.0000
  H   H370      1.0  0.43007  0.88635  0.26320  1.0000
  H   H371      1.0  0.40353  0.99913  0.33568  1.0000
  C   C204      1.0  0.42395  0.00924  0.42984  1.0000
  C   C205      1.0  0.55649  0.66337  0.33629  1.0000
  H   H372      1.0  0.72556  0.00737  0.44422  1.0000
  H   H373      1.0  0.39582  0.99825  0.44012  1.0000
  H   H374      1.0  0.64879  0.81479  0.45221  1.0000
  C   C206      1.0  0.58210  0.95383  0.43413  1.0000
  H   H375      1.0  0.55740  0.76807  0.39164  1.0000
  N   N14       1.0  0.68522  0.71832  0.45154  1.0000
  H   H376      1.0  0.59945  0.78876  0.37322  1.0000
  H   H377      1.0  0.35394  0.65527  0.23953  1.0000
  H   H378      1.0  0.45851  0.97699  0.43393  1.0000
  H   H379      1.0  0.48706  0.80967  0.24460  1.0000
  N   N15       1.0  0.43217  0.04265  0.47323  1.0000
  S   S61       1.0  0.36670  0.83486  0.45687  1.0000
  Fe  Fe30      1.0  0.64541  0.87299  0.23308  1.0000
  C   C207      1.0  0.70172  0.73367  0.40060  1.0000
  S   S62       1.0  0.43032  0.89194  0.42948  1.0000
  Fe  Fe31      1.0  0.60302  0.96023  0.29620  1.0000
  C   C208      1.0  0.70942  0.02405  0.25187  1.0000
  H   H380      1.0  0.68218  0.01414  0.26384  1.0000
  H   H381      1.0  0.62150  0.70825  0.46504  1.0000
  S   S63       1.0  0.27342  0.62169  0.27226  1.0000
  C   C209      1.0  0.63365  0.72185  0.42952  1.0000
  H   H382      1.0  0.44866  0.72306  0.41740  1.0000
  H   H383      1.0  0.30121  0.75904  0.29195  1.0000
  C   C210      1.0  0.55924  0.92508  0.41230  1.0000
  S   S64       1.0  0.57188  0.91138  0.25622  1.0000
  H   H384      1.0  0.29892  0.70756  0.37423  1.0000
  C   C211      1.0  0.25422  0.81773  0.41830  1.0000
  H   H385      1.0  0.68235  0.96769  0.47141  1.0000
  Fe  Fe32      1.0  0.37663  0.56447  0.47505  1.0000
  Fe  Fe33      1.0  0.37012  0.90248  0.47841  1.0000
  H   H386      1.0  0.73761  0.67176  0.23834  1.0000
  Fe  Fe34      1.0  0.66627  0.55161  0.38159  1.0000
  H   H387      1.0  0.68620  0.89165  0.45291  1.0000
  C   C212      1.0  0.72173  0.89502  0.46287  1.0000
  C   C213      1.0  0.32062  0.63370  0.62412  1.0000
  C   C214      1.0  0.68824  0.74500  0.50594  1.0000
  H   H388      1.0  0.33276  0.71974  0.62547  1.0000
  H   H389      1.0  0.39365  0.87717  0.69528  1.0000
  S   S65       1.0  0.73482  0.77325  0.65341  1.0000
  H   H390      1.0  0.55747  0.62821  0.57117  1.0000
  H   H391      1.0  0.44402  0.97983  0.60627  1.0000
  C   C215      1.0  0.56467  0.00151  0.72357  1.0000
  C   C216      1.0  0.44001  0.62845  0.60836  1.0000
  C   C217      1.0  0.28849  0.90808  0.54938  1.0000
  H   H392      1.0  0.26192  0.96586  0.66871  1.0000
  H   H393      1.0  0.46333  0.03857  0.56885  1.0000
  S   S66       1.0  0.62798  0.00766  0.65648  1.0000
  H   H394      1.0  0.51877  0.68540  0.63602  1.0000
  H   H395      1.0  0.66920  0.01199  0.55562  1.0000
  Fe  Fe35      1.0  0.48212  0.85794  0.51734  1.0000
  C   C218      1.0  0.26987  0.72951  0.66623  1.0000
  C   C219      1.0  0.62656  0.74242  0.65865  1.0000
  H   H396      1.0  0.56922  0.84980  0.69761  1.0000
  C   C220      1.0  0.64259  0.64110  0.68922  1.0000
  H   H397      1.0  0.58589  0.63951  0.51569  1.0000
  H   H398      1.0  0.30683  0.66345  0.59023  1.0000
  C   C221      1.0  0.59504  0.95580  0.49609  1.0000
  H   H399      1.0  0.29291  0.77851  0.63016  1.0000
  H   H400      1.0  0.65734  0.81572  0.53134  1.0000
  S   S67       1.0  0.48706  0.78720  0.50012  1.0000
  Fe  Fe36      1.0  0.67980  0.93891  0.70522  1.0000
  H   H401      1.0  0.70407  0.66193  0.55902  1.0000
  C   C222      1.0  0.56314  0.89985  0.51394  1.0000
  H   H402      1.0  0.41985  0.96791  0.53393  1.0000
  H   H403      1.0  0.52669  0.90875  0.69452  1.0000
  C   C223      1.0  0.41430  0.70446  0.52682  1.0000
  C   C224      1.0  0.45480  0.01658  0.53461  1.0000
  H   H404      1.0  0.25392  0.76871  0.51787  1.0000
  H   H405      1.0  0.25840  0.63713  0.72720  1.0000
  H   H406      1.0  0.34150  0.61435  0.71765  1.0000
  H   H407      1.0  0.35895  0.96033  0.70437  1.0000
  C   C225      1.0  0.55172  0.67019  0.67343  1.0000
  H   H408      1.0  0.56110  0.63235  0.67728  1.0000
  H   H409      1.0  0.45074  0.59892  0.64000  1.0000
  H   H410      1.0  0.73832  0.60835  0.53150  1.0000
  H   H411      1.0  0.66489  0.74149  0.53566  1.0000
  H   H412      1.0  0.59140  0.72978  0.72477  1.0000
  C   C226      1.0  0.43227  0.67190  0.62903  1.0000
  H   H413      1.0  0.61694  0.75336  0.61000  1.0000
  H   H414      1.0  0.29467  0.61705  0.61793  1.0000
  S   S68       1.0  0.42212  0.87455  0.56740  1.0000
  H   H415      1.0  0.66499  0.71580  0.67134  1.0000
  H   H416      1.0  0.43635  0.67598  0.67661  1.0000
  H   H417      1.0  0.70867  0.80325  0.49875  1.0000
  C   C227      1.0  0.26463  0.94915  0.51160  1.0000
  H   H418      1.0  0.36331  0.65427  0.69675  1.0000
  Fe  Fe37      1.0  0.72805  0.83421  0.70599  1.0000
  H   H419      1.0  0.55631  0.70810  0.56860  1.0000
  C   C228      1.0  0.42404  0.99593  0.56018  1.0000
  C   C229      1.0  0.70729  0.64314  0.51794  1.0000
  C   C230      1.0  0.43401  0.62315  0.54690  1.0000
  H   H420      1.0  0.32738  0.88797  0.55471  1.0000
  C   C231      1.0  0.33006  0.64680  0.68907  1.0000
  C   C232      1.0  0.42064  0.70964  0.58836  1.0000
  H   H421      1.0  0.40523  0.73361  0.49546  1.0000
  N   N16       1.0  0.28720  0.68581  0.70687  1.0000
  H   H422      1.0  0.49095  0.98743  0.53404  1.0000
  H   H423      1.0  0.68935  0.04586  0.51415  1.0000
  C   C233      1.0  0.58661  0.92806  0.53602  1.0000
  H   H424      1.0  0.29262  0.71316  0.49564  1.0000
  C   C234      1.0  0.31044  0.74345  0.65455  1.0000
  H   H425      1.0  0.64454  0.60663  0.67673  1.0000
  H   H426      1.0  0.52975  0.04062  0.53075  1.0000
  C   C235      1.0  0.69889  0.02351  0.55576  1.0000
  H   H427      1.0  0.62536  0.77334  0.68235  1.0000
  N   N17       1.0  0.59374  0.67905  0.65928  1.0000
  H   H428      1.0  0.51299  0.72865  0.72340  1.0000
  H   H429      1.0  0.33507  0.74506  0.69643  1.0000
  H   H430      1.0  0.35582  0.60778  0.61481  1.0000
  S   S69       1.0  0.41697  0.76231  0.61522  1.0000
  C   C236      1.0  0.58895  0.72657  0.67598  1.0000
  H   H431      1.0  0.67353  0.64344  0.67281  1.0000
  Fe  Fe38      1.0  0.42227  0.80644  0.54328  1.0000
  H   H432      1.0  0.43455  0.92556  0.68191  1.0000
  S   S70       1.0  0.54732  0.86954  0.56352  1.0000
  H   H433      1.0  0.62430  0.60328  0.58071  1.0000
  H   H434      1.0  0.28111  0.86071  0.60933  1.0000
  C   C237      1.0  0.71499  0.93811  0.49800  1.0000
  H   H435      1.0  0.61115  0.97914  0.51334  1.0000
  S   S71       1.0  0.44587  0.56823  0.52235  1.0000
  C   C238      1.0  0.59024  0.67854  0.59248  1.0000
  C   C239      1.0  0.42027  0.66129  0.50593  1.0000
  H   H436      1.0  0.67398  0.63687  0.50100  1.0000
  H   H437      1.0  0.72653  0.72965  0.53329  1.0000
  H   H438      1.0  0.55153  0.75324  0.65438  1.0000
  H   H439      1.0  0.62163  0.68291  0.57993  1.0000
  H   H440      1.0  0.59645  0.92994  0.58391  1.0000
  H   H441      1.0  0.70404  0.93134  0.53963  1.0000
  C   C240      1.0  0.58944  0.63451  0.56462  1.0000
  C   C241      1.0  0.57211  0.02761  0.68040  1.0000
  H   H442      1.0  0.44086  0.81877  0.71675  1.0000
  H   H443      1.0  0.54910  0.55615  0.53433  1.0000
  C   C242      1.0  0.26210  0.89259  0.58033  1.0000
  H   H444      1.0  0.25892  0.89558  0.70878  1.0000
  H   H445      1.0  0.49228  0.84855  0.69878  1.0000
  H   H446      1.0  0.38739  0.02264  0.56374  1.0000
  Fe  Fe39      1.0  0.27296  0.57648  0.48172  1.0000
  S   S72       1.0  0.65332  0.88410  0.71542  1.0000
  C   C243      1.0  0.54559  0.87580  0.72371  1.0000
  C   C244      1.0  0.43971  0.93506  0.72904  1.0000
  C   C245      1.0  0.25412  0.73921  0.49173  1.0000
  C   C246      1.0  0.67481  0.79732  0.49476  1.0000
  H   H447      1.0  0.69870  0.04541  0.59389  1.0000
  H   H448      1.0  0.94754  0.30124  0.85138  1.0000
  H   H449      1.0  0.99397  0.31431  0.94784  1.0000
  C   C247      1.0  0.14322  0.08677  0.81836  1.0000
  H   H450      1.0  0.17984  0.39163  0.95673  1.0000
  H   H451      1.0  0.98924  0.32490  0.84005  1.0000
  Fe  Fe40      1.0  0.76478  0.44268  0.82775  1.0000
  C   C248      1.0  0.04732  0.43016  0.74840  1.0000
  C   C249      1.0  0.19871  0.31616  0.87608  1.0000
  H   H452      1.0  0.23824  0.44238  0.84697  1.0000
  H   H453      1.0  0.83586  0.51745  0.79346  1.0000
  H   H454      1.0  0.98892  0.46452  0.90733  1.0000
  C   C250      1.0  0.84794  0.53920  0.77098  1.0000
  H   H455      1.0  0.76560  0.30061  0.79524  1.0000
  N   N18       1.0  0.94286  0.08654  0.77487  1.0000
  H   H456      1.0  0.02855  0.44324  0.78463  1.0000
  Fe  Fe41      1.0  0.85796  0.17873  0.96611  1.0000
  S   S73       1.0  0.08835  0.21175  0.80059  1.0000
  C   C251      1.0  0.86367  0.28950  0.89739  1.0000
  H   H457      1.0  0.19731  0.43898  0.94982  1.0000
  S   S74       1.0  0.16632  0.23551  0.74219  1.0000
  C   C252      1.0  0.95473  0.33278  0.85589  1.0000
  S   S75       1.0  0.81103  0.44030  0.76140  1.0000
  H   H458      1.0  0.13817  0.40803  0.84516  1.0000
  H   H459      1.0  0.05094  0.42615  0.90841  1.0000
  H   H460      1.0  0.00687  0.10075  0.80378  1.0000
  H   H461      1.0  0.15152  0.26851  0.95626  1.0000
  C   C253      1.0  0.82813  0.36428  0.93711  1.0000
  S   S76       1.0  0.06888  0.34397  0.79724  1.0000
  H   H462      1.0  0.96497  0.27526  0.73232  1.0000
  S   S77       1.0  0.77846  0.10336  0.80821  1.0000
  S   S78       1.0  0.79477  0.42464  0.92604  1.0000
  Fe  Fe42      1.0  0.16042  0.17171  0.77375  1.0000
  H   H463      1.0  0.91408  0.52331  0.83880  1.0000
  C   C254      1.0  0.96028  0.34337  0.92239  1.0000
  H   H464      1.0  0.82425  0.35438  0.84305  1.0000
  C   C255      1.0  0.19158  0.42349  0.73844  1.0000
  C   C256      1.0  0.96722  0.11661  0.80331  1.0000
  C   C257      1.0  0.83709  0.33775  0.88807  1.0000
  C   C258      1.0  0.20623  0.37977  0.78059  1.0000
  H   H465      1.0  0.95239  0.15039  0.77611  1.0000
  H   H466      1.0  0.92341  0.36126  0.82615  1.0000
  C   C259      1.0  0.19824  0.05766  0.91531  1.0000
  C   C260      1.0  0.24326  0.53920  0.76569  1.0000
  C   C261      1.0  0.16869  0.41847  0.86273  1.0000
  H   H467      1.0  0.17851  0.52514  0.91321  1.0000
  C   C262      1.0  0.01866  0.43092  0.92782  1.0000
  H   H468      1.0  0.08238  0.06838  0.79913  1.0000
  C   C263      1.0  0.96285  0.12826  0.86794  1.0000
  H   H469      1.0  0.13379  0.44923  0.93620  1.0000
  H   H470      1.0  0.17574  0.36872  0.76811  1.0000
  S   S79       1.0  0.87664  0.10388  0.95351  1.0000
  H   H471      1.0  0.88837  0.10211  0.82972  1.0000
  H   H472      1.0  0.87104  0.17959  0.77503  1.0000
  N   N19       1.0  0.21612  0.38546  0.84686  1.0000
  C   C264      1.0  0.18483  0.08353  0.86003  1.0000
  H   H473      1.0  0.13372  0.10490  0.77497  1.0000
  H   H474      1.0  0.87058  0.26901  0.85945  1.0000
  H   H475      1.0  0.99665  0.39180  0.86204  1.0000
  H   H476      1.0  0.07930  0.25264  0.96227  1.0000
  H   H477      1.0  0.77807  0.24401  0.77243  1.0000
  S   S80       1.0  0.76497  0.12635  0.96827  1.0000
  C   C265      1.0  0.06925  0.38252  0.74306  1.0000
  C   C266      1.0  0.89446  0.47418  0.93266  1.0000
  Fe  Fe43      1.0  0.09109  0.27456  0.76076  1.0000
  H   H478      1.0  0.92407  0.14689  0.87209  1.0000
  H   H479      1.0  0.11540  0.53860  0.88723  1.0000
  C   C267      1.0  0.88162  0.26783  0.95576  1.0000
  H   H480      1.0  0.16649  0.33656  0.89562  1.0000
  C   C268      1.0  0.11343  0.06672  0.83253  1.0000
  H   H481      1.0  0.03848  0.35780  0.92770  1.0000
  H   H482      1.0  0.15563  0.45114  0.74254  1.0000
  S   S81       1.0  0.78566  0.20494  0.89988  1.0000
  C   C269      1.0  0.00452  0.39038  0.91184  1.0000
  C   C270      1.0  0.85656  0.15443  0.75655  1.0000
  C   C271      1.0  0.91370  0.42782  0.90353  1.0000
  H   H483      1.0  0.88314  0.41654  0.89561  1.0000
  Fe  Fe44      1.0  0.80134  0.12997  0.89405  1.0000
  C   C272      1.0  0.89038  0.10409  0.78196  1.0000
  H   H484      1.0  0.91549  0.43651  0.85706  1.0000
  H   H485      1.0  0.87313  0.08156  0.76066  1.0000
  H   H486      1.0  0.18554  0.31040  0.82921  1.0000
  H   H487      1.0  0.91701  0.49373  0.93172  1.0000
  C   C273      1.0  0.17075  0.42447  0.93035  1.0000
  H   H488      1.0  0.85587  0.49528  0.90863  1.0000
  H   H489      1.0  0.15625  0.45375  0.84051  1.0000
  S   S82       1.0  0.21721  0.11379  0.84078  1.0000
  H   H490      1.0  0.82098  0.16377  0.76981  1.0000
  H   H491      1.0  0.98213  0.09750  0.90049  1.0000
  H   H492      1.0  0.98092  0.15190  0.88144  1.0000
  N   N20       1.0  0.96200  0.38938  0.93534  1.0000
  H   H493      1.0  0.92920  0.34052  0.93782  1.0000
  H   H494      1.0  0.23117  0.05404  0.94725  1.0000
  H   H495      1.0  0.21966  0.43766  0.74525  1.0000
  S   S83       1.0  0.91346  0.20756  0.96719  1.0000
  C   C274      1.0  0.75910  0.28114  0.75643  1.0000
  H   H496      1.0  0.23857  0.35139  0.76818  1.0000
  C   C275      1.0  0.89175  0.54298  0.79706  1.0000
  H   H497      1.0  0.21728  0.28180  0.90217  1.0000
  C   C276      1.0  0.23556  0.33854  0.88095  1.0000
  H   H498      1.0  0.03035  0.43174  0.97685  1.0000
  Fe  Fe45      1.0  0.75322  0.19987  0.97831  1.0000
  H   H499      1.0  0.89113  0.47009  0.97942  1.0000
  H   H500      1.0  0.16566  0.17510  0.97943  1.0000
  C   C277      1.0  0.84627  0.34255  0.99535  1.0000
  C   C278      1.0  0.75343  0.44554  0.18450  1.0000
  S   S84       1.0  0.21486  0.29386  0.04664  1.0000
  H   H501      1.0  0.80110  0.44979  0.12880  1.0000
  H   H502      1.0  0.13170  0.46968  0.11725  1.0000
  Fe  Fe46      1.0  0.01144  0.26213  0.14937  1.0000
  C   C279      1.0  0.75021  0.23867  0.14784  1.0000
  H   H503      1.0  0.83975  0.36298  0.03321  1.0000
  H   H504      1.0  0.04154  0.14305  0.99622  1.0000
  C   C280      1.0  0.17624  0.15088  0.01993  1.0000
  C   C281      1.0  0.00476  0.48607  0.21667  1.0000
  C   C282      1.0  0.09530  0.26678  0.99940  1.0000
  H   H505      1.0  0.11223  0.06389  0.02958  1.0000
  H   H506      1.0  0.00996  0.36485  0.02310  1.0000
  C   C283      1.0  0.02507  0.39367  0.19752  1.0000
  C   C284      1.0  0.81020  0.34927  0.19356  1.0000
  H   H507      1.0  0.12953  0.52645  0.18232  1.0000
  C   C285      1.0  0.17273  0.45368  0.12499  1.0000
  N   N21       1.0  0.19539  0.46307  0.18580  1.0000
  S   S85       1.0  0.02967  0.25744  0.05813  1.0000
  H   H508      1.0  0.12096  0.42907  0.19253  1.0000
  H   H509      1.0  0.19821  0.13992  0.16246  1.0000
  H   H510      1.0  0.03306  0.35795  0.19023  1.0000
  C   C286      1.0  0.03982  0.05125  0.18191  1.0000
  C   C287      1.0  0.12373  0.14009  0.13152  1.0000
  H   H511      1.0  0.85040  0.36490  0.13613  1.0000
  Fe  Fe47      1.0  0.92752  0.27606  0.21225  1.0000
  S   S86       1.0  0.82461  0.17994  0.04538  1.0000
  C   C288      1.0  0.10106  0.08916  0.06374  1.0000
  C   C289      1.0  0.07691  0.27379  0.05196  1.0000
  C   C290      1.0  0.87296  0.29434  0.00476  1.0000
  C   C291      1.0  0.15878  0.16190  0.16015  1.0000
  H   H512      1.0  0.89733  0.40090  0.01018  1.0000
  C   C292      1.0  0.15804  0.29215  0.04483  1.0000
  C   C293      1.0  0.85539  0.16371  0.20437  1.0000
  C   C294      1.0  0.13745  0.30226  0.09554  1.0000
  S   S87       1.0  0.01691  0.50622  0.10621  1.0000
  H   H513      1.0  0.79998  0.14812  0.14750  1.0000
  H   H514      1.0  0.15334  0.31646  0.13256  1.0000
  C   C295      1.0  0.04658  0.12292  0.03853  1.0000
  H   H515      1.0  0.19619  0.05036  0.05849  1.0000
  H   H516      1.0  0.15590  0.16714  0.20763  1.0000
  C   C296      1.0  0.79208  0.42702  0.15432  1.0000
  Fe  Fe48      1.0  0.83873  0.10642  0.02899  1.0000
  H   H517      1.0  0.18138  0.46999  0.08855  1.0000
  H   H518      1.0  0.11809  0.12085  0.16790  1.0000
  H   H519      1.0  0.18792  0.16754  0.05881  1.0000
  H   H520      1.0  0.93926  0.39577  0.07992  1.0000
  H   H521      1.0  0.85554  0.19078  0.17419  1.0000
  C   C297      1.0  0.77007  0.36766  0.22145  1.0000
  H   H522      1.0  0.21725  0.08525  0.10483  1.0000
  N   N22       1.0  0.13704  0.11099  0.07995  1.0000
  H   H523      1.0  0.78215  0.24732  0.14918  1.0000
  C   C298      1.0  0.02688  0.42277  0.15295  1.0000
  C   C299      1.0  0.17032  0.51433  0.19242  1.0000
  C   C300      1.0  0.18822  0.07220  0.09655  1.0000
  N   N23       1.0  0.76087  0.20381  0.19921  1.0000
  H   H524      1.0  0.08220  0.29944  0.13909  1.0000
  C   C301      1.0  0.97227  0.39113  0.00242  1.0000
  H   H525      1.0  0.88691  0.27761  0.04997  1.0000
  C   C302      1.0  0.18925  0.40225  0.11251  1.0000
  C   C303      1.0  0.13589  0.27605  0.99577  1.0000
  H   H526      1.0  0.97248  0.42481  0.01504  1.0000
  H   H527      1.0  0.18254  0.38157  0.14570  1.0000
  H   H528      1.0  0.10091  0.06902  0.10321  1.0000
  H   H529      1.0  0.16772  0.40005  0.06818  1.0000
  H   H530      1.0  0.94541  0.34542  0.04069  1.0000
  C   C304      1.0  0.80520  0.16034  0.19295  1.0000
  C   C305      1.0  0.82045  0.37897  0.15905  1.0000
  S   S88       1.0  0.98415  0.21297  0.18271  1.0000
  S   S89       1.0  0.86101  0.05048  0.10266  1.0000
  H   H531      1.0  0.14854  0.19607  0.13639  1.0000
  H   H532      1.0  0.09937  0.17442  0.02078  1.0000
  H   H533      1.0  0.03028  0.14714  0.07142  1.0000
  S   S90       1.0  0.23055  0.24054  0.20915  1.0000
  H   H534      1.0  0.19243  0.53211  0.11059  1.0000
  H   H535      1.0  0.88402  0.13012  0.19586  1.0000
  C   C306      1.0  0.93618  0.38293  0.03464  1.0000
  H   H536      1.0  0.02430  0.10259  0.02749  1.0000
  C   C307      1.0  0.09705  0.29286  0.09922  1.0000
  S   S91       1.0  0.95153  0.32524  0.17286  1.0000
  H   H537      1.0  0.04635  0.08252  0.17452  1.0000
  H   H538      1.0  0.03670  0.40926  0.11155  1.0000
  H   H539      1.0  0.80741  0.54162  0.10831  1.0000
  C   C308      1.0  0.13192  0.14053  0.02502  1.0000
  H   H540      1.0  0.08705  0.16958  0.11719  1.0000
  H   H541      1.0  0.99947  0.06398  0.17829  1.0000
  H   H542      1.0  0.20769  0.11912  0.01282  1.0000
  S   S92       1.0  0.84781  0.28942  0.20367  1.0000
  C   C309      1.0  0.01602  0.46919  0.16218  1.0000
  H   H543      1.0  0.19357  0.05862  0.19327  1.0000
  C   C310      1.0  0.78084  0.04862  0.22192  1.0000
  H   H544      1.0  0.22855  0.38574  0.10969  1.0000
  H   H545      1.0  0.80912  0.05731  0.21058  1.0000
  H   H546      1.0  0.12443  0.12402  0.98324  1.0000
  H   H547      1.0  0.11721  0.52438  0.99987  1.0000
  H   H548      1.0  0.99750  0.52150  0.22470  1.0000
  C   C311      1.0  0.18192  0.54619  0.15265  1.0000
  H   H549      1.0  0.81021  0.13143  0.22459  1.0000
  H   H550      1.0  0.05913  0.53043  0.01250  1.0000
  H   H551      1.0  0.05520  0.48548  0.36361  1.0000
  C   C312      1.0  0.00247  0.13075  0.32685  1.0000
  S   S93       1.0  0.79453  0.48121  0.34443  1.0000
  H   H552      1.0  0.22139  0.27887  0.45653  1.0000
  H   H553      1.0  0.11104  0.07779  0.42866  1.0000
  H   H554      1.0  0.87054  0.18561  0.44629  1.0000
  C   C313      1.0  0.23781  0.13109  0.34717  1.0000
  H   H555      1.0  0.24287  0.23225  0.36699  1.0000
  Fe  Fe49      1.0  0.77051  0.54392  0.39553  1.0000
  C   C314      1.0  0.01296  0.41082  0.25148  1.0000
  S   S94       1.0  0.78942  0.38219  0.43633  1.0000
  S   S95       1.0  0.06512  0.25483  0.23566  1.0000
  C   C315      1.0  0.76565  0.06090  0.27596  1.0000
  S   S96       1.0  0.23230  0.32535  0.33973  1.0000
  N   N24       1.0  0.91928  0.22080  0.46304  1.0000
  H   H556      1.0  0.79652  0.24072  0.25486  1.0000
  H   H557      1.0  0.13150  0.48150  0.35321  1.0000
  C   C316      1.0  0.24531  0.21440  0.41006  1.0000
  H   H558      1.0  0.15246  0.37797  0.45465  1.0000
  H   H559      1.0  0.21232  0.39901  0.23757  1.0000
  H   H560      1.0  0.90210  0.23945  0.33300  1.0000
  H   H561      1.0  0.14791  0.31439  0.37947  1.0000
  H   H562      1.0  0.05654  0.05277  0.27738  1.0000
  H   H563      1.0  0.10980  0.47940  0.23485  1.0000
  C   C317      1.0  0.15503  0.24498  0.40534  1.0000
  H   H564      1.0  0.12269  0.23615  0.39732  1.0000
  H   H565      1.0  0.17462  0.48785  0.41265  1.0000
  C   C318      1.0  0.13532  0.44279  0.23290  1.0000
  H   H566      1.0  0.10372  0.29852  0.33520  1.0000
  H   H567      1.0  0.13494  0.42239  0.27206  1.0000
  C   C319      1.0  0.19568  0.17877  0.35032  1.0000
  C   C320      1.0  0.18853  0.43682  0.23556  1.0000
  H   H568      1.0  0.95676  0.44338  0.42001  1.0000
  S   S97       1.0  0.79068  0.09287  0.32285  1.0000
  H   H569      1.0  0.19167  0.20075  0.31011  1.0000
  H   H570      1.0  0.98474  0.15728  0.28977  1.0000
  C   C321      1.0  0.87820  0.25791  0.41857  1.0000
  H   H571      1.0  0.92677  0.15676  0.42284  1.0000
  H   H572      1.0  0.16081  0.17433  0.34271  1.0000
  C   C322      1.0  0.92388  0.45115  0.43951  1.0000
  H   H573      1.0  0.22151  0.40359  0.40954  1.0000
  C   C323      1.0  0.04848  0.06117  0.42198  1.0000
  S   S98       1.0  0.97480  0.26983  0.30357  1.0000
  C   C324      1.0  0.07367  0.08580  0.40510  1.0000
  Fe  Fe50      1.0  0.75377  0.45571  0.39549  1.0000
  C   C325      1.0  0.21209  0.17075  0.46184  1.0000
  H   H574      1.0  0.83811  0.27489  0.32641  1.0000
  C   C326      1.0  0.87023  0.24516  0.35336  1.0000
  C   C327      1.0  0.13462  0.50269  0.39135  1.0000
  C   C328      1.0  0.05358  0.50864  0.40050  1.0000
  C   C329      1.0  0.00290  0.45698  0.26108  1.0000
  H   H575      1.0  0.86723  0.16977  0.25152  1.0000
  N   N25       1.0  0.10463  0.49939  0.43503  1.0000
  C   C330      1.0  0.97761  0.10575  0.34321  1.0000
  H   H576      1.0  0.22855  0.11766  0.30361  1.0000
  C   C331      1.0  0.14319  0.28481  0.35771  1.0000
  H   H577      1.0  0.15564  0.25951  0.44974  1.0000
  H   H578      1.0  0.89340  0.48260  0.41375  1.0000
  S   S99       1.0  0.75653  0.18580  0.43704  1.0000
  C   C332      1.0  0.05087  0.12009  0.35700  1.0000
  H   H579      1.0  0.20076  0.44745  0.28009  1.0000
  H   H580      1.0  0.98362  0.50787  0.40647  1.0000
  H   H581      1.0  0.94073  0.11293  0.31866  1.0000
  H   H582      1.0  0.13980  0.41188  0.38642  1.0000
  Fe  Fe51      1.0  0.03324  0.21074  0.27099  1.0000
  H   H583      1.0  0.99242  0.47051  0.30218  1.0000
  C   C333      1.0  0.91075  0.17704  0.45907  1.0000
  C   C334      1.0  0.01801  0.50467  0.43766  1.0000
  C   C335      1.0  0.12962  0.45139  0.46714  1.0000
  S   S100      1.0  0.08405  0.14726  0.33212  1.0000
  H   H584      1.0  0.17322  0.12727  0.42707  1.0000
  H   H585      1.0  0.08995  0.41253  0.41847  1.0000
  C   C336      1.0  0.12745  0.41174  0.42884  1.0000
  H   H586      1.0  0.86185  0.21444  0.34918  1.0000
  H   H587      1.0  0.79685  0.19170  0.29331  1.0000
  H   H588      1.0  0.18054  0.52145  0.23977  1.0000
  C   C337      1.0  0.00079  0.07065  0.39023  1.0000
  C   C338      1.0  0.77384  0.22140  0.25874  1.0000
  Fe  Fe52      1.0  0.00284  0.31450  0.26184  1.0000
  H   H589      1.0  0.84244  0.26824  0.43262  1.0000
  H   H590      1.0  0.91301  0.42217  0.43093  1.0000
  S   S101      1.0  0.00972  0.37496  0.30678  1.0000
  H   H591      1.0  0.16436  0.27514  0.32190  1.0000
  H   H592      1.0  0.96983  0.24701  0.44077  1.0000
  N   N26       1.0  0.20205  0.20225  0.40688  1.0000
  H   H593      1.0  0.96952  0.19879  0.40251  1.0000
  C   C339      1.0  0.17427  0.15033  0.46333  1.0000
  C   C340      1.0  0.96739  0.21336  0.44665  1.0000
  H   H594      1.0  0.88427  0.29004  0.41641  1.0000
  H   H595      1.0  0.76191  0.34497  0.24832  1.0000
  H   H596      1.0  0.13669  0.17766  0.46148  1.0000
  H   H597      1.0  0.24258  0.10495  0.38268  1.0000
  H   H598      1.0  0.03325  0.47104  0.46481  1.0000
  C   C341      1.0  0.74977  0.32239  0.45724  1.0000
  H   H599      1.0  0.00690  0.53332  0.46726  1.0000
  H   H600      1.0  0.04710  0.17984  0.47379  1.0000
  H   H601      1.0  0.03509  0.54396  0.37762  1.0000
  H   H602      1.0  0.85567  0.43461  0.62506  1.0000
  H   H603      1.0  0.94516  0.21197  0.55984  1.0000
  H   H604      1.0  0.18737  0.41416  0.69130  1.0000
  C   C342      1.0  0.83877  0.04910  0.66068  1.0000
  C   C343      1.0  0.83182  0.07970  0.61246  1.0000
  S   S102      1.0  0.78757  0.35417  0.64056  1.0000
  C   C344      1.0  0.94209  0.08850  0.70856  1.0000
  H   H605      1.0  0.14832  0.33128  0.53801  1.0000
  C   C345      1.0  0.93223  0.27205  0.70853  1.0000
  H   H606      1.0  0.90463  0.15709  0.54813  1.0000
  N   N27       1.0  0.92288  0.43283  0.54974  1.0000
  C   C346      1.0  0.07493  0.44436  0.66071  1.0000
  H   H607      1.0  0.07875  0.53229  0.51239  1.0000
  H   H608      1.0  0.81661  0.26140  0.61660  1.0000
  H   H609      1.0  0.10901  0.32927  0.69041  1.0000
  H   H610      1.0  0.88970  0.31361  0.50791  1.0000
  H   H611      1.0  0.86269  0.38772  0.57681  1.0000
  H   H612      1.0  0.93165  0.49417  0.67703  1.0000
  H   H613      1.0  0.84788  0.48634  0.53451  1.0000
  H   H614      1.0  0.92865  0.37099  0.50432  1.0000
  S   S103      1.0  0.78857  0.13750  0.60817  1.0000
  C   C347      1.0  0.94794  0.38138  0.54440  1.0000
  H   H615      1.0  0.01703  0.08330  0.71054  1.0000
  C   C348      1.0  0.84459  0.30691  0.66398  1.0000
  C   C349      1.0  0.99277  0.06650  0.69098  1.0000
  H   H616      1.0  0.92247  0.29049  0.58207  1.0000
  H   H617      1.0  0.89616  0.19356  0.63814  1.0000
  H   H618      1.0  0.21064  0.36052  0.58268  1.0000
  C   C350      1.0  0.22986  0.23607  0.63019  1.0000
  C   C351      1.0  0.88619  0.31065  0.69804  1.0000
  H   H619      1.0  0.88339  0.34365  0.71360  1.0000
  H   H620      1.0  0.87492  0.50211  0.62834  1.0000
  C   C352      1.0  0.21653  0.32549  0.59507  1.0000
  H   H621      1.0  0.75579  0.24402  0.65311  1.0000
  H   H622      1.0  0.11473  0.38381  0.61861  1.0000
  H   H623      1.0  0.77631  0.28862  0.72178  1.0000
  C   C353      1.0  0.00299  0.36200  0.54186  1.0000
  C   C354      1.0  0.94082  0.44204  0.61289  1.0000
  H   H624      1.0  0.91974  0.07107  0.68463  1.0000
  H   H625      1.0  0.98072  0.43419  0.62108  1.0000
  C   C355      1.0  0.91461  0.49201  0.62999  1.0000
  S   S104      1.0  0.05033  0.27061  0.66952  1.0000
  H   H626      1.0  0.94582  0.36157  0.58309  1.0000
  H   H627      1.0  0.01793  0.19324  0.53611  1.0000
  H   H628      1.0  0.17605  0.53196  0.49197  1.0000
  H   H629      1.0  0.95673  0.28191  0.52497  1.0000
  H   H630      1.0  0.11425  0.44963  0.50686  1.0000
  H   H631      1.0  0.85512  0.43980  0.48958  1.0000
  C   C356      1.0  0.93584  0.22980  0.68641  1.0000
  H   H632      1.0  0.01806  0.32366  0.54192  1.0000
  C   C357      1.0  0.86781  0.44798  0.53560  1.0000
  H   H633      1.0  0.88040  0.24286  0.53452  1.0000
  H   H634      1.0  0.23467  0.20179  0.64475  1.0000
  S   S105      1.0  0.12614  0.16083  0.68150  1.0000
  H   H635      1.0  0.16933  0.44221  0.48600  1.0000
  H   H636      1.0  0.98697  0.07158  0.64144  1.0000
  C   C358      1.0  0.18142  0.30895  0.56967  1.0000
  Fe  Fe53      1.0  0.05451  0.20405  0.70733  1.0000
  C   C359      1.0  0.84806  0.42588  0.57818  1.0000
  C   C360      1.0  0.04963  0.46106  0.70681  1.0000
  C   C361      1.0  0.15016  0.53064  0.51905  1.0000
  H   H637      1.0  0.91895  0.51774  0.60183  1.0000
  H   H638      1.0  0.18510  0.12891  0.50648  1.0000
  H   H639      1.0  0.16812  0.49867  0.55021  1.0000
  H   H640      1.0  0.92850  0.10984  0.50389  1.0000
  H   H641      1.0  0.03190  0.49775  0.71064  1.0000
  H   H642      1.0  0.92427  0.12470  0.68832  1.0000
  C   C362      1.0  0.01483  0.18093  0.49058  1.0000
  H   H643      1.0  0.00857  0.37490  0.50012  1.0000
  Fe  Fe54      1.0  0.12523  0.22820  0.65227  1.0000
  H   H644      1.0  0.84883  0.15835  0.70693  1.0000
  H   H645      1.0  0.77837  0.30995  0.49782  1.0000
  H   H646      1.0  0.01819  0.14497  0.49275  1.0000
  C   C363      1.0  0.09230  0.36597  0.69513  1.0000
  S   S106      1.0  0.99235  0.18255  0.68849  1.0000
  C   C364      1.0  0.84833  0.26431  0.64370  1.0000
  H   H647      1.0  0.93820  0.41843  0.64660  1.0000
  H   H648      1.0  0.81629  0.06092  0.69363  1.0000
  C   C365      1.0  0.09547  0.39686  0.65433  1.0000
  H   H649      1.0  0.02514  0.36976  0.58136  1.0000
  H   H650      1.0  0.21322  0.18940  0.50297  1.0000
  C   C366      1.0  0.18744  0.26481  0.58880  1.0000
  S   S107      1.0  0.14049  0.24647  0.56623  1.0000
  H   H651      1.0  0.91462  0.49777  0.50902  1.0000
  C   C367      1.0  0.91645  0.23783  0.52442  1.0000
  C   C368      1.0  0.92175  0.28364  0.53429  1.0000
  S   S108      1.0  0.08408  0.48184  0.61328  1.0000
  C   C369      1.0  0.92943  0.14338  0.51630  1.0000
  H   H652      1.0  0.80733  0.43952  0.56322  1.0000
  H   H653      1.0  0.96755  0.13575  0.53986  1.0000
  C   C370      1.0  0.93520  0.45990  0.50657  1.0000
  H   H654      1.0  0.97464  0.45398  0.51972  1.0000
  Fe  Fe55      1.0  0.76602  0.40937  0.70317  1.0000
  C   C371      1.0  0.89350  0.22568  0.65616  1.0000
  H   H655      1.0  0.85471  0.08762  0.53124  1.0000
  C   C372      1.0  0.86029  0.06419  0.56905  1.0000
  C   C373      1.0  0.10072  0.53471  0.48032  1.0000
  C   C374      1.0  0.00966  0.90177  0.79616  1.0000
  S   S109      1.0  0.09231  0.90586  0.95831  1.0000
  C   C375      1.0  0.18258  0.92834  0.76371  1.0000
  C   C376      1.0  0.97140  0.03630  0.79938  1.0000
  H   H656      1.0  0.80437  0.88218  0.96419  1.0000
  N   N28       1.0  0.23496  0.92051  0.79037  1.0000
  H   H657      1.0  0.02808  0.74822  0.77024  1.0000
  S   S110      1.0  0.19694  0.80583  0.90079  1.0000
  C   C377      1.0  0.81325  0.60351  0.91528  1.0000
  C   C378      1.0  0.17970  0.61233  0.78333  1.0000
  C   C379      1.0  0.83427  0.94637  0.82741  1.0000
  C   C380      1.0  0.85362  0.96820  0.87187  1.0000
  C   C381      1.0  0.05170  0.64612  0.88425  1.0000
  H   H658      1.0  0.01611  0.60830  0.96427  1.0000
  H   H659      1.0  0.96504  0.01305  0.76518  1.0000
  H   H660      1.0  0.07222  0.83872  0.78737  1.0000
  S   S111      1.0  0.11990  0.65629  0.76654  1.0000
  C   C382      1.0  0.92914  0.80992  0.74592  1.0000
  N   N29       1.0  0.79997  0.65119  0.88679  1.0000
  H   H661      1.0  0.98745  0.98520  0.87288  1.0000
  H   H662      1.0  0.22114  0.83446  0.78787  1.0000
  H   H663      1.0  0.02961  0.92255  0.78689  1.0000
  C   C383      1.0  0.16779  0.03774  0.92979  1.0000
  H   H664      1.0  0.17230  0.89874  0.84490  1.0000
  H   H665      1.0  0.20280  0.69467  0.77327  1.0000
  C   C384      1.0  0.80151  0.04286  0.81586  1.0000
  C   C385      1.0  0.15136  0.92657  0.80838  1.0000
  H   H666      1.0  0.98248  0.70048  0.83610  1.0000
  C   C386      1.0  0.23808  0.71237  0.92721  1.0000
  H   H667      1.0  0.92305  0.01876  0.84433  1.0000
  H   H668      1.0  0.98867  0.69995  0.91556  1.0000
  H   H669      1.0  0.20003  0.64430  0.86084  1.0000
  H   H670      1.0  0.83846  0.57647  0.89150  1.0000
  C   C387      1.0  0.23381  0.95794  0.83143  1.0000
  C   C388      1.0  0.24711  0.67218  0.96172  1.0000
  H   H671      1.0  0.77253  0.02102  0.94750  1.0000
  C   C389      1.0  0.21207  0.61521  0.83397  1.0000
  H   H672      1.0  0.97026  0.92219  0.77475  1.0000
  N   N30       1.0  0.07779  0.61850  0.94402  1.0000
  H   H673      1.0  0.97469  0.65639  0.87507  1.0000
  C   C390      1.0  0.83663  0.01659  0.86650  1.0000
  H   H674      1.0  0.14244  0.56974  0.85289  1.0000
  S   S112      1.0  0.07150  0.56117  0.74273  1.0000
  Fe  Fe56      1.0  0.11700  0.96311  0.96928  1.0000
  H   H675      1.0  0.99926  0.78553  0.85265  1.0000
  H   H676      1.0  0.78195  0.62199  0.80440  1.0000
  C   C391      1.0  0.20419  0.75525  0.93886  1.0000
  H   H677      1.0  0.84002  0.68951  0.86391  1.0000
  C   C392      1.0  0.06282  0.79807  0.88737  1.0000
  H   H678      1.0  0.08963  0.76389  0.87786  1.0000
  H   H679      1.0  0.12089  0.91802  0.78487  1.0000
  N   N31       1.0  0.00951  0.82127  0.77949  1.0000
  C   C393      1.0  0.78312  0.02078  0.77091  1.0000
  H   H680      1.0  0.01402  0.89817  0.84547  1.0000
  C   C394      1.0  0.76888  0.65572  0.82459  1.0000
  H   H681      1.0  0.78459  0.95600  0.74212  1.0000
  H   H682      1.0  0.86513  0.63054  0.85006  1.0000
  H   H683      1.0  0.21958  0.95386  0.87123  1.0000
  C   C395      1.0  0.14203  0.55433  0.89613  1.0000
  H   H684      1.0  0.07877  0.76291  0.77760  1.0000
  H   H685      1.0  0.98520  0.84450  0.86195  1.0000
  C   C396      1.0  0.03157  0.85461  0.76966  1.0000
  C   C397      1.0  0.01156  0.81312  0.84523  1.0000
  H   H686      1.0  0.92649  0.80118  0.79168  1.0000
  H   H687      1.0  0.14819  0.61429  0.93170  1.0000
  C   C398      1.0  0.03879  0.77567  0.75675  1.0000
  C   C399      1.0  0.95927  0.02062  0.85568  1.0000
  C   C400      1.0  0.76753  0.69065  0.77673  1.0000
  H   H688      1.0  0.07830  0.82394  0.88592  1.0000
  H   H689      1.0  0.80450  0.68339  0.76826  1.0000
  H   H690      1.0  0.85049  0.03352  0.90169  1.0000
  H   H691      1.0  0.93420  0.87363  0.76615  1.0000
  C   C401      1.0  0.95626  0.84166  0.74640  1.0000
  S   S113      1.0  0.84912  0.88709  0.83639  1.0000
  C   C402      1.0  0.99631  0.67744  0.87829  1.0000
  Fe  Fe57      1.0  0.99005  0.59900  0.73329  1.0000
  S   S114      1.0  0.95875  0.58030  0.80485  1.0000
  H   H692      1.0  0.75386  0.75124  0.87282  1.0000
  H   H693      1.0  0.20728  0.99269  0.80928  1.0000
  H   H694      1.0  0.07018  0.66785  0.87295  1.0000
  S   S115      1.0  0.08075  0.02679  0.90742  1.0000
  H   H695      1.0  0.78300  0.55749  0.94347  1.0000
  S   S116      1.0  0.76053  0.82417  0.80493  1.0000
  C   C403      1.0  0.13137  0.59094  0.94248  1.0000
  H   H696      1.0  0.78675  0.67425  0.97390  1.0000
  Fe  Fe58      1.0  0.78023  0.88256  0.78713  1.0000
  C   C404      1.0  0.84718  0.65445  0.88242  1.0000
  C   C405      1.0  0.19505  0.57425  0.74911  1.0000
  H   H697      1.0  0.05925  0.79456  0.93443  1.0000
  C   C406      1.0  0.05327  0.58750  0.95500  1.0000
  H   H698      1.0  0.83390  0.59873  0.96262  1.0000
  C   C407      1.0  0.79931  0.97269  0.77681  1.0000
  H   H699      1.0  0.05652  0.71801  0.95028  1.0000
  C   C408      1.0  0.90645  0.57260  0.76930  1.0000
  H   H700      1.0  0.88051  0.94799  0.91122  1.0000
  H   H701      1.0  0.13562  0.96025  0.82783  1.0000
  H   H702      1.0  0.05420  0.62266  0.84748  1.0000
  H   H703      1.0  0.80575  0.73574  0.93533  1.0000
  C   C409      1.0  0.88608  0.64300  0.94151  1.0000
  H   H704      1.0  0.86988  0.66058  0.97902  1.0000
  C   C410      1.0  0.77137  0.68636  0.92553  1.0000
  H   H705      1.0  0.01170  0.02651  0.80849  1.0000
  H   H706      1.0  0.91461  0.65480  0.93550  1.0000
  H   H707      1.0  0.75743  0.84058  0.93372  1.0000
  C   C411      1.0  0.76917  0.73533  0.91904  1.0000
  C   C412      1.0  0.76928  0.59138  0.91698  1.0000
  H   H708      1.0  0.04542  0.57029  0.91419  1.0000
  H   H709      1.0  0.75591  0.04092  0.73171  1.0000
  C   C413      1.0  0.12406  0.04433  0.88921  1.0000
  H   H710      1.0  0.95940  0.04283  0.89279  1.0000
  H   H711      1.0  0.90530  0.60502  0.95370  1.0000
  Fe  Fe59      1.0  0.17183  0.85999  0.96428  1.0000
  S   S117      1.0  0.19493  0.91786  0.96764  1.0000
  H   H712      1.0  0.17734  0.01842  0.97266  1.0000
  H   H713      1.0  0.75116  0.58743  0.87145  1.0000
  H   H714      1.0  0.12186  0.68134  0.96985  1.0000
  H   H715      1.0  0.16171  0.96308  0.73848  1.0000
  H   H716      1.0  0.18074  0.90402  0.72945  1.0000
  H   H717      1.0  0.05112  0.02880  0.14540  1.0000
  H   H718      1.0  0.87103  0.80524  0.98681  1.0000
  H   H719      1.0  0.06988  0.95601  0.17493  1.0000
  H   H720      1.0  0.75777  0.57380  0.19770  1.0000
  H   H721      1.0  0.08713  0.56528  0.05080  1.0000
  C   C414      1.0  0.84552  0.93497  0.03279  1.0000
  H   H722      1.0  0.79529  0.64187  0.13165  1.0000
  H   H723      1.0  0.83151  0.93503  0.98422  1.0000
  Fe  Fe60      1.0  0.20617  0.90892  0.06696  1.0000
  H   H724      1.0  0.85233  0.56385  0.10884  1.0000
  C   C415      1.0  0.19195  0.67641  0.19081  1.0000
  H   H725      1.0  0.83772  0.91990  0.11948  1.0000
  H   H726      1.0  0.78263  0.85885  0.19761  1.0000
  C   C416      1.0  0.08852  0.94535  0.22269  1.0000
  C   C417      1.0  0.77974  0.61807  0.11013  1.0000
  C   C418      1.0  0.78716  0.73927  0.12223  1.0000
  H   H727      1.0  0.76987  0.01764  0.13936  1.0000
  H   H728      1.0  0.14875  0.57954  0.13959  1.0000
  H   H729      1.0  0.08907  0.70839  0.02636  1.0000
  C   C419      1.0  0.14195  0.69517  0.16300  1.0000
  C   C420      1.0  0.75887  0.02588  0.18177  1.0000
  H   H730      1.0  0.79731  0.80606  0.00103  1.0000
  S   S118      1.0  0.96537  0.64126  0.07683  1.0000
  C   C421      1.0  0.18751  0.71798  0.01848  1.0000
  C   C422      1.0  0.99532  0.96813  0.07081  1.0000
  H   H731      1.0  0.79809  0.90554  0.18377  1.0000
  S   S119      1.0  0.23214  0.62569  0.05185  1.0000
  H   H732      1.0  0.89259  0.85011  0.99852  1.0000
  S   S120      1.0  0.04972  0.70100  0.13893  1.0000
  S   S121      1.0  0.19005  0.84647  0.06441  1.0000
  S   S122      1.0  0.91800  0.60618  0.17366  1.0000
  H   H733      1.0  0.03821  0.66343  0.00645  1.0000
  C   C423      1.0  0.91721  0.00323  0.10217  1.0000
  C   C424      1.0  0.80534  0.72305  0.18292  1.0000
  Fe  Fe61      1.0  0.11151  0.89704  0.05874  1.0000
  Fe  Fe62      1.0  0.00498  0.66372  0.15515  1.0000
  C   C425      1.0  0.86280  0.83516  0.07378  1.0000
  Fe  Fe63      1.0  0.90030  0.67184  0.11978  1.0000
  S   S123      1.0  0.93820  0.69952  0.19320  1.0000
  C   C426      1.0  0.07511  0.64960  0.99470  1.0000
  C   C427      1.0  0.08643  0.69153  0.98391  1.0000
  C   C428      1.0  0.14450  0.92625  0.22708  1.0000
  C   C429      1.0  0.77527  0.74060  0.22433  1.0000
  H   H734      1.0  0.98270  0.89125  0.16179  1.0000
  C   C430      1.0  0.97357  0.92324  0.13575  1.0000
  H   H735      1.0  0.12803  0.72124  0.12572  1.0000
  N   N32       1.0  0.81281  0.87606  0.06144  1.0000
  H   H736      1.0  0.84236  0.69656  0.19792  1.0000
  H   H737      1.0  0.90341  0.95914  0.16052  1.0000
  H   H738      1.0  0.78052  0.95019  0.06825  1.0000
  C   C431      1.0  0.19871  0.03963  0.15248  1.0000
  H   H739      1.0  0.99428  0.99856  0.20586  1.0000
  C   C432      1.0  0.95061  0.00647  0.07024  1.0000
  H   H740      1.0  0.02115  0.97098  0.04646  1.0000
  H   H741      1.0  0.21664  0.68696  0.17337  1.0000
  H   H742      1.0  0.84075  0.97098  0.04065  1.0000
  C   C433      1.0  0.22162  0.67492  0.00724  1.0000
  H   H743      1.0  0.15338  0.90852  0.18615  1.0000
  C   C434      1.0  0.76772  0.84055  0.98314  1.0000
  C   C435      1.0  0.08141  0.54993  0.00780  1.0000
  C   C436      1.0  0.81978  0.56803  0.12724  1.0000
  C   C437      1.0  0.78293  0.87030  0.10384  1.0000
  H   H744      1.0  0.21093  0.55570  0.17854  1.0000
  S   S124      1.0  0.82396  0.71678  0.06999  1.0000
  H   H745      1.0  0.16819  0.72041  0.05394  1.0000
  C   C438      1.0  0.00693  0.92657  0.10384  1.0000
  H   H746      1.0  0.23794  0.01403  0.16111  1.0000
  H   H747      1.0  0.94257  0.03883  0.04632  1.0000
  H   H748      1.0  0.15794  0.95371  0.22779  1.0000
  S   S125      1.0  0.03181  0.59735  0.21192  1.0000
  H   H749      1.0  0.83285  0.56036  0.17661  1.0000
  C   C439      1.0  0.17845  0.75806  0.98404  1.0000
  H   H750      1.0  0.77951  0.83692  0.09900  1.0000
  H   H751      1.0  0.92748  0.79434  0.03830  1.0000
  C   C440      1.0  0.92888  0.96162  0.13519  1.0000
  H   H752      1.0  0.10134  0.62975  0.03668  1.0000
  C   C441      1.0  0.81771  0.92092  0.07275  1.0000
  H   H753      1.0  0.86035  0.80326  0.08988  1.0000
  H   H754      1.0  0.88575  0.91299  0.04541  1.0000
  C   C442      1.0  0.78379  0.88008  0.99832  1.0000
  S   S126      1.0  0.12913  0.95918  0.06920  1.0000
  H   H755      1.0  0.84299  0.84588  0.18540  1.0000
  H   H756      1.0  0.17640  0.01926  0.14583  1.0000
  C   C443      1.0  0.88935  0.82110  0.02093  1.0000
  H   H757      1.0  0.77558  0.62511  0.06118  1.0000
  C   C444      1.0  0.11010  0.67967  0.18220  1.0000
  H   H758      1.0  0.74948  0.91294  0.98948  1.0000
  S   S127      1.0  0.06478  0.87997  0.11021  1.0000
  H   H759      1.0  0.15140  0.79113  0.99240  1.0000
  H   H760      1.0  0.15413  0.57399  0.98750  1.0000
  Fe  Fe64      1.0  0.98673  0.57742  0.13689  1.0000
  C   C445      1.0  0.80354  0.87019  0.17136  1.0000
  H   H761      1.0  0.88861  0.84127  0.11110  1.0000
  C   C446      1.0  0.13562  0.71905  0.41593  1.0000
  H   H762      1.0  0.84584  0.55935  0.33213  1.0000
  H   H763      1.0  0.00191  0.79307  0.31340  1.0000
  C   C447      1.0  0.20773  0.85456  0.43543  1.0000
  C   C448      1.0  0.13824  0.97400  0.35290  1.0000
  H   H764      1.0  0.22507  0.72352  0.40530  1.0000
  H   H765      1.0  0.76114  0.74785  0.37921  1.0000
  C   C449      1.0  0.21005  0.64375  0.24033  1.0000
  S   S128      1.0  0.96957  0.03790  0.40479  1.0000
  C   C450      1.0  0.21437  0.79399  0.32837  1.0000
  H   H766      1.0  0.01101  0.95235  0.33197  1.0000
  H   H767      1.0  0.79838  0.91398  0.41527  1.0000
  C   C451      1.0  0.00746  0.75638  0.31676  1.0000
  H   H768      1.0  0.18755  0.77842  0.42564  1.0000
  H   H769      1.0  0.07977  0.57067  0.45842  1.0000
  H   H770      1.0  0.01468  0.74268  0.27305  1.0000
  N   N33       1.0  0.06643  0.98292  0.26227  1.0000
  H   H771      1.0  0.89606  0.76332  0.43839  1.0000
  C   C452      1.0  0.88486  0.60912  0.45136  1.0000
  H   H772      1.0  0.99242  0.02627  0.27374  1.0000
  H   H773      1.0  0.76666  0.73927  0.45836  1.0000
  H   H774      1.0  0.17664  0.87007  0.39635  1.0000
  H   H775      1.0  0.13054  0.72716  0.36837  1.0000
  H   H776      1.0  0.16508  0.90059  0.26652  1.0000
  H   H777      1.0  0.01674  0.92199  0.26460  1.0000
  S   S129      1.0  0.96338  0.63060  0.34256  1.0000
  H   H778      1.0  0.78155  0.69064  0.41279  1.0000
  N   N34       1.0  0.94712  0.76752  0.38701  1.0000
  C   C453      1.0  0.20587  0.75652  0.29052  1.0000
  H   H779      1.0  0.04096  0.73596  0.35113  1.0000
  H   H780      1.0  0.99184  0.67515  0.45239  1.0000
  C   C454      1.0  0.06970  0.02703  0.24462  1.0000
  C   C455      1.0  0.01237  0.99328  0.25428  1.0000
  N   N35       1.0  0.24858  0.77706  0.38917  1.0000
  H   H781      1.0  0.86325  0.76369  0.30116  1.0000
  H   H782      1.0  0.96813  0.71466  0.32494  1.0000
  C   C456      1.0  0.22662  0.75485  0.42582  1.0000
  H   H783      1.0  0.96322  0.82780  0.38584  1.0000
  H   H784      1.0  0.14188  0.54935  0.32805  1.0000
  C   C457      1.0  0.96170  0.75142  0.32867  1.0000
  H   H785      1.0  0.16924  0.95433  0.33146  1.0000
  H   H786      1.0  0.15069  0.96143  0.40118  1.0000
  C   C458      1.0  0.17765  0.62998  0.26213  1.0000
  C   C459      1.0  0.93123  0.81923  0.38540  1.0000
  H   H787      1.0  0.95957  0.96770  0.27094  1.0000
  C   C460      1.0  0.77498  0.95138  0.40575  1.0000
  C   C461      1.0  0.90581  0.75484  0.39411  1.0000
  C   C462      1.0  0.75590  0.72738  0.41434  1.0000
  C   C463      1.0  0.98956  0.74482  0.44000  1.0000
  H   H788      1.0  0.18734  0.64822  0.41472  1.0000
  H   H789      1.0  0.06499  0.98646  0.35648  1.0000
  H   H790      1.0  0.09926  0.93010  0.33692  1.0000
  C   C464      1.0  0.00021  0.95621  0.28229  1.0000
  C   C465      1.0  0.11078  0.75342  0.45114  1.0000
  H   H791      1.0  0.82977  0.76705  0.35791  1.0000
  H   H792      1.0  0.17584  0.74917  0.30214  1.0000
  H   H793      1.0  0.08187  0.91457  0.23258  1.0000
  H   H794      1.0  0.01775  0.75848  0.44119  1.0000
  Fe  Fe65      1.0  0.96147  0.63120  0.24435  1.0000
  H   H795      1.0  0.93690  0.63889  0.45483  1.0000
  H   H796      1.0  0.93123  0.77103  0.28991  1.0000
  H   H797      1.0  0.90178  0.58335  0.28911  1.0000
  C   C466      1.0  0.92234  0.61353  0.36868  1.0000
  H   H798      1.0  0.23914  0.72352  0.29523  1.0000
  S   S130      1.0  0.08593  0.91741  0.46278  1.0000
  C   C467      1.0  0.85865  0.58722  0.41675  1.0000
  H   H799      1.0  0.19121  0.60527  0.30087  1.0000
  C   C468      1.0  0.91670  0.62209  0.42750  1.0000
  H   H800      1.0  0.19542  0.76877  0.24213  1.0000
  C   C469      1.0  0.01622  0.69145  0.44441  1.0000
  H   H801      1.0  0.19577  0.84091  0.47097  1.0000
  H   H802      1.0  0.03166  0.67809  0.40464  1.0000
  C   C470      1.0  0.86488  0.57763  0.35826  1.0000
  H   H803      1.0  0.79672  0.96548  0.38493  1.0000
  H   H804      1.0  0.10287  0.63642  0.24868  1.0000
  H   H805      1.0  0.91764  0.71679  0.39422  1.0000
  H   H806      1.0  0.22561  0.81513  0.30092  1.0000
  C   C471      1.0  0.09083  0.96728  0.32751  1.0000
  H   H807      1.0  0.78927  0.72771  0.27118  1.0000
  C   C472      1.0  0.12095  0.55192  0.36359  1.0000
  H   H808      1.0  0.90455  0.83698  0.34280  1.0000
  S   S131      1.0  0.07179  0.80919  0.41594  1.0000
  C   C473      1.0  0.89657  0.59112  0.33398  1.0000
  H   H809      1.0  0.84212  0.81535  0.34149  1.0000
  C   C474      1.0  0.85784  0.77700  0.34544  1.0000
  H   H810      1.0  0.08129  0.57034  0.34246  1.0000
  H   H811      1.0  0.17687  0.81851  0.33304  1.0000
  C   C475      1.0  0.90811  0.84310  0.43774  1.0000
  H   H812      1.0  0.21651  0.88321  0.45381  1.0000
  C   C476      1.0  0.16771  0.67431  0.44210  1.0000
  H   H813      1.0  0.13159  0.01101  0.35090  1.0000
  H   H814      1.0  0.89952  0.88059  0.43247  1.0000
  H   H815      1.0  0.87303  0.84046  0.43787  1.0000
  H   H816      1.0  0.76704  0.61771  0.28183  1.0000
  H   H817      1.0  0.13125  0.57348  0.39714  1.0000
  S   S132      1.0  0.81914  0.57294  0.45025  1.0000
  H   H818      1.0  0.19497  0.00669  0.47580  1.0000
  Fe  Fe66      1.0  0.05264  0.86808  0.47515  1.0000
  H   H819      1.0  0.06631  0.03415  0.45850  1.0000
  C   C477      1.0  0.76145  0.63454  0.23684  1.0000
  S   S133      1.0  0.97756  0.92510  0.47192  1.0000
  Fe  Fe67      1.0  0.01296  0.97411  0.46816  1.0000
  C   C478      1.0  0.76153  0.97733  0.46140  1.0000
  C   C479      1.0  0.12768  0.64751  0.23250  1.0000
  H   H820      1.0  0.78759  0.99363  0.47556  1.0000
  H   H821      1.0  0.10831  0.02161  0.24660  1.0000
  H   H822      1.0  0.79819  0.63017  0.23059  1.0000
  C   C480      1.0  0.14748  0.69702  0.53812  1.0000
  C   C481      1.0  0.75007  0.98219  0.56445  1.0000
  S   S134      1.0  0.95185  0.93176  0.63483  1.0000
  Fe  Fe68      1.0  0.05330  0.55272  0.64483  1.0000
  C   C482      1.0  0.81357  0.71128  0.61545  1.0000
  H   H823      1.0  0.81260  0.61266  0.64595  1.0000
  H   H824      1.0  0.88068  0.98017  0.70483  1.0000
  C   C483      1.0  0.89721  0.01869  0.57554  1.0000
  H   H825      1.0  0.14735  0.97819  0.52938  1.0000
  H   H826      1.0  0.99731  0.78374  0.66286  1.0000
  S   S135      1.0  0.76131  0.56608  0.68578  1.0000
  Fe  Fe69      1.0  0.10337  0.91395  0.56281  1.0000
  H   H827      1.0  0.88860  0.62130  0.69373  1.0000
  C   C484      1.0  0.03513  0.77605  0.68819  1.0000
  C   C485      1.0  0.24516  0.67173  0.70236  1.0000
  C   C486      1.0  0.79773  0.79153  0.59669  1.0000
  H   H828      1.0  0.85061  0.80335  0.55655  1.0000
  H   H829      1.0  0.01185  0.02860  0.70335  1.0000
  H   H830      1.0  0.02703  0.86282  0.72101  1.0000
  H   H831      1.0  0.24404  0.75996  0.68476  1.0000
  S   S136      1.0  0.92617  0.71272  0.55012  1.0000
  H   H832      1.0  0.80043  0.88943  0.57491  1.0000
  C   C487      1.0  0.21369  0.97486  0.50491  1.0000
  H   H833      1.0  0.85879  0.93521  0.52389  1.0000
  S   S137      1.0  0.05909  0.61751  0.61601  1.0000
  H   H834      1.0  0.91964  0.00714  0.54240  1.0000
  Fe  Fe70      1.0  0.97844  0.65277  0.61603  1.0000
  H   H835      1.0  0.23484  0.72249  0.51294  1.0000
  C   C488      1.0  0.85594  0.69745  0.59192  1.0000
  C   C489      1.0  0.81899  0.56507  0.71693  1.0000
  C   C490      1.0  0.90508  0.98844  0.62488  1.0000
  C   C491      1.0  0.86963  0.73061  0.57139  1.0000
  C   C492      1.0  0.80490  0.90787  0.53665  1.0000
  H   H836      1.0  0.09641  0.76818  0.53934  1.0000
  S   S138      1.0  0.07370  0.86178  0.57542  1.0000
  H   H837      1.0  0.16632  0.70422  0.70001  1.0000
  N   N36       1.0  0.75822  0.95080  0.51378  1.0000
  C   C493      1.0  0.83991  0.77776  0.57231  1.0000
  C   C494      1.0  0.17382  0.66325  0.50328  1.0000
  Fe  Fe71      1.0  0.06924  0.62903  0.71376  1.0000
  S   S139      1.0  0.18065  0.89519  0.61172  1.0000
  H   H838      1.0  0.04786  0.80070  0.67128  1.0000
  H   H839      1.0  0.23103  0.66744  0.65493  1.0000
  C   C495      1.0  0.85178  0.91576  0.55843  1.0000
  S   S140      1.0  0.97181  0.58695  0.63648  1.0000
  H   H840      1.0  0.94603  0.77776  0.72388  1.0000
  H   H841      1.0  0.77484  0.82779  0.59781  1.0000
  H   H842      1.0  0.75538  0.96228  0.60730  1.0000
  H   H843      1.0  0.85019  0.93365  0.60028  1.0000
  H   H844      1.0  0.15119  0.68832  0.58514  1.0000
  C   C496      1.0  0.18678  0.95867  0.53493  1.0000
  H   H845      1.0  0.20099  0.97686  0.67473  1.0000
  H   H846      1.0  0.88420  0.88169  0.56959  1.0000
  H   H847      1.0  0.89066  0.82885  0.71992  1.0000
  Fe  Fe72      1.0  0.00181  0.92350  0.57147  1.0000
  S   S141      1.0  0.03354  0.97540  0.56778  1.0000
  C   C497      1.0  0.21123  0.91751  0.57269  1.0000
  H   H848      1.0  0.81317  0.88242  0.50273  1.0000
  H   H849      1.0  0.05933  0.74102  0.67748  1.0000
  H   H850      1.0  0.80341  0.68569  0.63209  1.0000
  S   S142      1.0  0.75257  0.88946  0.68729  1.0000
  S   S143      1.0  0.98911  0.66801  0.71246  1.0000
  H   H851      1.0  0.95260  0.85309  0.69899  1.0000
  H   H852      1.0  0.75769  0.66298  0.48639  1.0000
  H   H853      1.0  0.74913  0.86257  0.48965  1.0000
  C   C498      1.0  0.87793  0.59768  0.71476  1.0000
  H   H854      1.0  0.77763  0.99734  0.57301  1.0000
  H   H855      1.0  0.16981  0.57184  0.70999  1.0000
  C   C499      1.0  0.87524  0.00349  0.66695  1.0000
  C   C500      1.0  0.11659  0.74228  0.51228  1.0000
  H   H856      1.0  0.87816  0.66107  0.58993  1.0000
  C   C501      1.0  0.78525  0.75813  0.61938  1.0000
  C   C502      1.0  0.83446  0.59357  0.68839  1.0000
  H   H857      1.0  0.24820  0.72723  0.62194  1.0000
  H   H858      1.0  0.88049  0.61618  0.49683  1.0000
  S   S144      1.0  0.21554  0.60774  0.53636  1.0000
  H   H859      1.0  0.19446  0.74238  0.72329  1.0000
  C   C503      1.0  0.23854  0.96862  0.70152  1.0000
  H   H860      1.0  0.14286  0.56034  0.54731  1.0000
  H   H861      1.0  0.04779  0.67972  0.48371  1.0000
  H   H862      1.0  0.23785  0.99805  0.72806  1.0000
  H   H863      1.0  0.97706  0.75348  0.48288  1.0000
  C   C504      1.0  0.20040  0.70570  0.72632  1.0000
  H   H864      1.0  0.93367  0.82907  0.48191  1.0000
