data_image0
_chemical_formula_structural       FeS2FeS2FeSFeS3H2FeS2FeS2FeSFeS3CSH2FeSFeSH2C7H2CHC2HCHCH4C6H4CHC6H4NH2CH2C3HCHCHC3H5CHC3H3CHCN2H3CHCSCHCNH8CHCH2C3HCH5CHCH4CH6CSCH4C3H3NC8H9CH10C2H4C3HC2H5CHSCH10C2H2CH2CHFeS2FeS2FeSFeS3HCFeS2FeS2FeSFeS3HSCHFeSFeSH3C6H2CHC4HCH2SHC6H4CSC6H7CH2C3H3CHC2H5C2HC2HCHNH4C2H3C2H2CH2C3H4CH3C2HC2H4CSNCH2NCHC3H5C2H13C2H3NHCH3CH2CH2CH2CH2CH3CH8CH3CH7CHC3H2C2HCH5C2HFeH3CHNH3FeS2FeSFeCFeHS2FeS2FeS2FeSFeS3FeS2FeSFeSFeS3HSCHCHCH2CHC3H2C6H4C6H4CSCHC6H4C2H2CHCH3CH3CH7CHCH3CH6CHCH2NHC2HCH3CH3C3H2CH5FeCH2C3HNCHCH2CSHNCH4SH2CHCH2CH2CNC8H25CSH3CH5FeH4CH4CHCH3NCHNH4SCH3CH2CHC2HC3H4CHCH6CH2C2FeS2FeSFeHFeHS2FeS2FeS2FeSFeS3FeSC2SFeSFeSCSHSC2HC6NH4C6H4C6H4CHCFeC6H5C3HCH2CH5NH3CH2C3H8CH13CH2CH4SHCHCHC2HCH3C2HCHCH4CSHCSHCH3SCHC2HNC8H20CH3SHC3HNH2CHSCH2FeH2CH4NH6CH3NHCHC2HCSH2CHNH3SC3H6CH2CH3CHCH4FeS2FeS2FeSFeS3FeSFeSCHS3FeS2FeS2FeSFeS3HCH2C2HCH3NH2C3HC6H4CHC2HC2H3C6H3C7H4CH2CHCH2CH2C2H2FeH5CSHSH3CHCH3CHCH3CH9CNC8H20CHC2H2CH3CHCHCH6C2HC2H6CH2CHCHC2H2NHCHCH3NCNH4C2H6CH3CHC2HFeS2FeS2FeSFeS3FeSFeSCHS2HFeS2FeS2FeSFeS3C3NH2NH6C3H2C6H4CHC2HC3H2C6H4C6HC2HCH2C3HCHC4H8CH9CH4CH4C2HCHC2H2CNH3CH6CHC2HNC8H22C2H3CH4C2HCH2CNC2H2C2HCH2CH3CH4CH4CHC2H4CH3CH5CHCH2CH2CHCNH3NH2SFeS2FeS2FeSFeS3HSFeS2FeSFeSCHFeS2FeSFe3HS2C2H2SCH2CH5FeC7H4CH2CHSHCH2C6H4C6H5NC8H24CH5CH2CH4CH3SHCNC4HC3H9CH2NH7NC4SHC2HCH2CH2NCH4C2H4C3H5SC2HC2H4CH2C2H3C2HCH4CH7C3SH6CHCH3C2H5CNHCH3CHCHSFeS2FeS2FeSFeS3HSFeSHFeSFeS3FeS2FeSFeHFe2S2C6H3CHCH4C6H4C2HCHCH2CHC6H4C6H4CHCH9CH5SCHC2H5CH2NCHCH3C3HC3SCHCNH3FeHC3HNC8H20NH6NH3CHCSH2SHCHC2HSH3CH2C2HNH3CH3CH4CH4CHC2H3CHSHCH2CH3C2HCSH3CH4CH2CFeH2CH7C3H3FeS2FeS2FeSFeS3HSFeS2FeS2FeSFeS3CHSHFeSFeSCH2CHCH2CHC6H4CSC2HC4H4CHC6H4CH2C2HCH4C3H6CHNCHCH3CH2CHC2H3C4H5CH2FeC2H6SCHCH7CHCH8C2H3CHCH3NHCHSNH3C2HCH3NHC2HCH3C4NHCH6CHC2H3CH2CH2C2H3CH6CH4CH3CH4C2H3FeS2FeS2FeSFeS3CHFeS2FeS2FeSFeS3H2SHFeHFeSCHC2H4CHC6HCH3C9H2CH2C6H4CH2C2HCHCH3C2FeNC3H2CH3CNH2CH3CH2CHSH8NH6C2H3CH9CH3C2H5CH5C2H4CHSH2CH2C2HCHCSH8CH3C5H2SH6CNC4HCNH3C3H5CH2C2SC2H2CH4SHCSH5CFeSHFeSHFeSFeS2FeS2FeS2FeSFeS3FeS2FeS2CFeS3FeSH5C2HC4SH5C6H4C6H4C6H4CHCH2NC3H3NH4CH5CH4CH7CH3CH2C2HC2H2CH2FeH7CH2C3NCH3CH2CH4CH2CHCH3SHC3H5CH3SH6CHCHC3H2CH4CHC2H3CH2CH3CHCHNCHC2H2C2H2CNC2HC2H3CNCH2CH3NH2CH4CH2SHCH3CHCH2FeSHFeSHFeSFeS2FeS2FeS2FeSFeS3FeS2FeS3FeS3HSH4FeC4H2C2HCH3C6H4C6H4C6H4C2H5C3H2SH2CH10FeNCHN2CH2CH3CH4CHCHCHCHCH5C3HCH5CH6C2H2CH2CHCH5SCHNHCH3CH3C2NHCHC2H4CH2CHCH2CHCHNC3HC2HCH2CH2CH3CH8CHCH2CH7NH7CH3CHCH2C2NC5H3CH6CHCH2C2H3CHCNCH4C2HC3HC2HFeS2FeS2FeSFeS4HSCFeSFeSHFeS2FeS2FeHFeS3H3C2H2C3H4C3HCHCHC7H4C6H4C2H3CH3SC6H4CHCH9CH4CH2CHNSHC2H2CH9CHCHCH2CH3C3HCH4FeHCHCHC2H4CHC2SHCH3SHC2HCNHCH3C3H3NH2CH7C2H4C2H5NCH4CH2CHCSFeS2FeS2FeSFeS3HCSHFeSFeS2FeS2FeS2FeSFeS3HCH2NC3H3NHC2HCH4C8H4C6H4CH2CSH5C6H3NC7H21CHCH5CH10C2HCHC2HC2H2CH3CH3CHC2HC3HC3HCHCH4C2H2C2HNH2CH3FeCHCH2CH3CHCH4CHCH5C2SH4CHCH4CH5CH4CH4NH2C2HCHNHCH3C2H3NC3HSH2FeS2FeS2FeSFeS3HSFeSHFeSFeSH2FeS2FeSFeHFeHS2CHCHC2H2CHCHC6H5CHC2SH4C6H4C2H3C6H5SHNC2H6CH2CH7FeCHFeHCH2NSHSHCHC2H2CSCH4CHNHCH8CH2C2HCH2CNC2H2C2H3C3H3CH4NC8H15CHCH7C2HC3H10C3HC2H6CH3CHCH5CSCHCHCHNHSHCFeS2FeS2FeSFeS3HSFeSCFeSFeS2HFeS2FeSFeHFeHS2C2H4CH3NHC6H4C2HC3HSH2C6H4C2HCHC6H10C2H5C2HCHSHSCH3C6N2C6H12NC4HC2H8C2H12CH2CHFeCH3CH2CH7SHCHCH4CHNH4NC2H5CFeH4CHCHSHC2HC2H3CH2CH5CH7CHC3HCH7CH7C2H5SCH5
_chemical_formula_sum              "Fe192 S384 H2304 C1344 N96"
_cell_length_a       58.7137
_cell_length_b       89.2296
_cell_length_c       48.7655
_cell_angle_alpha    89.8474
_cell_angle_beta     89.8835
_cell_angle_gamma    88.3287

_space_group_name_H-M_alt    "P 1"
_space_group_IT_number       1

loop_
  _space_group_symop_operation_xyz
  'x, y, z'

loop_
  _atom_site_type_symbol
  _atom_site_label
  _atom_site_symmetry_multiplicity
  _atom_site_fract_x
  _atom_site_fract_y
  _atom_site_fract_z
  _atom_site_occupancy
  Fe  Fe1       1.0  0.11217  0.01228  0.42059  1.0000
  S   S1        1.0  0.10369  0.03713  0.41838  1.0000
  S   S2        1.0  0.12450  0.00125  0.46122  1.0000
  Fe  Fe2       1.0  0.10469  0.00819  0.35771  1.0000
  S   S3        1.0  0.09526  0.03262  0.35159  1.0000
  S   S4        1.0  0.10169  0.98926  0.32560  1.0000
  Fe  Fe3       1.0  0.12453  0.03791  0.37976  1.0000
  S   S5        1.0  0.14834  0.05699  0.36703  1.0000
  Fe  Fe4       1.0  0.07523  0.03051  0.39056  1.0000
  S   S6        1.0  0.04135  0.04270  0.39643  1.0000
  S   S7        1.0  0.13554  0.01335  0.38345  1.0000
  S   S8        1.0  0.08207  0.00575  0.39519  1.0000
  H   H1        1.0  0.03761  0.01786  0.35868  1.0000
  H   H2        1.0  0.13514  0.15082  0.44027  1.0000
  Fe  Fe5       1.0  0.17473  0.14961  0.38339  1.0000
  S   S9        1.0  0.15158  0.16906  0.39646  1.0000
  S   S10       1.0  0.15795  0.12714  0.39514  1.0000
  Fe  Fe6       1.0  0.21355  0.17197  0.36936  1.0000
  S   S11       1.0  0.19243  0.19194  0.38241  1.0000
  S   S12       1.0  0.24899  0.17641  0.35160  1.0000
  Fe  Fe7       1.0  0.18185  0.17796  0.41850  1.0000
  S   S13       1.0  0.18595  0.18481  0.46342  1.0000
  Fe  Fe8       1.0  0.16431  0.18109  0.35894  1.0000
  S   S14       1.0  0.14254  0.19652  0.33153  1.0000
  S   S15       1.0  0.20484  0.15836  0.40678  1.0000
  S   S16       1.0  0.18566  0.16140  0.34426  1.0000
  C   C1        1.0  0.04903  0.00003  0.29296  1.0000
  S   S17       1.0  0.09745  0.20052  0.13536  1.0000
  H   H3        1.0  0.03632  0.07179  0.36698  1.0000
  H   H4        1.0  0.01498  0.02494  0.44002  1.0000
  Fe  Fe9       1.0  0.12683  0.20416  0.10653  1.0000
  S   S18       1.0  0.13145  0.18744  0.07138  1.0000
  Fe  Fe10      1.0  0.12231  0.20339  0.16991  1.0000
  S   S19       1.0  0.12593  0.18588  0.20390  1.0000
  H   H5        1.0  0.13687  0.16739  0.02596  1.0000
  H   H6        1.0  0.33428  0.21542  0.46221  1.0000
  C   C2        1.0  0.04988  0.19730  0.07926  1.0000
  C   C3        1.0  0.13752  0.19326  0.29623  1.0000
  C   C4        1.0  0.14448  0.17985  0.28355  1.0000
  C   C5        1.0  0.14044  0.17772  0.25538  1.0000
  C   C6        1.0  0.13002  0.18911  0.23938  1.0000
  C   C7        1.0  0.12307  0.20256  0.25200  1.0000
  C   C8        1.0  0.12658  0.20454  0.28037  1.0000
  H   H7        1.0  0.15273  0.17104  0.29552  1.0000
  H   H8        1.0  0.14563  0.16723  0.24585  1.0000
  C   C9        1.0  0.01254  0.97648  0.09340  1.0000
  H   H9        1.0  0.19908  0.19245  0.18206  1.0000
  C   C10       1.0  0.13977  0.19065  0.03692  1.0000
  C   C11       1.0  0.28752  0.21628  0.48132  1.0000
  H   H10       1.0  0.05764  0.98585  0.21021  1.0000
  C   C12       1.0  0.16495  0.19053  0.48769  1.0000
  H   H11       1.0  0.03406  0.00594  0.30210  1.0000
  C   C13       1.0  0.14505  0.20490  0.02726  1.0000
  H   H12       1.0  0.01006  0.98497  0.47069  1.0000
  H   H13       1.0  0.13673  0.19093  0.45963  1.0000
  H   H14       1.0  0.11776  0.12492  0.49711  1.0000
  H   H15       1.0  0.14425  0.21437  0.04108  1.0000
  C   C14       1.0  0.29989  0.21031  0.38603  1.0000
  C   C15       1.0  0.30559  0.20134  0.36337  1.0000
  C   C16       1.0  0.28978  0.19117  0.35289  1.0000
  C   C17       1.0  0.26815  0.18971  0.36503  1.0000
  C   C18       1.0  0.26241  0.19877  0.38752  1.0000
  C   C19       1.0  0.27819  0.20894  0.39795  1.0000
  H   H16       1.0  0.32247  0.20178  0.35463  1.0000
  H   H17       1.0  0.29454  0.18409  0.33572  1.0000
  H   H18       1.0  0.24590  0.19778  0.39716  1.0000
  H   H19       1.0  0.21368  0.18260  0.22609  1.0000
  C   C20       1.0  0.03829  0.22050  0.05598  1.0000
  H   H20       1.0  0.05032  0.20348  0.09907  1.0000
  C   C21       1.0  0.15114  0.07637  0.37573  1.0000
  C   C22       1.0  0.13972  0.08307  0.39801  1.0000
  C   C23       1.0  0.14197  0.09855  0.40345  1.0000
  C   C24       1.0  0.15582  0.10761  0.38697  1.0000
  C   C25       1.0  0.16730  0.10089  0.36478  1.0000
  C   C26       1.0  0.16497  0.08543  0.35926  1.0000
  H   H21       1.0  0.12929  0.07629  0.41114  1.0000
  H   H22       1.0  0.13295  0.10350  0.42067  1.0000
  H   H23       1.0  0.17805  0.10759  0.35187  1.0000
  H   H24       1.0  0.17397  0.08045  0.34202  1.0000
  N   N1        1.0  0.16056  0.13727  0.48361  1.0000
  H   H25       1.0  0.01232  0.21024  0.20781  1.0000
  H   H26       1.0  0.08464  0.18381  0.03358  1.0000
  C   C27       1.0  0.11663  0.99574  0.24396  1.0000
  H   H27       1.0  0.17057  0.14321  0.44244  1.0000
  H   H28       1.0  0.07914  0.21871  0.08263  1.0000
  C   C28       1.0  0.10550  0.98697  0.28941  1.0000
  C   C29       1.0  0.11391  0.99823  0.27245  1.0000
  C   C30       1.0  0.15152  0.20688  0.99965  1.0000
  H   H29       1.0  0.21860  0.19333  0.30489  1.0000
  C   C31       1.0  0.11183  0.99177  0.48970  1.0000
  H   H30       1.0  0.11863  0.00879  0.28135  1.0000
  C   C32       1.0  0.00577  0.98744  0.27275  1.0000
  H   H31       1.0  0.20236  0.21810  0.20091  1.0000
  C   C33       1.0  0.01801  0.03528  0.37917  1.0000
  C   C34       1.0  0.02083  0.02293  0.36179  1.0000
  C   C35       1.0  0.07858  0.21418  0.06139  1.0000
  H   H32       1.0  0.00562  0.01234  0.27047  1.0000
  H   H33       1.0  0.01744  0.99433  0.21953  1.0000
  H   H34       1.0  0.06201  0.99217  0.25444  1.0000
  H   H35       1.0  0.31310  0.21377  0.30512  1.0000
  H   H36       1.0  0.27625  0.21056  0.46661  1.0000
  C   C36       1.0  0.18689  0.18924  0.19832  1.0000
  H   H37       1.0  0.25322  0.18816  0.00418  1.0000
  C   C37       1.0  0.20624  0.19417  0.28766  1.0000
  C   C38       1.0  0.99876  0.00381  0.42796  1.0000
  C   C39       1.0  0.06496  0.18302  0.08253  1.0000
  H   H38       1.0  0.03493  0.07295  0.33001  1.0000
  H   H39       1.0  0.03594  0.20838  0.14719  1.0000
  H   H40       1.0  0.12357  0.00446  0.23124  1.0000
  C   C40       1.0  0.05470  0.19965  0.02862  1.0000
  H   H41       1.0  0.03756  0.97775  0.18764  1.0000
  C   C41       1.0  0.17834  0.14156  0.46295  1.0000
  N   N2        1.0  0.20232  0.20500  0.23853  1.0000
  N   N3        1.0  0.02778  0.98386  0.25782  1.0000
  H   H42       1.0  0.07311  0.18501  0.99988  1.0000
  H   H43       1.0  0.16917  0.20496  0.25788  1.0000
  H   H44       1.0  0.06062  0.17749  0.10223  1.0000
  C   C42       1.0  0.19769  0.18962  0.22718  1.0000
  H   H45       1.0  0.12205  0.97641  0.05426  1.0000
  C   C43       1.0  0.99619  0.04172  0.38326  1.0000
  S   S20       1.0  0.15186  0.20478  0.14097  1.0000
  C   C44       1.0  0.07533  0.98029  0.01361  1.0000
  H   H46       1.0  0.34686  0.22022  0.49507  1.0000
  C   C45       1.0  0.01894  0.01274  0.43893  1.0000
  N   N4        1.0  0.05566  0.20765  0.05588  1.0000
  H   H47       1.0  0.11481  0.21135  0.23998  1.0000
  H   H48       1.0  0.03351  0.01134  0.42449  1.0000
  H   H49       1.0  0.99564  0.00789  0.40669  1.0000
  H   H50       1.0  0.18168  0.17763  0.19380  1.0000
  H   H51       1.0  0.22118  0.16827  0.01242  1.0000
  H   H52       1.0  0.07845  0.98993  0.47224  1.0000
  H   H53       1.0  0.12105  0.21492  0.29003  1.0000
  H   H54       1.0  0.19504  0.12270  0.44121  1.0000
  C   C46       1.0  0.00186  0.01711  0.34845  1.0000
  H   H55       1.0  0.05390  0.99021  0.30583  1.0000
  C   C47       1.0  0.08909  0.98742  0.48983  1.0000
  H   H56       1.0  0.13897  0.99016  0.01507  1.0000
  H   H57       1.0  0.08999  0.19975  0.01228  1.0000
  C   C48       1.0  0.04506  0.99576  0.26273  1.0000
  C   C49       1.0  0.17969  0.21248  0.24538  1.0000
  C   C50       1.0  0.07692  0.19166  0.01845  1.0000
  H   H58       1.0  0.00398  0.00748  0.33522  1.0000
  C   C51       1.0  0.19845  0.13020  0.45882  1.0000
  H   H59       1.0  0.11617  0.16165  0.46146  1.0000
  H   H60       1.0  0.18529  0.15276  0.46734  1.0000
  H   H61       1.0  0.12449  0.10665  0.48385  1.0000
  H   H62       1.0  0.08333  0.18532  0.08346  1.0000
  H   H63       1.0  0.99396  0.05127  0.39673  1.0000
  C   C52       1.0  0.12613  0.15089  0.46017  1.0000
  H   H64       1.0  0.33744  0.21978  0.32322  1.0000
  C   C53       1.0  0.99662  0.98835  0.03938  1.0000
  H   H65       1.0  0.04121  0.19113  0.02899  1.0000
  H   H66       1.0  0.05758  0.97751  0.01292  1.0000
  H   H67       1.0  0.00493  0.99197  0.42556  1.0000
  H   H68       1.0  0.20213  0.18251  0.28218  1.0000
  C   C54       1.0  0.15063  0.12268  0.47477  1.0000
  H   H69       1.0  0.00747  0.99681  0.04914  1.0000
  H   H70       1.0  0.06336  0.00788  0.29401  1.0000
  H   H71       1.0  0.09242  0.20552  0.06071  1.0000
  H   H72       1.0  0.02507  0.00862  0.45914  1.0000
  H   H73       1.0  0.19077  0.20009  0.29577  1.0000
  H   H74       1.0  0.18604  0.18343  0.24089  1.0000
  C   C55       1.0  0.13188  0.11663  0.49365  1.0000
  S   S21       1.0  0.11562  0.97929  0.19596  1.0000
  C   C56       1.0  0.02260  0.21617  0.14050  1.0000
  H   H75       1.0  0.00994  0.20774  0.03854  1.0000
  H   H76       1.0  0.17135  0.19648  0.19674  1.0000
  H   H77       1.0  0.01935  0.08607  0.35081  1.0000
  H   H78       1.0  0.14377  0.12357  0.45354  1.0000
  C   C57       1.0  0.21711  0.20273  0.26359  1.0000
  C   C58       1.0  0.02304  0.98313  0.22749  1.0000
  C   C59       1.0  0.14256  0.14969  0.48482  1.0000
  H   H79       1.0  0.06158  0.17483  0.06608  1.0000
  H   H80       1.0  0.11375  0.14175  0.46023  1.0000
  H   H81       1.0  0.03231  0.19316  0.07731  1.0000
  N   N5        1.0  0.07915  0.08339  0.34731  1.0000
  C   C60       1.0  0.05559  0.09051  0.34899  1.0000
  C   C61       1.0  0.09644  0.09545  0.35031  1.0000
  C   C62       1.0  0.08293  0.07202  0.36989  1.0000
  C   C63       1.0  0.08164  0.07553  0.32007  1.0000
  C   C64       1.0  0.03569  0.07954  0.34920  1.0000
  C   C65       1.0  0.09636  0.10756  0.32768  1.0000
  C   C66       1.0  0.07764  0.07749  0.39931  1.0000
  C   C67       1.0  0.10586  0.06964  0.31269  1.0000
  H   H82       1.0  0.05386  0.09781  0.36741  1.0000
  H   H83       1.0  0.05240  0.09812  0.33122  1.0000
  H   H84       1.0  0.11397  0.09047  0.35139  1.0000
  H   H85       1.0  0.09402  0.10157  0.36997  1.0000
  H   H86       1.0  0.07275  0.06189  0.36631  1.0000
  H   H87       1.0  0.10093  0.06783  0.37010  1.0000
  H   H88       1.0  0.07062  0.06559  0.31932  1.0000
  H   H89       1.0  0.07567  0.08294  0.30299  1.0000
  H   H90       1.0  0.00065  0.19952  0.23504  1.0000
  C   C68       1.0  0.14096  0.17846  0.01868  1.0000
  H   H91       1.0  0.03096  0.97782  0.08849  1.0000
  H   H92       1.0  0.08047  0.11459  0.32798  1.0000
  H   H93       1.0  0.11063  0.11519  0.33160  1.0000
  H   H94       1.0  0.09917  0.10281  0.30695  1.0000
  H   H95       1.0  0.08845  0.08685  0.40550  1.0000
  H   H96       1.0  0.08138  0.06812  0.41381  1.0000
  H   H97       1.0  0.05942  0.08066  0.40224  1.0000
  H   H98       1.0  0.11808  0.07878  0.31006  1.0000
  H   H99       1.0  0.10529  0.06356  0.29287  1.0000
  H   H100      1.0  0.11262  0.06157  0.32809  1.0000
  C   C69       1.0  0.12114  0.98745  0.01454  1.0000
  C   C70       1.0  0.11158  0.97961  0.03686  1.0000
  H   H101      1.0  0.10834  0.19912  0.49485  1.0000
  H   H102      1.0  0.23324  0.19658  0.25796  1.0000
  H   H103      1.0  0.04047  0.00626  0.25140  1.0000
  H   H104      1.0  0.30334  0.20934  0.48296  1.0000
  C   C71       1.0  0.14204  0.19268  0.48059  1.0000
  C   C72       1.0  0.01304  0.21621  0.05459  1.0000
  C   C73       1.0  0.11059  0.98210  0.23183  1.0000
  H   H105      1.0  0.15064  0.16076  0.48654  1.0000
  C   C74       1.0  0.04335  0.97800  0.20929  1.0000
  C   C75       1.0  0.99950  0.21198  0.14152  1.0000
  H   H106      1.0  0.01724  0.98113  0.13680  1.0000
  H   H107      1.0  0.16409  0.11366  0.47352  1.0000
  H   H108      1.0  0.22266  0.21348  0.27225  1.0000
  H   H109      1.0  0.00859  0.97567  0.22315  1.0000
  H   H110      1.0  0.04956  0.20755  0.01185  1.0000
  C   C76       1.0  0.99734  0.20364  0.21392  1.0000
  H   H111      1.0  0.27352  0.21570  0.41553  1.0000
  S   S22       1.0  0.31960  0.22251  0.40167  1.0000
  C   C77       1.0  0.99438  0.00286  0.26632  1.0000
  H   H112      1.0  0.99546  0.20092  0.14876  1.0000
  H   H113      1.0  0.00817  0.98665  0.29537  1.0000
  H   H114      1.0  0.25080  0.21859  0.31683  1.0000
  H   H115      1.0  0.20225  0.12317  0.47700  1.0000
  H   H116      1.0  0.00691  0.21217  0.07480  1.0000
  H   H117      1.0  0.21425  0.13635  0.45447  1.0000
  H   H118      1.0  0.22690  0.20618  0.20539  1.0000
  H   H119      1.0  0.00457  0.98792  0.09233  1.0000
  H   H120      1.0  0.16930  0.21439  0.22659  1.0000
  H   H121      1.0  0.99700  0.99063  0.01698  1.0000
  C   C78       1.0  0.21463  0.21370  0.21667  1.0000
  C   C79       1.0  0.08855  0.97596  0.03660  1.0000
  H   H122      1.0  0.99680  0.19404  0.19957  1.0000
  H   H123      1.0  0.27503  0.22267  0.33685  1.0000
  C   C80       1.0  0.32483  0.22320  0.30729  1.0000
  H   H124      1.0  0.28136  0.22215  0.28476  1.0000
  H   H125      1.0  0.36088  0.22427  0.46373  1.0000
  C   C81       1.0  0.34387  0.22387  0.47364  1.0000
  H   H126      1.0  0.24433  0.22307  0.23730  1.0000
  Fe  Fe11      1.0  0.10725  0.01253  0.92428  1.0000
  S   S23       1.0  0.09763  0.03714  0.92272  1.0000
  S   S24       1.0  0.12129  0.00097  0.96336  1.0000
  Fe  Fe12      1.0  0.09825  0.00831  0.86198  1.0000
  S   S25       1.0  0.08702  0.03251  0.85635  1.0000
  S   S26       1.0  0.09947  0.98857  0.83134  1.0000
  Fe  Fe13      1.0  0.11692  0.03847  0.88298  1.0000
  S   S27       1.0  0.13933  0.05765  0.86780  1.0000
  Fe  Fe14      1.0  0.06853  0.02993  0.89642  1.0000
  S   S28       1.0  0.03440  0.04097  0.90626  1.0000
  S   S29       1.0  0.12940  0.01425  0.88630  1.0000
  S   S30       1.0  0.07683  0.00529  0.90032  1.0000
  H   H127      1.0  0.03154  0.01992  0.86155  1.0000
  C   C82       1.0  0.07452  0.18526  0.76175  1.0000
  Fe  Fe15      1.0  0.16191  0.14976  0.88543  1.0000
  S   S31       1.0  0.13767  0.16997  0.88796  1.0000
  S   S32       1.0  0.14730  0.12728  0.89983  1.0000
  Fe  Fe16      1.0  0.20271  0.16999  0.87234  1.0000
  S   S33       1.0  0.18092  0.19082  0.87428  1.0000
  S   S34       1.0  0.24048  0.17129  0.86054  1.0000
  Fe  Fe17      1.0  0.16517  0.18093  0.91207  1.0000
  S   S35       1.0  0.16128  0.19783  0.94702  1.0000
  Fe  Fe18      1.0  0.15537  0.17816  0.84990  1.0000
  S   S36       1.0  0.13699  0.19223  0.81698  1.0000
  S   S37       1.0  0.18864  0.16058  0.91171  1.0000
  S   S38       1.0  0.17800  0.15745  0.84570  1.0000
  H   H128      1.0  0.18924  0.19108  0.52075  1.0000
  S   S39       1.0  0.09504  0.20121  0.62906  1.0000
  C   C83       1.0  0.12533  0.98828  0.51290  1.0000
  H   H129      1.0  0.19573  0.99582  0.70322  1.0000
  Fe  Fe19      1.0  0.11526  0.21315  0.59672  1.0000
  S   S40       1.0  0.11193  0.20663  0.55166  1.0000
  Fe  Fe20      1.0  0.12473  0.20552  0.65705  1.0000
  S   S41       1.0  0.13822  0.18737  0.68645  1.0000
  H   H130      1.0  0.07617  0.17353  0.76934  1.0000
  H   H131      1.0  0.11352  0.98315  0.90378  1.0000
  H   H132      1.0  0.00768  0.21331  0.71966  1.0000
  C   C84       1.0  0.13809  0.19057  0.78077  1.0000
  C   C85       1.0  0.14328  0.17696  0.76771  1.0000
  C   C86       1.0  0.14325  0.17615  0.73881  1.0000
  C   C87       1.0  0.13812  0.18892  0.72272  1.0000
  C   C88       1.0  0.13314  0.20255  0.73584  1.0000
  C   C89       1.0  0.13296  0.20332  0.76468  1.0000
  H   H133      1.0  0.14691  0.16701  0.77985  1.0000
  H   H134      1.0  0.14709  0.16555  0.72885  1.0000
  C   C90       1.0  0.17074  0.99477  0.74960  1.0000
  H   H135      1.0  0.19480  0.16543  0.99556  1.0000
  C   C91       1.0  0.13263  0.19977  0.52791  1.0000
  C   C92       1.0  0.16725  0.97806  0.88860  1.0000
  C   C93       1.0  0.09361  0.97630  0.53594  1.0000
  C   C94       1.0  0.15272  0.19468  0.98142  1.0000
  H   H136      1.0  0.06258  0.97636  0.51236  1.0000
  C   C95       1.0  0.15548  0.19732  0.53513  1.0000
  H   H137      1.0  0.14290  0.99160  0.51317  1.0000
  H   H138      1.0  0.14822  0.17095  0.97728  1.0000
  S   S42       1.0  0.10441  0.98101  0.70012  1.0000
  H   H139      1.0  0.08457  0.11549  0.84408  1.0000
  C   C96       1.0  0.29587  0.20485  0.88429  1.0000
  C   C97       1.0  0.27268  0.20842  0.88928  1.0000
  C   C98       1.0  0.25540  0.19864  0.88109  1.0000
  C   C99       1.0  0.26114  0.18490  0.86865  1.0000
  C   C100      1.0  0.28419  0.18160  0.86283  1.0000
  C   C101      1.0  0.30140  0.19145  0.87061  1.0000
  H   H140      1.0  0.20876  0.99236  0.65775  1.0000
  H   H141      1.0  0.00581  0.09412  0.87439  1.0000
  H   H142      1.0  0.28891  0.17106  0.85312  1.0000
  H   H143      1.0  0.07583  0.10291  0.89141  1.0000
  C   C102      1.0  0.10788  0.99184  0.99165  1.0000
  S   S43       1.0  0.14638  0.21526  0.62331  1.0000
  C   C103      1.0  0.14132  0.07700  0.87707  1.0000
  C   C104      1.0  0.13390  0.08252  0.90251  1.0000
  C   C105      1.0  0.13578  0.09788  0.90890  1.0000
  C   C106      1.0  0.14545  0.10799  0.89023  1.0000
  C   C107      1.0  0.15304  0.10246  0.86484  1.0000
  C   C108      1.0  0.15099  0.08710  0.85837  1.0000
  H   H144      1.0  0.12712  0.07489  0.91751  1.0000
  H   H145      1.0  0.13006  0.10194  0.92871  1.0000
  H   H146      1.0  0.16057  0.11001  0.85024  1.0000
  H   H147      1.0  0.15704  0.08299  0.83874  1.0000
  H   H148      1.0  0.28481  0.19619  0.97247  1.0000
  H   H149      1.0  0.00255  0.99117  0.68356  1.0000
  H   H150      1.0  0.10620  0.00680  0.73533  1.0000
  C   C109      1.0  0.07550  0.17922  0.69001  1.0000
  H   H151      1.0  0.03883  0.19029  0.75899  1.0000
  H   H152      1.0  0.08333  0.06712  0.81009  1.0000
  C   C110      1.0  0.09975  0.98694  0.79468  1.0000
  C   C111      1.0  0.10276  0.99922  0.77724  1.0000
  C   C112      1.0  0.10365  0.99721  0.74847  1.0000
  H   H153      1.0  0.09555  0.09472  0.86884  1.0000
  H   H154      1.0  0.24156  0.20783  0.97599  1.0000
  H   H155      1.0  0.10459  0.01026  0.78592  1.0000
  C   C113      1.0  0.10132  0.98295  0.73655  1.0000
  H   H156      1.0  0.23162  0.15303  0.93789  1.0000
  C   C114      1.0  0.01112  0.03411  0.88817  1.0000
  C   C115      1.0  0.01447  0.02372  0.86707  1.0000
  H   H157      1.0  0.07737  0.17069  0.70649  1.0000
  H   H158      1.0  0.04019  0.21551  0.74784  1.0000
  H   H159      1.0  0.15713  0.13440  0.52755  1.0000
  H   H160      1.0  0.02648  0.10072  0.85074  1.0000
  H   H161      1.0  0.99656  0.98573  0.50347  1.0000
  C   C116      1.0  0.02150  0.09086  0.86282  1.0000
  C   C117      1.0  0.99566  0.01824  0.85296  1.0000
  H   H162      1.0  0.02971  0.18377  0.69848  1.0000
  C   C118      1.0  0.24806  0.15873  0.93978  1.0000
  C   C119      1.0  0.18597  0.14817  0.52135  1.0000
  H   H163      1.0  0.12691  0.97845  0.55356  1.0000
  C   C120      1.0  0.07293  0.19524  0.70162  1.0000
  H   H164      1.0  0.24691  0.19706  0.75942  1.0000
  N   N6        1.0  0.23961  0.18447  0.96371  1.0000
  H   H165      1.0  0.20210  0.14843  0.50946  1.0000
  H   H166      1.0  0.17121  0.99500  0.68199  1.0000
  H   H167      1.0  0.05239  0.08135  0.82980  1.0000
  H   H168      1.0  0.22001  0.15676  0.98192  1.0000
  C   C121      1.0  0.03162  0.19577  0.70386  1.0000
  C   C122      1.0  0.07689  0.09703  0.87135  1.0000
  H   H169      1.0  0.47908  0.21698  0.89961  1.0000
  H   H170      1.0  0.08619  0.06844  0.93432  1.0000
  H   H171      1.0  0.99832  0.01022  0.83658  1.0000
  C   C123      1.0  0.17156  0.19282  0.51506  1.0000
  C   C124      1.0  0.15975  0.98388  0.72936  1.0000
  H   H172      1.0  0.22467  0.21844  0.93107  1.0000
  H   H173      1.0  0.20370  0.18061  0.95712  1.0000
  C   C125      1.0  0.12599  0.19728  0.50062  1.0000
  H   H174      1.0  0.18957  0.20851  0.72047  1.0000
  H   H175      1.0  0.18104  0.21106  0.82426  1.0000
  C   C126      1.0  0.23611  0.19986  0.77763  1.0000
  C   C127      1.0  0.19093  0.21003  0.80488  1.0000
  C   C128      1.0  0.17078  0.13537  0.51181  1.0000
  H   H176      1.0  0.20535  0.21028  0.95468  1.0000
  H   H177      1.0  0.31912  0.18826  0.86734  1.0000
  H   H178      1.0  0.26814  0.21860  0.90022  1.0000
  H   H179      1.0  0.09559  0.08260  0.82723  1.0000
  C   C129      1.0  0.21989  0.20769  0.94073  1.0000
  H   H180      1.0  0.09409  0.07023  0.88571  1.0000
  H   H181      1.0  0.23771  0.20156  0.88495  1.0000
  H   H182      1.0  0.28769  0.17717  0.95965  1.0000
  C   C130      1.0  0.99861  0.98029  0.69360  1.0000
  C   C131      1.0  0.21602  0.18128  0.97436  1.0000
  H   H183      1.0  0.15768  0.99845  0.76492  1.0000
  C   C132      1.0  0.24472  0.17591  0.93765  1.0000
  C   C133      1.0  0.05248  0.21400  0.73058  1.0000
  H   H184      1.0  0.44200  0.21516  0.80912  1.0000
  H   H185      1.0  0.07384  0.19278  0.77988  1.0000
  H   H186      1.0  0.07442  0.99138  0.97393  1.0000
  H   H187      1.0  0.05462  0.06398  0.84689  1.0000
  C   C134      1.0  0.25152  0.19844  0.80315  1.0000
  S   S44       1.0  0.31739  0.21483  0.90175  1.0000
  N   N7        1.0  0.05293  0.19798  0.72059  1.0000
  C   C135      1.0  0.05265  0.18709  0.74433  1.0000
  H   H188      1.0  0.15558  0.21795  0.99234  1.0000
  H   H189      1.0  0.21399  0.20024  0.92424  1.0000
  N   N8        1.0  0.21518  0.19043  0.77766  1.0000
  C   C136      1.0  0.22305  0.17417  0.77970  1.0000
  H   H190      1.0  0.03263  0.20177  0.68386  1.0000
  C   C137      1.0  0.20221  0.19254  0.75104  1.0000
  C   C138      1.0  0.20009  0.19379  0.80208  1.0000
  C   C139      1.0  0.20470  0.16239  0.77455  1.0000
  H   H191      1.0  0.05886  0.07733  0.93133  1.0000
  H   H192      1.0  0.18089  0.12468  0.51359  1.0000
  H   H193      1.0  0.26001  0.18020  0.92701  1.0000
  H   H194      1.0  0.23717  0.17171  0.76491  1.0000
  H   H195      1.0  0.23012  0.17158  0.80041  1.0000
  C   C140      1.0  0.06302  0.07500  0.84480  1.0000
  C   C141      1.0  0.11631  0.98072  0.53587  1.0000
  H   H196      1.0  0.20909  0.18479  0.73494  1.0000
  H   H197      1.0  0.18411  0.18958  0.75379  1.0000
  H   H198      1.0  0.18486  0.18673  0.80190  1.0000
  H   H199      1.0  0.20909  0.19078  0.82147  1.0000
  H   H200      1.0  0.19847  0.16254  0.75309  1.0000
  H   H201      1.0  0.21232  0.15103  0.77833  1.0000
  H   H202      1.0  0.18999  0.16369  0.78859  1.0000
  H   H203      1.0  0.08694  0.22213  0.72280  1.0000
  H   H204      1.0  0.04795  0.17569  0.73748  1.0000
  H   H205      1.0  0.09047  0.18703  0.75039  1.0000
  H   H206      1.0  0.04003  0.09374  0.90035  1.0000
  H   H207      1.0  0.42676  0.21734  0.84025  1.0000
  H   H208      1.0  0.16080  0.19906  0.55608  1.0000
  C   C142      1.0  0.03998  0.08546  0.88331  1.0000
  C   C143      1.0  0.14740  0.18044  0.99107  1.0000
  H   H209      1.0  0.03331  0.07494  0.89239  1.0000
  H   H210      1.0  0.09708  0.06400  0.84200  1.0000
  H   H211      1.0  0.06351  0.10413  0.83038  1.0000
  N   N9        1.0  0.06383  0.08272  0.87228  1.0000
  H   H212      1.0  0.00979  0.99393  0.91709  1.0000
  C   C144      1.0  0.00887  0.20094  0.71726  1.0000
  H   H213      1.0  0.02695  0.21048  0.61041  1.0000
  H   H214      1.0  0.14880  0.98567  0.92441  1.0000
  H   H215      1.0  0.01676  0.08165  0.84883  1.0000
  C   C145      1.0  0.06951  0.10889  0.84986  1.0000
  H   H216      1.0  0.12887  0.21390  0.77462  1.0000
  H   H217      1.0  0.19053  0.97730  0.65076  1.0000
  C   C146      1.0  0.01258  0.21455  0.62244  1.0000
  H   H218      1.0  0.06852  0.06082  0.89109  1.0000
  H   H219      1.0  0.17883  0.21299  0.78822  1.0000
  C   C147      1.0  0.07605  0.07210  0.89183  1.0000
  H   H220      1.0  0.18146  0.98568  0.89284  1.0000
  H   H221      1.0  0.05625  0.11671  0.85836  1.0000
  C   C148      1.0  0.20240  0.20816  0.73724  1.0000
  H   H222      1.0  0.12939  0.21249  0.72377  1.0000
  H   H223      1.0  0.25926  0.15481  0.92267  1.0000
  C   C149      1.0  0.07622  0.07690  0.92229  1.0000
  H   H224      1.0  0.06128  0.17648  0.67616  1.0000
  H   H225      1.0  0.23096  0.17790  0.92236  1.0000
  H   H226      1.0  0.13181  0.14882  0.50356  1.0000
  C   C150      1.0  0.08621  0.07215  0.83056  1.0000
  H   H227      1.0  0.08464  0.08771  0.92541  1.0000
  H   H228      1.0  0.26614  0.20596  0.80070  1.0000
  H   H229      1.0  0.09127  0.17838  0.67743  1.0000
  H   H230      1.0  0.07188  0.20317  0.68395  1.0000
  H   H231      1.0  0.25690  0.15484  0.95854  1.0000
  H   H232      1.0  0.41118  0.21662  0.80946  1.0000
  H   H233      1.0  0.08938  0.19769  0.71139  1.0000
  H   H234      1.0  0.18980  0.22267  0.54790  1.0000
  C   C151      1.0  0.24038  0.20101  0.95695  1.0000
  H   H235      1.0  0.04629  0.22173  0.71401  1.0000
  H   H236      1.0  0.13898  0.11290  0.51368  1.0000
  H   H237      1.0  0.19071  0.14631  0.54317  1.0000
  C   C152      1.0  0.28209  0.18421  0.97727  1.0000
  H   H238      1.0  0.17704  0.15927  0.52004  1.0000
  H   H239      1.0  0.00059  0.98208  0.71601  1.0000
  H   H240      1.0  0.24244  0.20206  0.82207  1.0000
  H   H241      1.0  0.25591  0.20353  0.94483  1.0000
  H   H242      1.0  0.25888  0.18695  0.80587  1.0000
  H   H243      1.0  0.08379  0.21361  0.75622  1.0000
  H   H244      1.0  0.25695  0.16956  0.99299  1.0000
  C   C153      1.0  0.42706  0.22095  0.81844  1.0000
  H   H245      1.0  0.17638  0.00508  0.73913  1.0000
  C   C154      1.0  0.08486  0.98819  0.99137  1.0000
  C   C155      1.0  0.07518  0.22044  0.74025  1.0000
  C   C156      1.0  0.25721  0.18131  0.98560  1.0000
  H   H246      1.0  0.23161  0.21197  0.77565  1.0000
  H   H247      1.0  0.47895  0.22422  0.79258  1.0000
  C   C157      1.0  0.18529  0.98798  0.69121  1.0000
  C   C158      1.0  0.20062  0.98251  0.66724  1.0000
  H   H248      1.0  0.21923  0.21016  0.72769  1.0000
  C   C159      1.0  0.21327  0.16705  0.99193  1.0000
  H   H249      1.0  0.14662  0.99057  0.71786  1.0000
  H   H250      1.0  0.15598  0.98402  0.87366  1.0000
  H   H251      1.0  0.20946  0.19068  0.98750  1.0000
  H   H252      1.0  0.29348  0.18121  0.99472  1.0000
  H   H253      1.0  0.18513  0.98953  0.76110  1.0000
  C   C160      1.0  0.08014  0.97969  0.51268  1.0000
  C   C161      1.0  0.01636  0.22363  0.64529  1.0000
  H   H254      1.0  0.00595  0.19538  0.73724  1.0000
  Fe  Fe21      1.0  0.08150  0.22403  0.64133  1.0000
  H   H255      1.0  0.20471  0.21821  0.80606  1.0000
  H   H256      1.0  0.19804  0.21750  0.75127  1.0000
  H   H257      1.0  0.27863  0.21636  0.50145  1.0000
  C   C162      1.0  0.15491  0.97472  0.91582  1.0000
  H   H258      1.0  0.14975  0.97601  0.74174  1.0000
  N   N10       1.0  0.17580  0.97597  0.70957  1.0000
  H   H259      1.0  0.99465  0.19795  0.70347  1.0000
  H   H260      1.0  0.20875  0.97570  0.72936  1.0000
  H   H261      1.0  0.21452  0.97471  0.67400  1.0000
  Fe  Fe22      1.0  0.36495  0.43201  0.13399  1.0000
  S   S45       1.0  0.35107  0.45545  0.12307  1.0000
  S   S46       1.0  0.34440  0.41091  0.14394  1.0000
  Fe  Fe23      1.0  0.41282  0.44329  0.14287  1.0000
  S   S47       1.0  0.44657  0.43784  0.16340  1.0000
  Fe  Fe24      1.0  0.37195  0.46373  0.15877  1.0000
  C   C163      1.0  0.28847  0.25460  0.24899  1.0000
  Fe  Fe25      1.0  0.38292  0.45723  0.09699  1.0000
  H   H262      1.0  0.28069  0.24430  0.00565  1.0000
  S   S48       1.0  0.38325  0.44055  0.17132  1.0000
  S   S49       1.0  0.39568  0.43345  0.10617  1.0000
  Fe  Fe26      1.0  0.32162  0.31905  0.11895  1.0000
  S   S50       1.0  0.34672  0.29935  0.11807  1.0000
  S   S51       1.0  0.33429  0.34239  0.10602  1.0000
  Fe  Fe27      1.0  0.28111  0.29800  0.12808  1.0000
  S   S52       1.0  0.30372  0.27740  0.12796  1.0000
  S   S53       1.0  0.24204  0.29739  0.12830  1.0000
  Fe  Fe28      1.0  0.32725  0.29059  0.15446  1.0000
  S   S54       1.0  0.34781  0.27775  0.18723  1.0000
  Fe  Fe29      1.0  0.32139  0.28767  0.09171  1.0000
  S   S55       1.0  0.32883  0.27111  0.05683  1.0000
  S   S56       1.0  0.30350  0.31097  0.15704  1.0000
  S   S57       1.0  0.29734  0.30762  0.09020  1.0000
  Fe  Fe30      1.0  0.39898  0.24705  0.37822  1.0000
  S   S58       1.0  0.38828  0.27161  0.37689  1.0000
  S   S59       1.0  0.43520  0.23835  0.36641  1.0000
  Fe  Fe31      1.0  0.34951  0.23690  0.38830  1.0000
  S   S60       1.0  0.33693  0.26075  0.38743  1.0000
  Fe  Fe32      1.0  0.35918  0.26411  0.35076  1.0000
  S   S61       1.0  0.34072  0.27806  0.31786  1.0000
  Fe  Fe33      1.0  0.36658  0.26628  0.41381  1.0000
  S   S62       1.0  0.35567  0.28329  0.44668  1.0000
  S   S63       1.0  0.37046  0.23985  0.34987  1.0000
  S   S64       1.0  0.37869  0.24215  0.41679  1.0000
  H   H263      1.0  0.35364  0.46027  0.02316  1.0000
  S   S65       1.0  0.18142  0.23964  0.14919  1.0000
  C   C164      1.0  0.37103  0.27304  0.49754  1.0000
  H   H264      1.0  0.31439  0.26449  0.44315  1.0000
  C   C165      1.0  0.33976  0.40548  0.49040  1.0000
  H   H265      1.0  0.27639  0.25151  0.35156  1.0000
  C   C166      1.0  0.33455  0.27444  0.02157  1.0000
  H   H266      1.0  0.16421  0.22902  0.27273  1.0000
  H   H267      1.0  0.43887  0.46302  0.24676  1.0000
  C   C167      1.0  0.36386  0.47414  0.24115  1.0000
  H   H268      1.0  0.28400  0.26621  0.25557  1.0000
  C   C168      1.0  0.40880  0.26586  0.01969  1.0000
  C   C169      1.0  0.42617  0.47078  0.20587  1.0000
  C   C170      1.0  0.44681  0.29350  0.27266  1.0000
  H   H269      1.0  0.44184  0.26843  0.00216  1.0000
  H   H270      1.0  0.33734  0.29837  0.02464  1.0000
  C   C171      1.0  0.34562  0.27812  0.22354  1.0000
  C   C172      1.0  0.32941  0.28718  0.23716  1.0000
  C   C173      1.0  0.32838  0.28711  0.26605  1.0000
  C   C174      1.0  0.34347  0.27801  0.28164  1.0000
  C   C175      1.0  0.35961  0.26888  0.26806  1.0000
  C   C176      1.0  0.36064  0.26895  0.23915  1.0000
  H   H271      1.0  0.31777  0.29428  0.22543  1.0000
  H   H272      1.0  0.31582  0.29420  0.27638  1.0000
  H   H273      1.0  0.37121  0.26175  0.27977  1.0000
  H   H274      1.0  0.37319  0.26188  0.22877  1.0000
  C   C177      1.0  0.22526  0.28139  0.13492  1.0000
  C   C178      1.0  0.20175  0.28204  0.12904  1.0000
  C   C179      1.0  0.18803  0.26942  0.13304  1.0000
  C   C180      1.0  0.19760  0.25601  0.14339  1.0000
  C   C181      1.0  0.22107  0.25542  0.14950  1.0000
  C   C182      1.0  0.23482  0.26796  0.14522  1.0000
  H   H275      1.0  0.19409  0.29233  0.12112  1.0000
  H   H276      1.0  0.17003  0.27012  0.12834  1.0000
  H   H277      1.0  0.22870  0.24515  0.15752  1.0000
  H   H278      1.0  0.25281  0.26726  0.14997  1.0000
  C   C183      1.0  0.46428  0.24206  0.37481  1.0000
  S   S66       1.0  0.40263  0.46680  0.13212  1.0000
  C   C184      1.0  0.47032  0.25148  0.39638  1.0000
  H   H279      1.0  0.27493  0.26379  0.00779  1.0000
  C   C185      1.0  0.34328  0.39170  0.13353  1.0000
  C   C186      1.0  0.35083  0.38670  0.10778  1.0000
  C   C187      1.0  0.34839  0.37154  0.10007  1.0000
  C   C188      1.0  0.33866  0.36107  0.11800  1.0000
  C   C189      1.0  0.33175  0.36597  0.14406  1.0000
  C   C190      1.0  0.33379  0.38118  0.15157  1.0000
  H   H280      1.0  0.35796  0.39459  0.09350  1.0000
  H   H281      1.0  0.35376  0.36796  0.07982  1.0000
  H   H282      1.0  0.32433  0.35813  0.15821  1.0000
  H   H283      1.0  0.32788  0.38486  0.17155  1.0000
  C   C191      1.0  0.47250  0.43537  0.11630  1.0000
  C   C192      1.0  0.47226  0.43698  0.14479  1.0000
  H   H284      1.0  0.43971  0.40767  0.17594  1.0000
  H   H285      1.0  0.45665  0.43528  0.10504  1.0000
  C   C193      1.0  0.46854  0.39361  0.16452  1.0000
  H   H286      1.0  0.34672  0.43705  0.47711  1.0000
  C   C194      1.0  0.43518  0.40070  0.12093  1.0000
  H   H287      1.0  0.43279  0.29015  0.37470  1.0000
  H   H288      1.0  0.28613  0.25988  0.49595  1.0000
  H   H289      1.0  0.43274  0.29296  0.32687  1.0000
  C   C195      1.0  0.39386  0.39074  0.17996  1.0000
  H   H290      1.0  0.33301  0.25098  0.01147  1.0000
  H   H291      1.0  0.32657  0.29749  0.48646  1.0000
  H   H292      1.0  0.25112  0.23778  0.03362  1.0000
  C   C196      1.0  0.33579  0.26213  0.00362  1.0000
  H   H293      1.0  0.39111  0.39550  0.13697  1.0000
  H   H294      1.0  0.43868  0.38894  0.18775  1.0000
  H   H295      1.0  0.30627  0.23567  0.33779  1.0000
  H   H296      1.0  0.46150  0.28317  0.37635  1.0000
  H   H297      1.0  0.29461  0.26790  0.30079  1.0000
  H   H298      1.0  0.19302  0.24594  0.07063  1.0000
  H   H299      1.0  0.36302  0.46290  0.23302  1.0000
  C   C197      1.0  0.08545  0.22699  0.04198  1.0000
  H   H300      1.0  0.41531  0.35892  0.11258  1.0000
  C   C198      1.0  0.40871  0.36816  0.12591  1.0000
  H   H301      1.0  0.43938  0.27152  0.36307  1.0000
  H   H302      1.0  0.04025  0.22756  0.07460  1.0000
  H   H303      1.0  0.23475  0.23315  0.20766  1.0000
  C   C199      1.0  0.28352  0.26091  0.33990  1.0000
  H   H304      1.0  0.27937  0.27048  0.06430  1.0000
  H   H305      1.0  0.42841  0.40641  0.07843  1.0000
  H   H306      1.0  0.43478  0.41294  0.12544  1.0000
  H   H307      1.0  0.28553  0.25787  0.44301  1.0000
  H   H308      1.0  0.45774  0.25977  0.29013  1.0000
  H   H309      1.0  0.43599  0.24975  0.01118  1.0000
  C   C200      1.0  0.48551  0.27554  0.32872  1.0000
  H   H310      1.0  0.49082  0.46907  0.19540  1.0000
  C   C201      1.0  0.42207  0.39842  0.09402  1.0000
  H   H311      1.0  0.29504  0.23179  0.44875  1.0000
  H   H312      1.0  0.39723  0.36273  0.14086  1.0000
  N   N11       1.0  0.29348  0.24362  0.29813  1.0000
  H   H313      1.0  0.29124  0.25417  0.03418  1.0000
  C   C202      1.0  0.28616  0.24139  0.08331  1.0000
  C   C203      1.0  0.40358  0.39749  0.15337  1.0000
  H   H314      1.0  0.41700  0.27689  0.30067  1.0000
  C   C204      1.0  0.01054  0.24029  0.12248  1.0000
  H   H315      1.0  0.43073  0.36927  0.16062  1.0000
  H   H316      1.0  0.40203  0.39546  0.19839  1.0000
  H   H317      1.0  0.37544  0.39382  0.18152  1.0000
  C   C205      1.0  0.43669  0.45893  0.22562  1.0000
  H   H318      1.0  0.47299  0.38255  0.15538  1.0000
  H   H319      1.0  0.33074  0.24200  0.44940  1.0000
  H   H320      1.0  0.38377  0.26640  0.48656  1.0000
  C   C206      1.0  0.33820  0.28879  0.01108  1.0000
  C   C207      1.0  0.29141  0.23242  0.47111  1.0000
  C   C208      1.0  0.44972  0.28953  0.33489  1.0000
  H   H321      1.0  0.17998  0.23708  0.24488  1.0000
  H   H322      1.0  0.41917  0.25775  0.29102  1.0000
  C   C209      1.0  0.25356  0.25010  0.03468  1.0000
  H   H323      1.0  0.25958  0.27371  0.09069  1.0000
  H   H324      1.0  0.45455  0.25667  0.32567  1.0000
  H   H325      1.0  0.27279  0.24854  0.24415  1.0000
  H   H326      1.0  0.30090  0.26291  0.34763  1.0000
  H   H327      1.0  0.47778  0.28076  0.27477  1.0000
  Fe  Fe34      1.0  0.14586  0.22983  0.14180  1.0000
  C   C210      1.0  0.26023  0.24440  0.08415  1.0000
  H   H328      1.0  0.40352  0.40077  0.09600  1.0000
  H   H329      1.0  0.39542  0.37835  0.18040  1.0000
  C   C211      1.0  0.33217  0.23948  0.47169  1.0000
  C   C212      1.0  0.44575  0.28306  0.36379  1.0000
  C   C213      1.0  0.44267  0.39582  0.16940  1.0000
  H   H330      1.0  0.22230  0.26297  0.08967  1.0000
  N   N12       1.0  0.46283  0.27938  0.31537  1.0000
  C   C214      1.0  0.42453  0.26590  0.30676  1.0000
  H   H331      1.0  0.43748  0.28404  0.26377  1.0000
  C   C215      1.0  0.42839  0.25990  0.00100  1.0000
  H   H332      1.0  0.04104  0.22815  0.03829  1.0000
  H   H333      1.0  0.44477  0.37242  0.12888  1.0000
  C   C216      1.0  0.42902  0.37536  0.14070  1.0000
  S   S67       1.0  0.12208  0.22923  0.10517  1.0000
  H   H334      1.0  0.45714  0.25648  0.40923  1.0000
  N   N13       1.0  0.42731  0.39206  0.14567  1.0000
  C   C217      1.0  0.29823  0.26411  0.45487  1.0000
  H   H335      1.0  0.36810  0.44946  0.48834  1.0000
  H   H336      1.0  0.26099  0.23708  0.28169  1.0000
  H   H337      1.0  0.45317  0.39773  0.11570  1.0000
  H   H338      1.0  0.40302  0.40990  0.15589  1.0000
  S   S68       1.0  0.39073  0.47114  0.05826  1.0000
  H   H339      1.0  0.31971  0.25239  0.27176  1.0000
  H   H340      1.0  0.19401  0.22887  0.27471  1.0000
  C   C218      1.0  0.22522  0.25741  0.06961  1.0000
  H   H341      1.0  0.39849  0.37572  0.11254  1.0000
  C   C219      1.0  0.27478  0.23249  0.29513  1.0000
  H   H342      1.0  0.12475  0.24737  0.48892  1.0000
  H   H343      1.0  0.29818  0.25567  0.22950  1.0000
  C   C220      1.0  0.17990  0.22775  0.26002  1.0000
  H   H344      1.0  0.39365  0.25880  0.01964  1.0000
  H   H345      1.0  0.42582  0.46509  0.18560  1.0000
  C   C221      1.0  0.45085  0.26501  0.30924  1.0000
  N   N14       1.0  0.25579  0.35644  0.10853  1.0000
  C   C222      1.0  0.25747  0.34031  0.11818  1.0000
  C   C223      1.0  0.25710  0.35623  0.07761  1.0000
  C   C224      1.0  0.23279  0.36274  0.11731  1.0000
  C   C225      1.0  0.27482  0.36494  0.12154  1.0000
  C   C226      1.0  0.25364  0.33767  0.14914  1.0000
  C   C227      1.0  0.27896  0.34891  0.06539  1.0000
  C   C228      1.0  0.22664  0.37894  0.10849  1.0000
  C   C229      1.0  0.28230  0.37945  0.10697  1.0000
  H   H346      1.0  0.24511  0.33327  0.10704  1.0000
  H   H347      1.0  0.27463  0.33529  0.11361  1.0000
  H   H348      1.0  0.25560  0.36760  0.06862  1.0000
  H   H349      1.0  0.24239  0.35018  0.06899  1.0000
  H   H350      1.0  0.21902  0.35547  0.10973  1.0000
  H   H351      1.0  0.23128  0.36285  0.14005  1.0000
  H   H352      1.0  0.27055  0.36786  0.14317  1.0000
  H   H353      1.0  0.29040  0.35757  0.12270  1.0000
  H   H354      1.0  0.23550  0.33945  0.15502  1.0000
  H   H355      1.0  0.25785  0.32575  0.15402  1.0000
  H   H356      1.0  0.26475  0.34459  0.16201  1.0000
  H   H357      1.0  0.27974  0.35139  0.04308  1.0000
  H   H358      1.0  0.29463  0.35322  0.07473  1.0000
  H   H359      1.0  0.27899  0.33653  0.06744  1.0000
  H   H360      1.0  0.23743  0.38710  0.11908  1.0000
  H   H361      1.0  0.20883  0.38164  0.11500  1.0000
  H   H362      1.0  0.22713  0.38059  0.08599  1.0000
  H   H363      1.0  0.28711  0.38776  0.12274  1.0000
  H   H364      1.0  0.26939  0.38506  0.09379  1.0000
  H   H365      1.0  0.29809  0.37729  0.09486  1.0000
  H   H366      1.0  0.29601  0.25167  0.08602  1.0000
  H   H367      1.0  0.21671  0.26491  0.05423  1.0000
  H   H368      1.0  0.41647  0.26210  0.32609  1.0000
  H   H369      1.0  0.25584  0.24798  0.10546  1.0000
  H   H370      1.0  0.26663  0.26088  0.30054  1.0000
  C   C230      1.0  0.36309  0.46841  0.01167  1.0000
  S   S69       1.0  0.05738  0.23636  0.12847  1.0000
  H   H371      1.0  0.39790  0.31410  0.49209  1.0000
  H   H372      1.0  0.33019  0.40511  0.47078  1.0000
  H   H373      1.0  0.00242  0.22637  0.04967  1.0000
  C   C231      1.0  0.48189  0.23562  0.35857  1.0000
  H   H374      1.0  0.21465  0.23589  0.05165  1.0000
  H   H375      1.0  0.40327  0.27748  0.01420  1.0000
  H   H376      1.0  0.39715  0.23508  0.00659  1.0000
  H   H377      1.0  0.41494  0.26624  0.04121  1.0000
  H   H378      1.0  0.29144  0.23541  0.06435  1.0000
  Fe  Fe35      1.0  0.09331  0.22555  0.13586  1.0000
  H   H379      1.0  0.21904  0.23520  0.23867  1.0000
  H   H380      1.0  0.47528  0.40274  0.15154  1.0000
  H   H381      1.0  0.45287  0.30020  0.25499  1.0000
  H   H382      1.0  0.48309  0.26891  0.34777  1.0000
  C   C232      1.0  0.49293  0.43717  0.15918  1.0000
  H   H383      1.0  0.21497  0.23626  0.08899  1.0000
  H   H384      1.0  0.45871  0.30026  0.33760  1.0000
  H   H385      1.0  0.46571  0.46696  0.17593  1.0000
  H   H386      1.0  0.45330  0.45446  0.21784  1.0000
  C   C233      1.0  0.26292  0.22754  0.32168  1.0000
  H   H387      1.0  0.25267  0.23323  0.08140  1.0000
  C   C234      1.0  0.31238  0.23778  0.31660  1.0000
  H   H388      1.0  0.32555  0.24644  0.31881  1.0000
  H   H389      1.0  0.24017  0.25532  0.02125  1.0000
  H   H390      1.0  0.42537  0.38702  0.08566  1.0000
  N   N15       1.0  0.25046  0.25560  0.06377  1.0000
  C   C235      1.0  0.27645  0.25343  0.02041  1.0000
  H   H391      1.0  0.26169  0.29352  0.05312  1.0000
  N   N16       1.0  0.30930  0.24135  0.48566  1.0000
  H   H392      1.0  0.30869  0.23524  0.26019  1.0000
  H   H393      1.0  0.35685  0.40930  0.48460  1.0000
  H   H394      1.0  0.47817  0.29776  0.29380  1.0000
  H   H395      1.0  0.23370  0.28762  0.06106  1.0000
  S   S70       1.0  0.11684  0.22839  0.17256  1.0000
  C   C236      1.0  0.26087  0.27064  0.06860  1.0000
  H   H396      1.0  0.29099  0.23387  0.10066  1.0000
  H   H397      1.0  0.47756  0.22826  0.34190  1.0000
  H   H398      1.0  0.47754  0.39429  0.18448  1.0000
  C   C237      1.0  0.35513  0.28187  0.48294  1.0000
  H   H399      1.0  0.29177  0.27590  0.45654  1.0000
  H   H400      1.0  0.43514  0.30098  0.28456  1.0000
  C   C238      1.0  0.02838  0.23040  0.13095  1.0000
  H   H401      1.0  0.01461  0.25132  0.11503  1.0000
  C   C239      1.0  0.30371  0.24609  0.27005  1.0000
  C   C240      1.0  0.46764  0.28786  0.28930  1.0000
  H   H402      1.0  0.42520  0.44926  0.22665  1.0000
  C   C241      1.0  0.28413  0.25854  0.30853  1.0000
  C   C242      1.0  0.35291  0.44327  0.49513  1.0000
  C   C243      1.0  0.21152  0.24290  0.07007  1.0000
  H   H403      1.0  0.07708  0.23776  0.04831  1.0000
  H   H404      1.0  0.27430  0.23812  0.47265  1.0000
  H   H405      1.0  0.36189  0.46701  0.28346  1.0000
  H   H406      1.0  0.24803  0.28103  0.03012  1.0000
  C   C244      1.0  0.30211  0.25771  0.48403  1.0000
  H   H407      1.0  0.27307  0.27116  0.34463  1.0000
  C   C245      1.0  0.25027  0.28383  0.05205  1.0000
  H   H408      1.0  0.34431  0.24773  0.47974  1.0000
  H   H409      1.0  0.10414  0.22847  0.04334  1.0000
  H   H410      1.0  0.25281  0.23688  0.33101  1.0000
  H   H411      1.0  0.31510  0.26486  0.49342  1.0000
  H   H412      1.0  0.33471  0.22479  0.28815  1.0000
  H   H413      1.0  0.08125  0.22472  0.02027  1.0000
  C   C246      1.0  0.22884  0.22701  0.22610  1.0000
  H   H414      1.0  0.40784  0.47239  0.21119  1.0000
  H   H415      1.0  0.49282  0.43833  0.18125  1.0000
  C   C247      1.0  0.33891  0.29059  0.49758  1.0000
  C   C248      1.0  0.49338  0.43346  0.10240  1.0000
  Fe  Fe36      1.0  0.37982  0.42903  0.61925  1.0000
  S   S71       1.0  0.35095  0.44615  0.62078  1.0000
  S   S72       1.0  0.37814  0.40312  0.62045  1.0000
  Fe  Fe37      1.0  0.41511  0.45393  0.61911  1.0000
  S   S73       1.0  0.45096  0.46254  0.61753  1.0000
  Fe  Fe38      1.0  0.37165  0.45820  0.65277  1.0000
  H   H416      1.0  0.34802  0.31641  0.56757  1.0000
  Fe  Fe39      1.0  0.37058  0.45920  0.58886  1.0000
  H   H417      1.0  0.40442  0.30592  0.52452  1.0000
  S   S74       1.0  0.39954  0.44037  0.65283  1.0000
  S   S75       1.0  0.39817  0.44125  0.58534  1.0000
  Fe  Fe40      1.0  0.30712  0.32451  0.61993  1.0000
  S   S76       1.0  0.33864  0.31251  0.63544  1.0000
  S   S77       1.0  0.30648  0.35000  0.61071  1.0000
  Fe  Fe41      1.0  0.27936  0.29473  0.61991  1.0000
  S   S78       1.0  0.31000  0.28156  0.63549  1.0000
  S   S79       1.0  0.25123  0.27825  0.60885  1.0000
  Fe  Fe42      1.0  0.31523  0.30061  0.66444  1.0000
  S   S80       1.0  0.31823  0.29971  0.71112  1.0000
  Fe  Fe43      1.0  0.33003  0.29462  0.60468  1.0000
  S   S81       1.0  0.35658  0.28287  0.57740  1.0000
  S   S82       1.0  0.28364  0.31344  0.65041  1.0000
  S   S83       1.0  0.29954  0.30703  0.58768  1.0000
  Fe  Fe44      1.0  0.39722  0.23904  0.88485  1.0000
  S   S84       1.0  0.38815  0.26219  0.86980  1.0000
  C   C249      1.0  0.35052  0.41268  0.55248  1.0000
  C   C250      1.0  0.37647  0.43351  0.74863  1.0000
  S   S85       1.0  0.33399  0.25314  0.87006  1.0000
  Fe  Fe45      1.0  0.36383  0.25104  0.84094  1.0000
  S   S86       1.0  0.36557  0.25294  0.79415  1.0000
  Fe  Fe46      1.0  0.35925  0.26178  0.90059  1.0000
  S   S87       1.0  0.35247  0.28114  0.93022  1.0000
  C   C251      1.0  0.40402  0.26691  0.96036  1.0000
  S   S88       1.0  0.36942  0.23918  0.91709  1.0000
  H   H418      1.0  0.47458  0.25278  0.78628  1.0000
  S   S89       1.0  0.15063  0.25882  0.64323  1.0000
  C   C252      1.0  0.13375  0.27128  0.57457  1.0000
  C   C253      1.0  0.47845  0.23234  0.80971  1.0000
  H   H419      1.0  0.12117  0.22937  0.50545  1.0000
  C   C254      1.0  0.34330  0.29072  0.98299  1.0000
  C   C255      1.0  0.35492  0.28210  0.54109  1.0000
  C   C256      1.0  0.37111  0.27334  0.52647  1.0000
  C   C257      1.0  0.12187  0.24840  0.53433  1.0000
  C   C258      1.0  0.34460  0.27838  0.96508  1.0000
  C   C259      1.0  0.33844  0.29043  0.52646  1.0000
  N   N17       1.0  0.42249  0.25652  0.97152  1.0000
  H   H420      1.0  0.38391  0.26682  0.53759  1.0000
  H   H421      1.0  0.34120  0.25452  0.96197  1.0000
  H   H422      1.0  0.34637  0.30183  0.97514  1.0000
  H   H423      1.0  0.32579  0.29716  0.53734  1.0000
  C   C260      1.0  0.33138  0.28641  0.73368  1.0000
  C   C261      1.0  0.34380  0.27385  0.72417  1.0000
  C   C262      1.0  0.35397  0.26368  0.74301  1.0000
  C   C263      1.0  0.35171  0.26586  0.77149  1.0000
  C   C264      1.0  0.33899  0.27829  0.78097  1.0000
  C   C265      1.0  0.32896  0.28852  0.76214  1.0000
  H   H424      1.0  0.34579  0.27208  0.70235  1.0000
  H   H425      1.0  0.36375  0.25409  0.73546  1.0000
  H   H426      1.0  0.33712  0.28013  0.80279  1.0000
  H   H427      1.0  0.31936  0.29819  0.76971  1.0000
  C   C266      1.0  0.22360  0.27291  0.62001  1.0000
  C   C267      1.0  0.20893  0.28251  0.63486  1.0000
  C   C268      1.0  0.18682  0.27794  0.64202  1.0000
  C   C269      1.0  0.17914  0.26366  0.63483  1.0000
  C   C270      1.0  0.19405  0.25391  0.62065  1.0000
  C   C271      1.0  0.21596  0.25858  0.61298  1.0000
  H   H428      1.0  0.21432  0.29362  0.64009  1.0000
  H   H429      1.0  0.17546  0.28562  0.65294  1.0000
  H   H430      1.0  0.18857  0.24283  0.61531  1.0000
  H   H431      1.0  0.22714  0.25102  0.60156  1.0000
  C   C272      1.0  0.46277  0.23800  0.88796  1.0000
  H   H432      1.0  0.19125  0.26360  0.53688  1.0000
  C   C273      1.0  0.46681  0.25268  0.87929  1.0000
  Fe  Fe47      1.0  0.34513  0.23031  0.88548  1.0000
  C   C274      1.0  0.35760  0.38865  0.61887  1.0000
  C   C275      1.0  0.33452  0.39161  0.61336  1.0000
  C   C276      1.0  0.31923  0.37969  0.61103  1.0000
  C   C277      1.0  0.32653  0.36463  0.61497  1.0000
  C   C278      1.0  0.34951  0.36173  0.62132  1.0000
  C   C279      1.0  0.36491  0.37361  0.62291  1.0000
  H   H433      1.0  0.32843  0.40306  0.61078  1.0000
  H   H434      1.0  0.30150  0.38215  0.60636  1.0000
  H   H435      1.0  0.35543  0.35032  0.62497  1.0000
  H   H436      1.0  0.38265  0.37113  0.62750  1.0000
  H   H437      1.0  0.32148  0.25776  0.53616  1.0000
  C   C280      1.0  0.47491  0.45076  0.62388  1.0000
  C   C281      1.0  0.47368  0.43516  0.62278  1.0000
  C   C282      1.0  0.33359  0.33591  0.54719  1.0000
  H   H438      1.0  0.45752  0.43005  0.61891  1.0000
  C   C283      1.0  0.46502  0.24691  0.80271  1.0000
  H   H439      1.0  0.32438  0.40926  0.76745  1.0000
  H   H440      1.0  0.19377  0.23908  0.52798  1.0000
  C   C284      1.0  0.39378  0.23600  0.98427  1.0000
  H   H441      1.0  0.34487  0.39502  0.72607  1.0000
  H   H442      1.0  0.15641  0.22977  0.51994  1.0000
  H   H443      1.0  0.32767  0.24089  0.55434  1.0000
  H   H444      1.0  0.36506  0.31388  0.52338  1.0000
  H   H445      1.0  0.34000  0.45191  0.50122  1.0000
  N   N18       1.0  0.37657  0.32948  0.55408  1.0000
  H   H446      1.0  0.37619  0.39520  0.56066  1.0000
  H   H447      1.0  0.40859  0.24189  0.81560  1.0000
  H   H448      1.0  0.39461  0.42975  0.74773  1.0000
  C   C285      1.0  0.38261  0.34578  0.55406  1.0000
  H   H449      1.0  0.37815  0.32668  0.61350  1.0000
  H   H450      1.0  0.49262  0.41408  0.62501  1.0000
  C   C286      1.0  0.15839  0.23529  0.54017  1.0000
  C   C287      1.0  0.38460  0.39198  0.69676  1.0000
  C   C288      1.0  0.35253  0.32838  0.56489  1.0000
  H   H451      1.0  0.38837  0.26662  0.97299  1.0000
  H   H452      1.0  0.31682  0.33378  0.55681  1.0000
  H   H453      1.0  0.14035  0.27705  0.59297  1.0000
  H   H454      1.0  0.43886  0.25726  0.93163  1.0000
  H   H455      1.0  0.35965  0.41757  0.66824  1.0000
  H   H456      1.0  0.33563  0.44114  0.56216  1.0000
  H   H457      1.0  0.46044  0.23611  0.95144  1.0000
  H   H458      1.0  0.29662  0.43732  0.57425  1.0000
  C   C289      1.0  0.41525  0.24051  0.96849  1.0000
  H   H459      1.0  0.39859  0.26320  0.93962  1.0000
  H   H460      1.0  0.35073  0.33353  0.58552  1.0000
  H   H461      1.0  0.40579  0.31810  0.61384  1.0000
  H   H462      1.0  0.38562  0.30845  0.57406  1.0000
  H   H463      1.0  0.37644  0.44571  0.75334  1.0000
  H   H464      1.0  0.33293  0.43767  0.67991  1.0000
  H   H465      1.0  0.37759  0.38397  0.71178  1.0000
  H   H466      1.0  0.42025  0.28748  0.97547  1.0000
  H   H467      1.0  0.41220  0.26071  0.78425  1.0000
  H   H468      1.0  0.38775  0.41196  0.54743  1.0000
  H   H469      1.0  0.37411  0.43727  0.70508  1.0000
  H   H470      1.0  0.11210  0.25927  0.53481  1.0000
  H   H471      1.0  0.40261  0.38838  0.69299  1.0000
  C   C290      1.0  0.37700  0.32325  0.52523  1.0000
  H   H472      1.0  0.46648  0.25393  0.82134  1.0000
  H   H473      1.0  0.42108  0.28225  0.80858  1.0000
  C   C291      1.0  0.35995  0.43266  0.51892  1.0000
  H   H474      1.0  0.37567  0.39098  0.67689  1.0000
  H   H475      1.0  0.36841  0.43946  0.53485  1.0000
  H   H476      1.0  0.40911  0.35054  0.52363  1.0000
  H   H477      1.0  0.31810  0.44347  0.53285  1.0000
  S   S90       1.0  0.04440  0.22870  0.65613  1.0000
  H   H478      1.0  0.15028  0.22782  0.55548  1.0000
  C   C292      1.0  0.30543  0.42818  0.56253  1.0000
  H   H479      1.0  0.36768  0.42797  0.76586  1.0000
  C   C293      1.0  0.43249  0.27237  0.81291  1.0000
  H   H480      1.0  0.31860  0.42325  0.66250  1.0000
  C   C294      1.0  0.34799  0.41497  0.68554  1.0000
  C   C295      1.0  0.34055  0.26409  0.97553  1.0000
  H   H481      1.0  0.45008  0.26986  0.95592  1.0000
  C   C296      1.0  0.34884  0.40631  0.73413  1.0000
  H   H482      1.0  0.33502  0.34826  0.54646  1.0000
  H   H483      1.0  0.36034  0.40376  0.75180  1.0000
  H   H484      1.0  0.34478  0.24526  0.52537  1.0000
  C   C297      1.0  0.32713  0.24589  0.53345  1.0000
  C   C298      1.0  0.32612  0.41277  0.74567  1.0000
  H   H485      1.0  0.32484  0.42513  0.74614  1.0000
  C   C299      1.0  0.44334  0.25840  0.95374  1.0000
  H   H486      1.0  0.31470  0.42520  0.69855  1.0000
  C   C300      1.0  0.46369  0.24750  0.95942  1.0000
  H   H487      1.0  0.45254  0.26038  0.87576  1.0000
  H   H488      1.0  0.49216  0.26882  0.86842  1.0000
  H   H489      1.0  0.29262  0.42357  0.54842  1.0000
  H   H490      1.0  0.39415  0.40782  0.72700  1.0000
  C   C301      1.0  0.36420  0.43134  0.72105  1.0000
  S   S91       1.0  0.10036  0.23598  0.60777  1.0000
  H   H491      1.0  0.37848  0.35123  0.57407  1.0000
  C   C302      1.0  0.32566  0.43485  0.54684  1.0000
  S   S92       1.0  0.35429  0.46629  0.69273  1.0000
  H   H492      1.0  0.31144  0.40842  0.73410  1.0000
  C   C303      1.0  0.32741  0.42593  0.68196  1.0000
  H   H493      1.0  0.14309  0.24842  0.58462  1.0000
  H   H494      1.0  0.42707  0.26764  0.83279  1.0000
  H   H495      1.0  0.31093  0.41956  0.57768  1.0000
  S   S93       1.0  0.37394  0.22760  0.85495  1.0000
  C   C304      1.0  0.38405  0.40821  0.70774  1.0000
  H   H496      1.0  0.16208  0.25417  0.50069  1.0000
  C   C305      1.0  0.43928  0.23697  0.76785  1.0000
  C   C306      1.0  0.31039  0.23711  0.51563  1.0000
  H   H497      1.0  0.31516  0.22509  0.51844  1.0000
  N   N19       1.0  0.26268  0.26963  0.71093  1.0000
  C   C307      1.0  0.26888  0.27633  0.73829  1.0000
  C   C308      1.0  0.25729  0.28253  0.69173  1.0000
  C   C309      1.0  0.28338  0.26104  0.70029  1.0000
  C   C310      1.0  0.24284  0.25945  0.71516  1.0000
  C   C311      1.0  0.27842  0.26533  0.76021  1.0000
  C   C312      1.0  0.23781  0.29336  0.70092  1.0000
  C   C313      1.0  0.28085  0.25298  0.67263  1.0000
  C   C314      1.0  0.22783  0.25626  0.68985  1.0000
  H   H498      1.0  0.28164  0.28519  0.73564  1.0000
  H   H499      1.0  0.25382  0.28210  0.74788  1.0000
  H   H500      1.0  0.25301  0.27876  0.67083  1.0000
  H   H501      1.0  0.27268  0.28937  0.68877  1.0000
  H   H502      1.0  0.29807  0.26865  0.69840  1.0000
  H   H503      1.0  0.28890  0.25205  0.71481  1.0000
  H   H504      1.0  0.24893  0.24845  0.72365  1.0000
  H   H505      1.0  0.23095  0.26434  0.73081  1.0000
  H   H506      1.0  0.26773  0.25540  0.76285  1.0000
  H   H507      1.0  0.29630  0.26175  0.75559  1.0000
  H   H508      1.0  0.27896  0.27119  0.78028  1.0000
  H   H509      1.0  0.22219  0.28742  0.70665  1.0000
  H   H510      1.0  0.24321  0.30054  0.71814  1.0000
  H   H511      1.0  0.23338  0.30107  0.68368  1.0000
  H   H512      1.0  0.34173  0.40353  0.68138  1.0000
  H   H513      1.0  0.27509  0.26056  0.65586  1.0000
  H   H514      1.0  0.11582  0.26848  0.57917  1.0000
  H   H515      1.0  0.22214  0.24450  0.69088  1.0000
  H   H516      1.0  0.23620  0.25751  0.66976  1.0000
  H   H517      1.0  0.21191  0.26330  0.69026  1.0000
  C   C315      1.0  0.32695  0.41608  0.51045  1.0000
  H   H518      1.0  0.47888  0.25142  0.94813  1.0000
  H   H519      1.0  0.40939  0.31880  0.56465  1.0000
  H   H520      1.0  0.37885  0.24352  0.98029  1.0000
  S   S94       1.0  0.35266  0.46939  0.55088  1.0000
  H   H521      1.0  0.35367  0.41832  0.57247  1.0000
  C   C316      1.0  0.39181  0.32012  0.57274  1.0000
  C   C317      1.0  0.41042  0.28353  0.95768  1.0000
  C   C318      1.0  0.39448  0.32603  0.60223  1.0000
  H   H522      1.0  0.42009  0.34111  0.55392  1.0000
  N   N20       1.0  0.36069  0.41533  0.71247  1.0000
  H   H523      1.0  0.39464  0.29067  0.95618  1.0000
  H   H524      1.0  0.45002  0.27660  0.81468  1.0000
  C   C319      1.0  0.37319  0.40436  0.54550  1.0000
  H   H525      1.0  0.34796  0.43791  0.72253  1.0000
  S   S95       1.0  0.11034  0.22767  0.67127  1.0000
  C   C320      1.0  0.14828  0.25689  0.56916  1.0000
  H   H526      1.0  0.41398  0.32456  0.51608  1.0000
  H   H527      1.0  0.39400  0.41503  0.69301  1.0000
  Fe  Fe48      1.0  0.13055  0.23737  0.63633  1.0000
  H   H528      1.0  0.99976  0.23575  0.67830  1.0000
  H   H529      1.0  0.37170  0.35222  0.53931  1.0000
  C   C321      1.0  0.43067  0.26104  0.78920  1.0000
  H   H530      1.0  0.29780  0.24829  0.66633  1.0000
  H   H531      1.0  0.40256  0.33711  0.60262  1.0000
  H   H532      1.0  0.26940  0.24336  0.67445  1.0000
  H   H533      1.0  0.33293  0.33124  0.52618  1.0000
  N   N21       1.0  0.44041  0.24542  0.79455  1.0000
  H   H534      1.0  0.31400  0.40905  0.52055  1.0000
  H   H535      1.0  0.37332  0.39915  0.52501  1.0000
  H   H536      1.0  0.43887  0.26613  0.77089  1.0000
  H   H537      1.0  0.42028  0.28536  0.93857  1.0000
  H   H538      1.0  0.33791  0.40393  0.55706  1.0000
  H   H539      1.0  0.38895  0.22466  0.97741  1.0000
  C   C322      1.0  0.40729  0.34940  0.54621  1.0000
  H   H540      1.0  0.44997  0.24242  0.75198  1.0000
  H   H541      1.0  0.41185  0.36014  0.55600  1.0000
  H   H542      1.0  0.37081  0.33185  0.51019  1.0000
  N   N22       1.0  0.34105  0.42381  0.53163  1.0000
  H   H543      1.0  0.40900  0.24639  0.74642  1.0000
  C   C323      1.0  0.39984  0.31673  0.51422  1.0000
  H   H544      1.0  0.41255  0.23785  0.94646  1.0000
  C   C324      1.0  0.18419  0.23462  0.54568  1.0000
  C   C325      1.0  0.11651  0.24147  0.50615  1.0000
  H   H545      1.0  0.29320  0.23858  0.52518  1.0000
  C   C326      1.0  0.17707  0.27027  0.52767  1.0000
  S   S96       1.0  0.38838  0.47252  0.62098  1.0000
  H   H546      1.0  0.16605  0.25938  0.57473  1.0000
  H   H547      1.0  0.46859  0.46162  0.55754  1.0000
  C   C327      1.0  0.42686  0.23831  0.81724  1.0000
  H   H548      1.0  0.17184  0.27929  0.54219  1.0000
  N   N23       1.0  0.14676  0.25059  0.54056  1.0000
  H   H549      1.0  0.40257  0.23187  0.77083  1.0000
  H   H550      1.0  0.34259  0.46654  0.97511  1.0000
  H   H551      1.0  0.43250  0.24241  0.83757  1.0000
  S   S97       1.0  0.43459  0.23125  0.89400  1.0000
  C   C328      1.0  0.15665  0.26077  0.51906  1.0000
  C   C329      1.0  0.41520  0.23561  0.75556  1.0000
  C   C330      1.0  0.48180  0.22834  0.89276  1.0000
  H   H552      1.0  0.18894  0.24029  0.56487  1.0000
  H   H553      1.0  0.13406  0.27928  0.55718  1.0000
  H   H554      1.0  0.09780  0.24226  0.50271  1.0000
  H   H555      1.0  0.11399  0.24121  0.55026  1.0000
  H   H556      1.0  0.18397  0.27590  0.50921  1.0000
  H   H557      1.0  0.37382  0.42535  0.51053  1.0000
  C   C331      1.0  0.48940  0.25747  0.87523  1.0000
  H   H558      1.0  0.46806  0.24688  0.98150  1.0000
  H   H559      1.0  0.14348  0.26899  0.51136  1.0000
  C   C332      1.0  0.35687  0.47199  0.98434  1.0000
  H   H560      1.0  0.41577  0.22724  0.73873  1.0000
  H   H561      1.0  0.07173  0.23172  0.74921  1.0000
  H   H562      1.0  0.34122  0.39394  0.49893  1.0000
  C   C333      1.0  0.48439  0.46803  0.55469  1.0000
  H   H563      1.0  0.42883  0.23249  0.97560  1.0000
  C   C334      1.0  0.99723  0.22872  0.66059  1.0000
  H   H564      1.0  0.33484  0.47437  0.74512  1.0000
  H   H565      1.0  0.47187  0.22711  0.82871  1.0000
  H   H566      1.0  0.44667  0.22546  0.76954  1.0000
  H   H567      1.0  0.31648  0.42431  0.49826  1.0000
  Fe  Fe49      1.0  0.26611  0.67610  0.36532  1.0000
  S   S98       1.0  0.28561  0.69686  0.37248  1.0000
  S   S99       1.0  0.22744  0.67650  0.35853  1.0000
  Fe  Fe50      1.0  0.30938  0.65524  0.37064  1.0000
  S   S100      1.0  0.33097  0.67534  0.37921  1.0000
  S   S101      1.0  0.33175  0.63349  0.36691  1.0000
  Fe  Fe51      1.0  0.30269  0.68378  0.40688  1.0000
  S   S102      1.0  0.30128  0.69562  0.44875  1.0000
  Fe  Fe52      1.0  0.31197  0.68649  0.34413  1.0000
  S   S103      1.0  0.33124  0.70031  0.31247  1.0000
  S   S104      1.0  0.28212  0.66312  0.40065  1.0000
  S   S105      1.0  0.29144  0.66636  0.33454  1.0000
  Fe  Fe53      1.0  0.35241  0.70381  0.14766  1.0000
  S   S106      1.0  0.33741  0.68997  0.18282  1.0000
  Fe  Fe54      1.0  0.35780  0.70218  0.08457  1.0000
  S   S107      1.0  0.34971  0.68607  0.04942  1.0000
  C   C335      1.0  0.42620  0.49133  0.25436  1.0000
  H   H568      1.0  0.34615  0.49673  0.46292  1.0000
  S   S108      1.0  0.38021  0.69437  0.11997  1.0000
  S   S109      1.0  0.32898  0.70974  0.11231  1.0000
  S   S110      1.0  0.13304  0.71336  0.37424  1.0000
  Fe  Fe55      1.0  0.35716  0.54286  0.37323  1.0000
  S   S111      1.0  0.34852  0.51867  0.38287  1.0000
  S   S112      1.0  0.32889  0.56136  0.37298  1.0000
  Fe  Fe56      1.0  0.40700  0.53415  0.36374  1.0000
  S   S113      1.0  0.40198  0.50982  0.37218  1.0000
  S   S114      1.0  0.44114  0.54417  0.35449  1.0000
  Fe  Fe57      1.0  0.37061  0.51267  0.34610  1.0000
  S   S115      1.0  0.36202  0.49337  0.31713  1.0000
  Fe  Fe58      1.0  0.38067  0.51745  0.40829  1.0000
  S   S116      1.0  0.39239  0.50687  0.44940  1.0000
  S   S117      1.0  0.37710  0.53668  0.33509  1.0000
  S   S118      1.0  0.38761  0.54194  0.40111  1.0000
  H   H569      1.0  0.16675  0.70153  0.46765  1.0000
  C   C336      1.0  0.36444  0.49103  0.28089  1.0000
  H   H570      1.0  0.47086  0.49926  0.41658  1.0000
  H   H571      1.0  0.43028  0.54411  0.48278  1.0000
  C   C337      1.0  0.48373  0.50772  0.36076  1.0000
  C   C338      1.0  0.34968  0.70229  0.00022  1.0000
  H   H572      1.0  0.41346  0.49252  0.17240  1.0000
  C   C339      1.0  0.38079  0.49636  0.47720  1.0000
  H   H573      1.0  0.28662  0.52289  0.36854  1.0000
  H   H574      1.0  0.24920  0.67629  0.44525  1.0000
  H   H575      1.0  0.36620  0.67666  0.33591  1.0000
  N   N24       1.0  0.21474  0.69825  0.45460  1.0000
  H   H576      1.0  0.46777  0.71706  0.46843  1.0000
  H   H577      1.0  0.19612  0.68631  0.48594  1.0000
  C   C340      1.0  0.46571  0.53244  0.35674  1.0000
  C   C341      1.0  0.46410  0.51685  0.35732  1.0000
  C   C342      1.0  0.18206  0.71657  0.29317  1.0000
  H   H578      1.0  0.44774  0.51182  0.35516  1.0000
  C   C343      1.0  0.33034  0.61345  0.36888  1.0000
  C   C344      1.0  0.35066  0.60472  0.36649  1.0000
  C   C345      1.0  0.35061  0.58887  0.36784  1.0000
  C   C346      1.0  0.33013  0.58143  0.37145  1.0000
  C   C347      1.0  0.30978  0.59015  0.37359  1.0000
  C   C348      1.0  0.30985  0.60601  0.37240  1.0000
  H   H579      1.0  0.36664  0.61027  0.36379  1.0000
  H   H580      1.0  0.36643  0.58242  0.36613  1.0000
  H   H581      1.0  0.29380  0.58460  0.37638  1.0000
  H   H582      1.0  0.29405  0.61248  0.37424  1.0000
  C   C349      1.0  0.32110  0.69573  0.47639  1.0000
  H   H583      1.0  0.28387  0.54274  0.37071  1.0000
  C   C350      1.0  0.28009  0.52439  0.26288  1.0000
  C   C351      1.0  0.34680  0.68848  0.01329  1.0000
  H   H584      1.0  0.43887  0.48419  0.15937  1.0000
  C   C352      1.0  0.44335  0.53421  0.43165  1.0000
  C   C353      1.0  0.44134  0.50756  0.16900  1.0000
  H   H585      1.0  0.35403  0.71196  0.01224  1.0000
  H   H586      1.0  0.40965  0.49999  0.21830  1.0000
  H   H587      1.0  0.34481  0.67945  0.45933  1.0000
  C   C354      1.0  0.33146  0.69806  0.27617  1.0000
  C   C355      1.0  0.31771  0.68776  0.26298  1.0000
  C   C356      1.0  0.31941  0.68571  0.23435  1.0000
  C   C357      1.0  0.33463  0.69403  0.21844  1.0000
  C   C358      1.0  0.34799  0.70458  0.23154  1.0000
  C   C359      1.0  0.34645  0.70653  0.26023  1.0000
  H   H588      1.0  0.30586  0.68131  0.27484  1.0000
  H   H589      1.0  0.30891  0.67758  0.22442  1.0000
  H   H590      1.0  0.35982  0.71103  0.21964  1.0000
  C   C360      1.0  0.46299  0.48441  0.20817  1.0000
  C   C361      1.0  0.20238  0.68823  0.36171  1.0000
  C   C362      1.0  0.20225  0.70378  0.36683  1.0000
  C   C363      1.0  0.18124  0.71194  0.37060  1.0000
  C   C364      1.0  0.16039  0.70456  0.36910  1.0000
  C   C365      1.0  0.16085  0.68917  0.36368  1.0000
  C   C366      1.0  0.18149  0.68116  0.35992  1.0000
  H   H591      1.0  0.25161  0.69859  0.46055  1.0000
  H   H592      1.0  0.31115  0.54371  0.00113  1.0000
  H   H593      1.0  0.14500  0.68330  0.36247  1.0000
  H   H594      1.0  0.18122  0.66923  0.35598  1.0000
  C   C367      1.0  0.48396  0.52725  0.43264  1.0000
  H   H595      1.0  0.21970  0.71726  0.29793  1.0000
  H   H596      1.0  0.33244  0.55061  0.30192  1.0000
  C   C368      1.0  0.48722  0.53883  0.35881  1.0000
  H   H597      1.0  0.27180  0.71220  0.00206  1.0000
  C   C369      1.0  0.20664  0.71185  0.28529  1.0000
  H   H598      1.0  0.28531  0.49611  0.28771  1.0000
  H   H599      1.0  0.23431  0.71907  0.41390  1.0000
  C   C370      1.0  0.19678  0.70939  0.44447  1.0000
  H   H600      1.0  0.26926  0.68417  0.01308  1.0000
  H   H601      1.0  0.43699  0.51035  0.14737  1.0000
  C   C371      1.0  0.36330  0.47651  0.26979  1.0000
  C   C372      1.0  0.20959  0.69482  0.48432  1.0000
  H   H602      1.0  0.43418  0.52556  0.49722  1.0000
  H   H603      1.0  0.21282  0.68701  0.41520  1.0000
  Fe  Fe59      1.0  0.39442  0.71763  0.11946  1.0000
  H   H604      1.0  0.16039  0.71393  0.43971  1.0000
  H   H605      1.0  0.46129  0.55335  0.41368  1.0000
  H   H606      1.0  0.23751  0.71610  0.46449  1.0000
  H   H607      1.0  0.19703  0.67867  0.44090  1.0000
  H   H608      1.0  0.44936  0.48901  0.43368  1.0000
  C   C373      1.0  0.35770  0.49295  0.47893  1.0000
  S   S119      1.0  0.36500  0.48415  0.18675  1.0000
  H   H609      1.0  0.35711  0.71457  0.27018  1.0000
  S   S120      1.0  0.43191  0.72432  0.12827  1.0000
  H   H610      1.0  0.13519  0.71397  0.29591  1.0000
  H   H611      1.0  0.43308  0.51641  0.18183  1.0000
  H   H612      1.0  0.44217  0.52915  0.41092  1.0000
  C   C374      1.0  0.49170  0.70566  0.09647  1.0000
  H   H613      1.0  0.48858  0.55090  0.35819  1.0000
  C   C375      1.0  0.17182  0.70446  0.44645  1.0000
  H   H614      1.0  0.44828  0.70305  0.47965  1.0000
  H   H615      1.0  0.33915  0.66526  0.00709  1.0000
  H   H616      1.0  0.43125  0.55568  0.41518  1.0000
  C   C376      1.0  0.44267  0.53624  0.49278  1.0000
  H   H617      1.0  0.46726  0.50475  0.46789  1.0000
  C   C377      1.0  0.24487  0.70977  0.42269  1.0000
  H   H618      1.0  0.46012  0.50795  0.17074  1.0000
  H   H619      1.0  0.29142  0.51482  0.25710  1.0000
  H   H620      1.0  0.23374  0.66532  0.42252  1.0000
  C   C378      1.0  0.21345  0.68429  0.43738  1.0000
  H   H621      1.0  0.19948  0.71214  0.42255  1.0000
  H   H622      1.0  0.47054  0.49568  0.20929  1.0000
  H   H623      1.0  0.26259  0.52132  0.25687  1.0000
  H   H624      1.0  0.28408  0.53429  0.25003  1.0000
  H   H625      1.0  0.28651  0.50695  0.33310  1.0000
  H   H626      1.0  0.30432  0.48551  0.30914  1.0000
  H   H627      1.0  0.17097  0.71047  0.27878  1.0000
  H   H628      1.0  0.48167  0.52352  0.41122  1.0000
  H   H629      1.0  0.47674  0.52729  0.48879  1.0000
  C   C379      1.0  0.36607  0.50319  0.26289  1.0000
  N   N25       1.0  0.35779  0.65085  0.28273  1.0000
  C   C380      1.0  0.35253  0.66050  0.30748  1.0000
  C   C381      1.0  0.33562  0.64467  0.27282  1.0000
  C   C382      1.0  0.36809  0.66072  0.26085  1.0000
  C   C383      1.0  0.37442  0.63861  0.29166  1.0000
  C   C384      1.0  0.37257  0.66947  0.31884  1.0000
  C   C385      1.0  0.32294  0.63458  0.29317  1.0000
  C   C386      1.0  0.36386  0.65666  0.23051  1.0000
  C   C387      1.0  0.38013  0.62634  0.27044  1.0000
  H   H630      1.0  0.33839  0.66867  0.30289  1.0000
  H   H631      1.0  0.34640  0.65368  0.32494  1.0000
  H   H632      1.0  0.33807  0.63789  0.25396  1.0000
  H   H633      1.0  0.32362  0.65404  0.26693  1.0000
  H   H634      1.0  0.36135  0.67248  0.26260  1.0000
  H   H635      1.0  0.38684  0.66145  0.26369  1.0000
  H   H636      1.0  0.39098  0.64337  0.29762  1.0000
  H   H637      1.0  0.36813  0.63292  0.31049  1.0000
  H   H638      1.0  0.38619  0.66203  0.32749  1.0000
  H   H639      1.0  0.37977  0.67719  0.30347  1.0000
  H   H640      1.0  0.31660  0.64090  0.31123  1.0000
  H   H641      1.0  0.30766  0.63016  0.28291  1.0000
  H   H642      1.0  0.33344  0.62475  0.30002  1.0000
  H   H643      1.0  0.34576  0.65881  0.22479  1.0000
  H   H644      1.0  0.36873  0.64497  0.22537  1.0000
  H   H645      1.0  0.37400  0.66410  0.21717  1.0000
  H   H646      1.0  0.36484  0.62037  0.26374  1.0000
  H   H647      1.0  0.39177  0.61781  0.28006  1.0000
  H   H648      1.0  0.38927  0.63091  0.25257  1.0000
  H   H649      1.0  0.34086  0.54378  0.26901  1.0000
  C   C388      1.0  0.23746  0.70564  0.45204  1.0000
  H   H650      1.0  0.33812  0.52361  0.30553  1.0000
  C   C389      1.0  0.30187  0.49648  0.29853  1.0000
  C   C390      1.0  0.36479  0.48634  0.22314  1.0000
  H   H651      1.0  0.20982  0.71354  0.26313  1.0000
  H   H652      1.0  0.41986  0.50079  0.26734  1.0000
  C   C391      1.0  0.43230  0.49189  0.17567  1.0000
  H   H653      1.0  0.26613  0.53318  0.34709  1.0000
  H   H654      1.0  0.27623  0.54091  0.29430  1.0000
  H   H655      1.0  0.26512  0.52325  0.30344  1.0000
  C   C392      1.0  0.42734  0.49666  0.22438  1.0000
  H   H656      1.0  0.42629  0.53259  0.44105  1.0000
  C   C393      1.0  0.28002  0.52860  0.29368  1.0000
  H   H657      1.0  0.26261  0.71376  0.42329  1.0000
  C   C394      1.0  0.30173  0.50901  0.32018  1.0000
  H   H658      1.0  0.43842  0.50994  0.46285  1.0000
  H   H659      1.0  0.45547  0.70186  0.09232  1.0000
  H   H660      1.0  0.31152  0.54901  0.27489  1.0000
  H   H661      1.0  0.47252  0.54507  0.47323  1.0000
  H   H662      1.0  0.32387  0.52044  0.27466  1.0000
  H   H663      1.0  0.29611  0.70400  0.01862  1.0000
  C   C395      1.0  0.32294  0.52737  0.29340  1.0000
  C   C396      1.0  0.45428  0.50044  0.42733  1.0000
  H   H664      1.0  0.31884  0.53388  0.34495  1.0000
  C   C397      1.0  0.32687  0.54369  0.28438  1.0000
  C   C398      1.0  0.45546  0.51041  0.45307  1.0000
  H   H665      1.0  0.22736  0.66427  0.45860  1.0000
  H   H666      1.0  0.31610  0.49720  0.28372  1.0000
  H   H667      1.0  0.44097  0.50454  0.41284  1.0000
  H   H668      1.0  0.36721  0.51441  0.27097  1.0000
  H   H669      1.0  0.30084  0.54717  0.32798  1.0000
  H   H670      1.0  0.31680  0.50690  0.33371  1.0000
  C   C399      1.0  0.45865  0.71255  0.48652  1.0000
  H   H671      1.0  0.44316  0.48778  0.26236  1.0000
  H   H672      1.0  0.17878  0.71165  0.31377  1.0000
  C   C400      1.0  0.28342  0.53318  0.35613  1.0000
  H   H673      1.0  0.21825  0.70943  0.36803  1.0000
  C   C401      1.0  0.36569  0.50087  0.23425  1.0000
  H   H674      1.0  0.48743  0.67794  0.15134  1.0000
  C   C402      1.0  0.44623  0.55116  0.42671  1.0000
  C   C403      1.0  0.23201  0.67197  0.44170  1.0000
  H   H675      1.0  0.23936  0.67963  0.49331  1.0000
  H   H676      1.0  0.24496  0.69994  0.40883  1.0000
  N   N26       1.0  0.46186  0.52645  0.44825  1.0000
  H   H677      1.0  0.49205  0.69689  0.16002  1.0000
  C   C404      1.0  0.34100  0.68671  0.47657  1.0000
  H   H678      1.0  0.36641  0.51041  0.22055  1.0000
  C   C405      1.0  0.46824  0.70851  0.10212  1.0000
  H   H679      1.0  0.35901  0.54332  0.00034  1.0000
  H   H680      1.0  0.43692  0.50724  0.22468  1.0000
  H   H681      1.0  0.18114  0.72381  0.37504  1.0000
  N   N27       1.0  0.30148  0.52494  0.30969  1.0000
  C   C406      1.0  0.30216  0.53517  0.33430  1.0000
  N   N28       1.0  0.43762  0.48574  0.20393  1.0000
  H   H682      1.0  0.20894  0.69960  0.28904  1.0000
  H   H683      1.0  0.20249  0.70499  0.49493  1.0000
  H   H684      1.0  0.49291  0.68248  0.18644  1.0000
  H   H685      1.0  0.48227  0.49567  0.36163  1.0000
  C   C407      1.0  0.47628  0.47542  0.18598  1.0000
  C   C408      1.0  0.46468  0.53393  0.47567  1.0000
  H   H686      1.0  0.44707  0.55766  0.44596  1.0000
  H   H687      1.0  0.29805  0.51831  0.00220  1.0000
  H   H688      1.0  0.48950  0.53904  0.43092  1.0000
  H   H689      1.0  0.48285  0.48299  0.16986  1.0000
  H   H690      1.0  0.33751  0.52149  0.01116  1.0000
  H   H691      1.0  0.40802  0.49123  0.01765  1.0000
  C   C409      1.0  0.39365  0.48584  0.00848  1.0000
  H   H692      1.0  0.16842  0.69504  0.43235  1.0000
  H   H693      1.0  0.19790  0.72023  0.45565  1.0000
  H   H694      1.0  0.46735  0.47954  0.22853  1.0000
  C   C410      1.0  0.46137  0.71992  0.12030  1.0000
  H   H695      1.0  0.41376  0.48231  0.25695  1.0000
  C   C411      1.0  0.38164  0.47526  0.02394  1.0000
  C   C412      1.0  0.28609  0.70398  0.99928  1.0000
  H   H696      1.0  0.41330  0.49390  0.49747  1.0000
  Fe  Fe60      1.0  0.27390  0.66642  0.87295  1.0000
  S   S121      1.0  0.29314  0.68717  0.86498  1.0000
  S   S122      1.0  0.23645  0.66862  0.88640  1.0000
  Fe  Fe61      1.0  0.31650  0.64585  0.86297  1.0000
  S   S123      1.0  0.33812  0.66597  0.85426  1.0000
  S   S124      1.0  0.33832  0.62395  0.85946  1.0000
  Fe  Fe62      1.0  0.32092  0.67669  0.89086  1.0000
  S   S125      1.0  0.33835  0.69317  0.91932  1.0000
  Fe  Fe63      1.0  0.30876  0.67483  0.82901  1.0000
  S   S126      1.0  0.30885  0.68884  0.78952  1.0000
  S   S127      1.0  0.30094  0.65631  0.90120  1.0000
  S   S128      1.0  0.28778  0.65433  0.83541  1.0000
  Fe  Fe64      1.0  0.37545  0.70725  0.65173  1.0000
  S   S129      1.0  0.37646  0.68999  0.68654  1.0000
  Fe  Fe65      1.0  0.37147  0.71052  0.58869  1.0000
  S   S130      1.0  0.37064  0.69605  0.54996  1.0000
  C   C413      1.0  0.37994  0.72115  0.80689  1.0000
  H   H697      1.0  0.29977  0.66956  0.59292  1.0000
  S   S131      1.0  0.40069  0.70439  0.61699  1.0000
  S   S132      1.0  0.34596  0.71108  0.62312  1.0000
  H   H698      1.0  0.34383  0.69934  0.84557  1.0000
  Fe  Fe66      1.0  0.36517  0.53408  0.87602  1.0000
  S   S133      1.0  0.35454  0.51050  0.86607  1.0000
  S   S134      1.0  0.33694  0.55252  0.87706  1.0000
  Fe  Fe67      1.0  0.41404  0.52310  0.88717  1.0000
  S   S135      1.0  0.40700  0.49902  0.87817  1.0000
  S   S136      1.0  0.44761  0.53046  0.90422  1.0000
  Fe  Fe68      1.0  0.38720  0.50819  0.84173  1.0000
  S   S137      1.0  0.39526  0.49922  0.79823  1.0000
  Fe  Fe69      1.0  0.37517  0.50314  0.90329  1.0000
  S   S138      1.0  0.36005  0.48679  0.93459  1.0000
  S   S139      1.0  0.39655  0.53230  0.84952  1.0000
  S   S140      1.0  0.38352  0.52671  0.91439  1.0000
  C   C414      1.0  0.36750  0.66648  0.62771  1.0000
  C   C415      1.0  0.38341  0.48975  0.76947  1.0000
  C   C416      1.0  0.25769  0.66904  0.96870  1.0000
  N   N29       1.0  0.26356  0.68545  0.96926  1.0000
  H   H699      1.0  0.02803  0.71265  0.79475  1.0000
  H   H700      1.0  0.34965  0.66199  0.68072  1.0000
  N   N30       1.0  0.32152  0.52663  0.97186  1.0000
  H   H701      1.0  0.44249  0.69479  0.55912  1.0000
  H   H702      1.0  0.34770  0.64383  0.59945  1.0000
  H   H703      1.0  0.30869  0.64386  0.59245  1.0000
  H   H704      1.0  0.32173  0.66857  0.68915  1.0000
  H   H705      1.0  0.24539  0.66637  0.98534  1.0000
  H   H706      1.0  0.41467  0.49063  0.74632  1.0000
  C   C417      1.0  0.47088  0.52051  0.85850  1.0000
  C   C418      1.0  0.47207  0.52439  0.88620  1.0000
  C   C419      1.0  0.36088  0.48501  0.76890  1.0000
  H   H707      1.0  0.45456  0.52060  0.84822  1.0000
  H   H708      1.0  0.46481  0.70894  0.61629  1.0000
  C   C420      1.0  0.33746  0.60416  0.86539  1.0000
  C   C421      1.0  0.35768  0.59539  0.86225  1.0000
  C   C422      1.0  0.35799  0.57968  0.86625  1.0000
  C   C423      1.0  0.33795  0.57244  0.87323  1.0000
  C   C424      1.0  0.31772  0.58117  0.87631  1.0000
  C   C425      1.0  0.31746  0.59691  0.87254  1.0000
  H   H709      1.0  0.37327  0.60083  0.85675  1.0000
  H   H710      1.0  0.37370  0.57320  0.86376  1.0000
  H   H711      1.0  0.30207  0.57574  0.88158  1.0000
  H   H712      1.0  0.30176  0.60342  0.87495  1.0000
  C   C426      1.0  0.34147  0.69105  0.95549  1.0000
  H   H713      1.0  0.34881  0.72211  0.86692  1.0000
  C   C427      1.0  0.33144  0.70543  0.52169  1.0000
  C   C428      1.0  0.35129  0.69637  0.52188  1.0000
  H   H714      1.0  0.21793  0.68129  0.94671  1.0000
  C   C429      1.0  0.33850  0.67728  0.96858  1.0000
  C   C430      1.0  0.27695  0.70571  0.93436  1.0000
  C   C431      1.0  0.43370  0.69541  0.53898  1.0000
  H   H715      1.0  0.34638  0.64132  0.63496  1.0000
  H   H716      1.0  0.33451  0.66753  0.95658  1.0000
  C   C432      1.0  0.32793  0.68880  0.76113  1.0000
  C   C433      1.0  0.34650  0.67867  0.75903  1.0000
  C   C434      1.0  0.36127  0.67926  0.73618  1.0000
  C   C435      1.0  0.35777  0.69001  0.71530  1.0000
  C   C436      1.0  0.33929  0.70019  0.71751  1.0000
  C   C437      1.0  0.32447  0.69955  0.74026  1.0000
  H   H717      1.0  0.34940  0.67034  0.77490  1.0000
  H   H718      1.0  0.37547  0.67131  0.73465  1.0000
  H   H719      1.0  0.33633  0.70851  0.70162  1.0000
  H   H720      1.0  0.31020  0.70746  0.74167  1.0000
  C   C438      1.0  0.21753  0.68414  0.87900  1.0000
  C   C439      1.0  0.19463  0.68379  0.88766  1.0000
  C   C440      1.0  0.17935  0.69609  0.88297  1.0000
  C   C441      1.0  0.18681  0.70895  0.86956  1.0000
  C   C442      1.0  0.20977  0.70932  0.86117  1.0000
  C   C443      1.0  0.22499  0.69704  0.86575  1.0000
  H   H721      1.0  0.18865  0.67392  0.89805  1.0000
  C   C444      1.0  0.39544  0.49135  0.49843  1.0000
  C   C445      1.0  0.36409  0.47984  0.52289  1.0000
  H   H722      1.0  0.24253  0.69758  0.85913  1.0000
  C   C446      1.0  0.33188  0.66250  0.67317  1.0000
  H   H723      1.0  0.24897  0.66620  0.94918  1.0000
  H   H724      1.0  0.27092  0.71395  0.94973  1.0000
  C   C447      1.0  0.36227  0.53323  0.98746  1.0000
  C   C448      1.0  0.18156  0.71369  0.78759  1.0000
  C   C449      1.0  0.31643  0.70505  0.49911  1.0000
  H   H725      1.0  0.49160  0.70551  0.68403  1.0000
  C   C450      1.0  0.35593  0.68700  0.49922  1.0000
  H   H726      1.0  0.29424  0.68107  0.99305  1.0000
  C   C451      1.0  0.20359  0.70389  0.78514  1.0000
  C   C452      1.0  0.34715  0.70352  0.97147  1.0000
  C   C453      1.0  0.37903  0.69290  0.84293  1.0000
  C   C454      1.0  0.38743  0.48943  0.98119  1.0000
  H   H727      1.0  0.39873  0.47945  0.53716  1.0000
  H   H728      1.0  0.37997  0.68131  0.83462  1.0000
  H   H729      1.0  0.00359  0.71517  0.89043  1.0000
  H   H730      1.0  0.28339  0.65657  0.99328  1.0000
  H   H731      1.0  0.39962  0.47794  0.70509  1.0000
  H   H732      1.0  0.39553  0.69769  0.83744  1.0000
  H   H733      1.0  0.24395  0.70640  0.97501  1.0000
  H   H734      1.0  0.27795  0.54253  0.96677  1.0000
  C   C455      1.0  0.30845  0.52213  0.92142  1.0000
  H   H735      1.0  0.39645  0.71869  0.81710  1.0000
  H   H736      1.0  0.20946  0.70041  0.95184  1.0000
  H   H737      1.0  0.29263  0.66061  0.95879  1.0000
  H   H738      1.0  0.24157  0.69840  0.50664  1.0000
  H   H739      1.0  0.35270  0.69511  0.81227  1.0000
  H   H740      1.0  0.05498  0.71480  0.81259  1.0000
  H   H741      1.0  0.16852  0.70788  0.77533  1.0000
  H   H742      1.0  0.29405  0.68460  0.94424  1.0000
  H   H743      1.0  0.39697  0.49752  0.96967  1.0000
  C   C456      1.0  0.36902  0.48247  0.96884  1.0000
  H   H744      1.0  0.40965  0.70987  0.51763  1.0000
  H   H745      1.0  0.37788  0.52745  0.99562  1.0000
  H   H746      1.0  0.30739  0.68791  0.60528  1.0000
  H   H747      1.0  0.33434  0.68286  0.64957  1.0000
  C   C457      1.0  0.32788  0.52523  0.94189  1.0000
  H   H748      1.0  0.42028  0.68688  0.53954  1.0000
  H   H749      1.0  0.34708  0.68346  0.59440  1.0000
  H   H750      1.0  0.38123  0.66832  0.58540  1.0000
  H   H751      1.0  0.29140  0.52653  0.92737  1.0000
  C   C458      1.0  0.34219  0.52249  0.98906  1.0000
  C   C459      1.0  0.36613  0.47527  0.72201  1.0000
  H   H752      1.0  0.46856  0.71206  0.54316  1.0000
  C   C460      1.0  0.38433  0.66189  0.60459  1.0000
  H   H753      1.0  0.29479  0.70854  0.92941  1.0000
  C   C461      1.0  0.30286  0.51629  0.98035  1.0000
  C   C462      1.0  0.33699  0.67314  0.59562  1.0000
  H   H754      1.0  0.19942  0.69198  0.78884  1.0000
  H   H755      1.0  0.16179  0.69557  0.88958  1.0000
  C   C463      1.0  0.27618  0.68902  0.94313  1.0000
  N   N31       1.0  0.35989  0.71782  0.82510  1.0000
  H   H756      1.0  0.33152  0.48240  0.50277  1.0000
  H   H757      1.0  0.36599  0.53676  0.96620  1.0000
  H   H758      1.0  0.38424  0.64970  0.60036  1.0000
  C   C464      1.0  0.31212  0.67860  0.59109  1.0000
  H   H759      1.0  0.31197  0.63177  0.62200  1.0000
  H   H760      1.0  0.34961  0.71422  0.96158  1.0000
  H   H761      1.0  0.47326  0.55798  0.87869  1.0000
  H   H762      1.0  0.31602  0.49650  0.95731  1.0000
  H   H763      1.0  0.21144  0.70456  0.76451  1.0000
  H   H764      1.0  0.30112  0.71209  0.49920  1.0000
  C   C465      1.0  0.42227  0.71102  0.53450  1.0000
  H   H765      1.0  0.40186  0.66446  0.61130  1.0000
  C   C466      1.0  0.34944  0.48479  0.50162  1.0000
  C   C467      1.0  0.22447  0.69279  0.94835  1.0000
  H   H766      1.0  0.32760  0.71269  0.53892  1.0000
  N   N32       1.0  0.34216  0.54213  0.78716  1.0000
  C   C468      1.0  0.32672  0.53509  0.80810  1.0000
  C   C469      1.0  0.34930  0.55693  0.79884  1.0000
  C   C470      1.0  0.36265  0.53168  0.78324  1.0000
  C   C471      1.0  0.32900  0.54393  0.76079  1.0000
  C   C472      1.0  0.31971  0.51886  0.80221  1.0000
  C   C473      1.0  0.33002  0.56885  0.80293  1.0000
  C   C474      1.0  0.38478  0.53852  0.77245  1.0000
  C   C475      1.0  0.34048  0.55252  0.73729  1.0000
  H   H767      1.0  0.33495  0.53490  0.82864  1.0000
  H   H768      1.0  0.31058  0.54178  0.81063  1.0000
  H   H769      1.0  0.36230  0.56234  0.78602  1.0000
  H   H770      1.0  0.35783  0.55512  0.81906  1.0000
  H   H771      1.0  0.36748  0.52625  0.80304  1.0000
  H   H772      1.0  0.35859  0.52226  0.76926  1.0000
  H   H773      1.0  0.32523  0.53277  0.75208  1.0000
  H   H774      1.0  0.31176  0.54911  0.76436  1.0000
  H   H775      1.0  0.30863  0.51505  0.81921  1.0000
  H   H776      1.0  0.30973  0.51798  0.78306  1.0000
  H   H777      1.0  0.33461  0.51093  0.80162  1.0000
  H   H778      1.0  0.33756  0.57939  0.81033  1.0000
  H   H779      1.0  0.32103  0.57164  0.78355  1.0000
  H   H780      1.0  0.31767  0.56550  0.81887  1.0000
  H   H781      1.0  0.39731  0.52927  0.76790  1.0000
  H   H782      1.0  0.39272  0.54559  0.78830  1.0000
  H   H783      1.0  0.38236  0.54501  0.75333  1.0000
  H   H784      1.0  0.35113  0.54478  0.72446  1.0000
  H   H785      1.0  0.35083  0.56192  0.74424  1.0000
  H   H786      1.0  0.32708  0.55782  0.72410  1.0000
  H   H787      1.0  0.44706  0.54126  0.51284  1.0000
  H   H788      1.0  0.26864  0.68302  0.92546  1.0000
  C   C476      1.0  0.31619  0.72318  0.82634  1.0000
  C   C477      1.0  0.27819  0.68793  0.99418  1.0000
  H   H789      1.0  0.48997  0.51430  0.82229  1.0000
  H   H790      1.0  0.22302  0.68545  0.52248  1.0000
  H   H791      1.0  0.23210  0.69606  0.92853  1.0000
  C   C478      1.0  0.38092  0.71269  0.77929  1.0000
  H   H792      1.0  0.30785  0.50997  0.91676  1.0000
  H   H793      1.0  0.26715  0.70758  0.91511  1.0000
  H   H794      1.0  0.37299  0.65998  0.64613  1.0000
  H   H795      1.0  0.34216  0.66650  0.57719  1.0000
  C   C479      1.0  0.38872  0.47983  0.72273  1.0000
  C   C480      1.0  0.29341  0.54913  0.96350  1.0000
  H   H796      1.0  0.34933  0.51125  0.98316  1.0000
  C   C481      1.0  0.35231  0.47789  0.74531  1.0000
  H   H797      1.0  0.37079  0.67841  0.63254  1.0000
  H   H798      1.0  0.31079  0.67196  0.64181  1.0000
  C   C482      1.0  0.33869  0.72309  0.80988  1.0000
  N   N33       1.0  0.34250  0.66458  0.62172  1.0000
  C   C483      1.0  0.39721  0.48707  0.74621  1.0000
  C   C484      1.0  0.32934  0.67110  0.64577  1.0000
  H   H799      1.0  0.33658  0.53546  0.93469  1.0000
  H   H800      1.0  0.30133  0.65019  0.62663  1.0000
  C   C485      1.0  0.34124  0.67601  0.99725  1.0000
  C   C486      1.0  0.33859  0.64810  0.61801  1.0000
  H   H801      1.0  0.32520  0.65104  0.67187  1.0000
  C   C487      1.0  0.31370  0.64343  0.61441  1.0000
  H   H802      1.0  0.27238  0.64639  0.96497  1.0000
  H   H803      1.0  0.02884  0.71543  0.83093  1.0000
  C   C488      1.0  0.47786  0.71725  0.61605  1.0000
  H   H804      1.0  0.31056  0.68328  0.56998  1.0000
  H   H805      1.0  0.44571  0.69213  0.52247  1.0000
  H   H806      1.0  0.17571  0.71291  0.80926  1.0000
  C   C489      1.0  0.03689  0.71869  0.81122  1.0000
  H   H807      1.0  0.35009  0.48674  0.78665  1.0000
  H   H808      1.0  0.47235  0.70837  0.50027  1.0000
  H   H809      1.0  0.34044  0.51580  0.93907  1.0000
  H   H810      1.0  0.31239  0.71196  0.83451  1.0000
  C   C490      1.0  0.35795  0.70129  0.83087  1.0000
  H   H811      1.0  0.31251  0.52750  0.90151  1.0000
  H   H812      1.0  0.21621  0.70674  0.80107  1.0000
  H   H813      1.0  0.32067  0.49547  0.99388  1.0000
  H   H814      1.0  0.38136  0.70035  0.78216  1.0000
  C   C491      1.0  0.24139  0.69428  0.97227  1.0000
  H   H815      1.0  0.37763  0.69211  0.86564  1.0000
  C   C492      1.0  0.22970  0.68922  0.50235  1.0000
  C   C493      1.0  0.49093  0.51692  0.84389  1.0000
  H   H816      1.0  0.32826  0.55041  0.97376  1.0000
  H   H817      1.0  0.13488  0.72045  0.78428  1.0000
  H   H818      1.0  0.48419  0.57601  0.88489  1.0000
  H   H819      1.0  0.17947  0.72120  0.73773  1.0000
  C   C494      1.0  0.27785  0.65764  0.97158  1.0000
  H   H820      1.0  0.29789  0.70765  0.98300  1.0000
  H   H821      1.0  0.41200  0.71313  0.55344  1.0000
  H   H822      1.0  0.39174  0.71616  0.87094  1.0000
  C   C495      1.0  0.38721  0.48313  0.52104  1.0000
  H   H823      1.0  0.48573  0.47524  0.57307  1.0000
  H   H824      1.0  0.23241  0.69087  0.99137  1.0000
  H   H825      1.0  0.29697  0.55054  0.94129  1.0000
  H   H826      1.0  0.28690  0.51848  0.96883  1.0000
  H   H827      1.0  0.39681  0.71552  0.76828  1.0000
  C   C496      1.0  0.45859  0.72259  0.54688  1.0000
  H   H828      1.0  0.33576  0.71603  0.79156  1.0000
  C   C497      1.0  0.30868  0.49938  0.97761  1.0000
  H   H829      1.0  0.29293  0.49292  0.98017  1.0000
  H   H830      1.0  0.28948  0.56056  0.97155  1.0000
  C   C498      1.0  0.31440  0.54257  0.97869  1.0000
  H   H831      1.0  0.21596  0.71923  0.85119  1.0000
  H   H832      1.0  0.45330  0.72179  0.56871  1.0000
  C   C499      1.0  0.48916  0.56395  0.88336  1.0000
  H   H833      1.0  0.36663  0.71602  0.76551  1.0000
  C   C500      1.0  0.49327  0.52423  0.89942  1.0000
  N   N34       1.0  0.43769  0.72398  0.52905  1.0000
  H   H834      1.0  0.48185  0.47504  0.53611  1.0000
  H   H835      1.0  0.37118  0.67991  0.49914  1.0000
  H   H836      1.0  0.06564  0.72441  0.77238  1.0000
  N   N35       1.0  0.21198  0.76115  0.03722  1.0000
  H   H837      1.0  0.15425  0.91646  0.23289  1.0000
  H   H838      1.0  0.18769  0.77595  0.05781  1.0000
  S   S141      1.0  0.32686  0.75488  0.10565  1.0000
  Fe  Fe70      1.0  0.19720  0.79639  0.12031  1.0000
  S   S142      1.0  0.17758  0.77529  0.12004  1.0000
  S   S143      1.0  0.23561  0.79624  0.11230  1.0000
  Fe  Fe71      1.0  0.15411  0.81693  0.12590  1.0000
  S   S144      1.0  0.13215  0.79662  0.12558  1.0000
  S   S145      1.0  0.13013  0.83788  0.12913  1.0000
  Fe  Fe72      1.0  0.15730  0.78583  0.15449  1.0000
  S   S146      1.0  0.14170  0.77078  0.18691  1.0000
  Fe  Fe73      1.0  0.15389  0.78772  0.09115  1.0000
  S   S147      1.0  0.13782  0.77438  0.05671  1.0000
  S   S148      1.0  0.17844  0.80647  0.15706  1.0000
  S   S149      1.0  0.17443  0.80849  0.08925  1.0000
  H   H839      1.0  0.13350  0.82522  0.02309  1.0000
  S   S150      1.0  0.13903  0.75695  0.38025  1.0000
  Fe  Fe74      1.0  0.07185  0.75591  0.37667  1.0000
  S   S151      1.0  0.09193  0.77718  0.37919  1.0000
  S   S152      1.0  0.03252  0.76061  0.37385  1.0000
  Fe  Fe75      1.0  0.11587  0.76696  0.34799  1.0000
  S   S153      1.0  0.13367  0.78106  0.31565  1.0000
  Fe  Fe76      1.0  0.11363  0.76563  0.41142  1.0000
  S   S154      1.0  0.12708  0.78037  0.44595  1.0000
  C   C501      1.0  0.18735  0.74424  0.06815  1.0000
  H   H840      1.0  0.99951  0.96511  0.02848  1.0000
  Fe  Fe77      1.0  0.10766  0.92970  0.14005  1.0000
  S   S155      1.0  0.12027  0.95266  0.12784  1.0000
  S   S156      1.0  0.13381  0.90980  0.13882  1.0000
  Fe  Fe78      1.0  0.06106  0.94311  0.15566  1.0000
  S   S157      1.0  0.02718  0.94190  0.17737  1.0000
  Fe  Fe79      1.0  0.08653  0.95612  0.10611  1.0000
  Fe  Fe80      1.0  0.34544  0.73206  0.11233  1.0000
  Fe  Fe81      1.0  0.10275  0.96125  0.16658  1.0000
  H   H841      1.0  0.42751  0.72524  0.48654  1.0000
  S   S158      1.0  0.07469  0.93280  0.11658  1.0000
  S   S159      1.0  0.09284  0.93832  0.18007  1.0000
  C   C502      1.0  0.00750  0.92624  0.13560  1.0000
  C   C503      1.0  0.00413  0.93619  0.15741  1.0000
  H   H842      1.0  0.17712  0.75956  0.02319  1.0000
  H   H843      1.0  0.02432  0.92150  0.13149  1.0000
  S   S160      1.0  0.09257  0.74485  0.41095  1.0000
  C   C504      1.0  0.00389  0.75391  0.37249  1.0000
  H   H844      1.0  0.37411  0.75565  0.10117  1.0000
  H   H845      1.0  0.12803  0.92562  0.22196  1.0000
  C   C505      1.0  0.16385  0.96456  0.24098  1.0000
  H   H846      1.0  0.01187  0.94657  0.09669  1.0000
  H   H847      1.0  0.18917  0.93435  0.25610  1.0000
  H   H848      1.0  0.17113  0.93980  0.14603  1.0000
  H   H849      1.0  0.13052  0.85212  0.06278  1.0000
  H   H850      1.0  0.00628  0.95567  0.27114  1.0000
  Fe  Fe82      1.0  0.11711  0.73701  0.37743  1.0000
  C   C506      1.0  0.13370  0.72610  0.29084  1.0000
  C   C507      1.0  0.13175  0.85788  0.13122  1.0000
  C   C508      1.0  0.15243  0.86522  0.13324  1.0000
  C   C509      1.0  0.15264  0.88104  0.13546  1.0000
  C   C510      1.0  0.13227  0.88982  0.13565  1.0000
  C   C511      1.0  0.11159  0.88247  0.13352  1.0000
  C   C512      1.0  0.11137  0.86665  0.13132  1.0000
  H   H851      1.0  0.16828  0.85873  0.13323  1.0000
  H   H852      1.0  0.16878  0.88652  0.13704  1.0000
  H   H853      1.0  0.09574  0.88898  0.13365  1.0000
  H   H854      1.0  0.09522  0.86119  0.12983  1.0000
  C   C513      1.0  0.13572  0.77675  0.02063  1.0000
  H   H855      1.0  0.06448  0.85343  0.04525  1.0000
  H   H856      1.0  0.27148  0.76430  0.03458  1.0000
  C   C514      1.0  0.13127  0.77788  0.48180  1.0000
  H   H857      1.0  0.40186  0.74923  0.13514  1.0000
  S   S161      1.0  0.36748  0.72669  0.14922  1.0000
  H   H858      1.0  0.21919  0.73797  0.04920  1.0000
  C   C515      1.0  0.01364  0.95102  0.07568  1.0000
  H   H859      1.0  0.09312  0.96448  0.29014  1.0000
  H   H860      1.0  0.15296  0.79768  0.01838  1.0000
  C   C516      1.0  0.14021  0.77347  0.22279  1.0000
  C   C517      1.0  0.12420  0.76550  0.23808  1.0000
  C   C518      1.0  0.12213  0.76753  0.26663  1.0000
  C   C519      1.0  0.13613  0.77754  0.28009  1.0000
  C   C520      1.0  0.15239  0.78531  0.26485  1.0000
  C   C521      1.0  0.15456  0.78320  0.23636  1.0000
  H   H861      1.0  0.11315  0.75784  0.22773  1.0000
  H   H862      1.0  0.10952  0.76151  0.27814  1.0000
  H   H863      1.0  0.16342  0.79298  0.27521  1.0000
  H   H864      1.0  0.16737  0.78905  0.22490  1.0000
  C   C522      1.0  0.30026  0.76510  0.10842  1.0000
  C   C523      1.0  0.27960  0.75903  0.11740  1.0000
  C   C524      1.0  0.25933  0.76823  0.11888  1.0000
  C   C525      1.0  0.25974  0.78351  0.11154  1.0000
  C   C526      1.0  0.28036  0.78931  0.10254  1.0000
  C   C527      1.0  0.30025  0.78026  0.10093  1.0000
  H   H865      1.0  0.27930  0.74736  0.12336  1.0000
  H   H866      1.0  0.24359  0.76355  0.12597  1.0000
  H   H867      1.0  0.28103  0.80101  0.09678  1.0000
  H   H868      1.0  0.31590  0.78514  0.09397  1.0000
  H   H869      1.0  0.20072  0.76328  0.32684  1.0000
  N   N36       1.0  0.11027  0.82179  0.21570  1.0000
  C   C528      1.0  0.09380  0.81752  0.19343  1.0000
  C   C529      1.0  0.10546  0.83809  0.22228  1.0000
  C   C530      1.0  0.10566  0.81213  0.24052  1.0000
  C   C531      1.0  0.13410  0.81892  0.20490  1.0000
  C   C532      1.0  0.09284  0.80063  0.18678  1.0000
  C   C533      1.0  0.10988  0.84924  0.19875  1.0000
  C   C534      1.0  0.11449  0.81750  0.26849  1.0000
  C   C535      1.0  0.15409  0.82472  0.22203  1.0000
  H   H870      1.0  0.07608  0.82131  0.19877  1.0000
  H   H871      1.0  0.09788  0.82318  0.17370  1.0000
  H   H872      1.0  0.11553  0.84192  0.23996  1.0000
  H   H873      1.0  0.08739  0.83979  0.22893  1.0000
  H   H874      1.0  0.08696  0.81089  0.24339  1.0000
  H   H875      1.0  0.11277  0.80056  0.23747  1.0000
  H   H876      1.0  0.13757  0.80670  0.20230  1.0000
  H   H877      1.0  0.13600  0.82335  0.18368  1.0000
  H   H878      1.0  0.10963  0.79586  0.18053  1.0000
  H   H879      1.0  0.08612  0.79401  0.20414  1.0000
  H   H880      1.0  0.08114  0.79906  0.16921  1.0000
  H   H881      1.0  0.10675  0.86086  0.20629  1.0000
  H   H882      1.0  0.12779  0.84853  0.19148  1.0000
  H   H883      1.0  0.09818  0.84772  0.18123  1.0000
  H   H884      1.0  0.10485  0.82761  0.27578  1.0000
  H   H885      1.0  0.13293  0.81952  0.26854  1.0000
  H   H886      1.0  0.11164  0.80859  0.28401  1.0000
  H   H887      1.0  0.16078  0.81591  0.23622  1.0000
  H   H888      1.0  0.15010  0.83501  0.23377  1.0000
  H   H889      1.0  0.16813  0.82781  0.20798  1.0000
  H   H890      1.0  0.11819  0.75604  0.01567  1.0000
  H   H891      1.0  0.07771  0.79994  0.05506  1.0000
  H   H892      1.0  0.21552  0.92859  0.24076  1.0000
  H   H893      1.0  0.18921  0.73645  0.08588  1.0000
  C   C536      1.0  0.99896  0.73863  0.37232  1.0000
  H   H894      1.0  0.13374  0.72776  0.26830  1.0000
  H   H895      1.0  0.15233  0.73168  0.32732  1.0000
  H   H896      1.0  0.38486  0.76100  0.17540  1.0000
  H   H897      1.0  0.14642  0.74693  0.30478  1.0000
  H   H898      1.0  0.06862  0.82069  0.03048  1.0000
  C   C537      1.0  0.08887  0.80388  0.07167  1.0000
  H   H899      1.0  0.20296  0.75608  0.26317  1.0000
  H   H900      1.0  0.23748  0.76899  0.00820  1.0000
  C   C538      1.0  0.14395  0.91981  0.21487  1.0000
  H   H901      1.0  0.45252  0.77296  0.10248  1.0000
  H   H902      1.0  0.14363  0.93272  0.17848  1.0000
  H   H903      1.0  0.18719  0.75169  0.47048  1.0000
  H   H904      1.0  0.47366  0.73714  0.14697  1.0000
  C   C539      1.0  0.10847  0.81347  0.06094  1.0000
  H   H905      1.0  0.45832  0.75454  0.08938  1.0000
  H   H906      1.0  0.21885  0.79827  0.05203  1.0000
  H   H907      1.0  0.22138  0.75100  0.07643  1.0000
  S   S162      1.0  0.37343  0.72492  0.08249  1.0000
  H   H908      1.0  0.20183  0.95053  0.21590  1.0000
  C   C540      1.0  0.08226  0.85365  0.05296  1.0000
  N   N37       1.0  0.40400  0.76856  0.10839  1.0000
  C   C541      1.0  0.40321  0.76161  0.13668  1.0000
  C   C542      1.0  0.42212  0.76005  0.09227  1.0000
  C   C543      1.0  0.38095  0.76671  0.09535  1.0000
  C   C544      1.0  0.40918  0.78490  0.11169  1.0000
  H   H909      1.0  0.18175  0.96331  0.24792  1.0000
  C   C545      1.0  0.44671  0.76126  0.10292  1.0000
  C   C546      1.0  0.37954  0.76716  0.06378  1.0000
  C   C547      1.0  0.41325  0.79400  0.08531  1.0000
  H   H910      1.0  0.09998  0.84001  0.08372  1.0000
  H   H911      1.0  0.41916  0.76349  0.14824  1.0000
  H   H912      1.0  0.42262  0.76355  0.07049  1.0000
  H   H913      1.0  0.41809  0.74793  0.09142  1.0000
  H   H914      1.0  0.21284  0.73736  0.25458  1.0000
  H   H915      1.0  0.15262  0.93150  0.48074  1.0000
  H   H916      1.0  0.39488  0.79090  0.12240  1.0000
  H   H917      1.0  0.42392  0.78644  0.12566  1.0000
  H   H918      1.0  0.00711  0.94119  0.03481  1.0000
  C   C548      1.0  0.12766  0.76425  0.49515  1.0000
  H   H919      1.0  0.13686  0.95234  0.22226  1.0000
  H   H920      1.0  0.44883  0.75648  0.12376  1.0000
  N   N38       1.0  0.10157  0.82751  0.04539  1.0000
  H   H921      1.0  0.19806  0.77541  0.48572  1.0000
  H   H922      1.0  0.36128  0.76707  0.05776  1.0000
  H   H923      1.0  0.38770  0.75696  0.05460  1.0000
  H   H924      1.0  0.38681  0.77730  0.05471  1.0000
  H   H925      1.0  0.39695  0.79889  0.07732  1.0000
  H   H926      1.0  0.42205  0.78757  0.06891  1.0000
  H   H927      1.0  0.42479  0.80331  0.09000  1.0000
  N   N39       1.0  0.16817  0.94341  0.20475  1.0000
  C   C549      1.0  0.17888  0.94996  0.15462  1.0000
  C   C550      1.0  0.15483  0.94998  0.22857  1.0000
  C   C551      1.0  0.00541  0.93847  0.05685  1.0000
  C   C552      1.0  0.19270  0.93997  0.21211  1.0000
  S   S163      1.0  0.07033  0.96640  0.14381  1.0000
  H   H928      1.0  0.01282  0.73038  0.37302  1.0000
  C   C553      1.0  0.19813  0.75155  0.48908  1.0000
  C   C554      1.0  0.47852  0.72835  0.13271  1.0000
  H   H929      1.0  0.11674  0.73004  0.29842  1.0000
  C   C555      1.0  0.25496  0.76419  0.04571  1.0000
  H   H930      1.0  0.15376  0.94193  0.24586  1.0000
  H   H931      1.0  0.11874  0.84230  0.01683  1.0000
  C   C556      1.0  0.19478  0.75809  0.01508  1.0000
  H   H932      1.0  0.19442  0.79599  0.03068  1.0000
  H   H933      1.0  0.07862  0.80980  0.08763  1.0000
  N   N40       1.0  0.00165  0.96612  0.07307  1.0000
  C   C557      1.0  0.12483  0.76573  0.00532  1.0000
  H   H934      1.0  0.19090  0.91825  0.23325  1.0000
  H   H935      1.0  0.09632  0.79360  0.08147  1.0000
  H   H936      1.0  0.11974  0.80601  0.04833  1.0000
  H   H937      1.0  0.09716  0.96035  0.23987  1.0000
  C   C558      1.0  0.14434  0.78918  0.00694  1.0000
  C   C559      1.0  0.18581  0.75765  0.31802  1.0000
  H   H938      1.0  0.21489  0.77589  0.07236  1.0000
  H   H939      1.0  0.13875  0.90938  0.20445  1.0000
  H   H940      1.0  0.03919  0.96928  0.29103  1.0000
  H   H941      1.0  0.03230  0.95201  0.07227  1.0000
  C   C560      1.0  0.08970  0.83821  0.06494  1.0000
  C   C561      1.0  0.00615  0.97232  0.04484  1.0000
  C   C562      1.0  0.19687  0.92970  0.23707  1.0000
  H   H942      1.0  0.16323  0.74898  0.26247  1.0000
  H   H943      1.0  0.17712  0.75409  0.07521  1.0000
  H   H944      1.0  0.05492  0.96690  0.26045  1.0000
  H   H945      1.0  0.09685  0.80108  0.01138  1.0000
  H   H946      1.0  0.04973  0.96650  0.21422  1.0000
  S   S164      1.0  0.09494  0.74645  0.34314  1.0000
  C   C563      1.0  0.19836  0.74549  0.25301  1.0000
  C   C564      1.0  0.20603  0.77553  0.05218  1.0000
  H   H947      1.0  0.19608  0.74820  0.23090  1.0000
  C   C565      1.0  0.10183  0.97093  0.24871  1.0000
  C   C566      1.0  0.21124  0.74844  0.05781  1.0000
  H   H948      1.0  0.25253  0.77535  0.05540  1.0000
  H   H949      1.0  0.14396  0.83418  0.07088  1.0000
  H   H950      1.0  0.17769  0.73832  0.05214  1.0000
  H   H951      1.0  0.36835  0.77524  0.10325  1.0000
  C   C567      1.0  0.21069  0.79052  0.03744  1.0000
  H   H952      1.0  0.15003  0.95872  0.17743  1.0000
  H   H953      1.0  0.20184  0.93444  0.19469  1.0000
  C   C568      1.0  0.03738  0.96908  0.26834  1.0000
  C   C569      1.0  0.08540  0.82419  0.02239  1.0000
  H   H954      1.0  0.08143  0.83453  0.01026  1.0000
  H   H955      1.0  0.38424  0.77920  0.16023  1.0000
  H   H956      1.0  0.36649  0.76452  0.14706  1.0000
  C   C570      1.0  0.16787  0.95498  0.18206  1.0000
  C   C571      1.0  0.17581  0.73945  0.26435  1.0000
  H   H957      1.0  0.16921  0.92208  0.18297  1.0000
  C   C572      1.0  0.15679  0.92957  0.19405  1.0000
  H   H958      1.0  0.25674  0.75542  0.06177  1.0000
  H   H959      1.0  0.19756  0.94813  0.15651  1.0000
  H   H960      1.0  0.17196  0.75850  0.33350  1.0000
  H   H961      1.0  0.11890  0.81630  0.07910  1.0000
  C   C573      1.0  0.38348  0.76709  0.15554  1.0000
  H   H962      1.0  0.02194  0.95314  0.23931  1.0000
  H   H963      1.0  0.21575  0.74858  0.48244  1.0000
  H   H964      1.0  0.18037  0.76394  0.29944  1.0000
  H   H965      1.0  0.08328  0.86230  0.06925  1.0000
  H   H966      1.0  0.07388  0.83328  0.07310  1.0000
  H   H967      1.0  0.10097  0.92792  0.49439  1.0000
  H   H968      1.0  0.23974  0.74982  0.01570  1.0000
  C   C574      1.0  0.23571  0.76092  0.02526  1.0000
  C   C575      1.0  0.12284  0.83408  0.03342  1.0000
  C   C576      1.0  0.13858  0.84180  0.05401  1.0000
  S   S165      1.0  0.07534  0.96595  0.06403  1.0000
  H   H969      1.0  0.14179  0.80063  0.48713  1.0000
  H   H970      1.0  0.01625  0.92825  0.06058  1.0000
  H   H971      1.0  0.17611  0.95906  0.13926  1.0000
  H   H972      1.0  0.15430  0.84523  0.04325  1.0000
  H   H973      1.0  0.09334  0.85750  0.03617  1.0000
  H   H974      1.0  0.22220  0.78973  0.01961  1.0000
  C   C577      1.0  0.09393  0.81222  0.00169  1.0000
  H   H975      1.0  0.12163  0.75483  0.48358  1.0000
  C   C578      1.0  0.02345  0.95513  0.26167  1.0000
  H   H976      1.0  0.16990  0.73095  0.24949  1.0000
  H   H977      1.0  0.23681  0.77417  0.49278  1.0000
  H   H978      1.0  0.19647  0.74618  0.00831  1.0000
  C   C579      1.0  0.15240  0.73498  0.30523  1.0000
  C   C580      1.0  0.09957  0.97330  0.27727  1.0000
  H   H979      1.0  0.17681  0.96525  0.18826  1.0000
  H   H980      1.0  0.03243  0.94506  0.27032  1.0000
  H   H981      1.0  0.15346  0.96755  0.25937  1.0000
  H   H982      1.0  0.16188  0.97420  0.22669  1.0000
  H   H983      1.0  0.02488  0.97242  0.04092  1.0000
  C   C581      1.0  0.19221  0.74110  0.31186  1.0000
  N   N41       1.0  0.17607  0.73316  0.29320  1.0000
  H   H984      1.0  0.20981  0.74089  0.30354  1.0000
  C   C582      1.0  0.01103  0.97187  0.12389  1.0000
  H   H985      1.0  0.45097  0.73609  0.49387  1.0000
  H   H986      1.0  0.19358  0.73518  0.33194  1.0000
  H   H987      1.0  0.02225  0.96200  0.12847  1.0000
  C   C583      1.0  0.13903  0.79002  0.49723  1.0000
  H   H988      1.0  0.14778  0.80046  0.96790  1.0000
  C   C584      1.0  0.09751  0.97267  0.78276  1.0000
  H   H989      1.0  0.14728  0.89282  0.54517  1.0000
  S   S166      1.0  0.32126  0.74904  0.63977  1.0000
  Fe  Fe83      1.0  0.20954  0.80093  0.61647  1.0000
  S   S167      1.0  0.19141  0.78032  0.62904  1.0000
  S   S168      1.0  0.24610  0.79818  0.60017  1.0000
  Fe  Fe84      1.0  0.16618  0.82150  0.62502  1.0000
  S   S169      1.0  0.14574  0.80146  0.63755  1.0000
  S   S170      1.0  0.14316  0.84300  0.62553  1.0000
  Fe  Fe85      1.0  0.17608  0.79444  0.66289  1.0000
  S   S171      1.0  0.17798  0.78739  0.70798  1.0000
  Fe  Fe86      1.0  0.16286  0.78931  0.60229  1.0000
  S   S172      1.0  0.14632  0.77229  0.57421  1.0000
  S   S173      1.0  0.19606  0.81486  0.65200  1.0000
  S   S174      1.0  0.18146  0.80951  0.58809  1.0000
  H   H990      1.0  0.25817  0.78896  0.52023  1.0000
  S   S175      1.0  0.13775  0.76079  0.86070  1.0000
  Fe  Fe87      1.0  0.08044  0.74188  0.87674  1.0000
  S   S176      1.0  0.08317  0.76667  0.87002  1.0000
  H   H991      1.0  0.24292  0.75658  0.56838  1.0000
  Fe  Fe88      1.0  0.10641  0.76032  0.83477  1.0000
  S   S177      1.0  0.09985  0.76936  0.79148  1.0000
  Fe  Fe89      1.0  0.11454  0.76476  0.89694  1.0000
  S   S178      1.0  0.12559  0.78266  0.92742  1.0000
  S   S179      1.0  0.10259  0.73551  0.84024  1.0000
  S   S180      1.0  0.11080  0.74022  0.90600  1.0000
  Fe  Fe90      1.0  0.11366  0.93198  0.64207  1.0000
  S   S181      1.0  0.12104  0.95638  0.63328  1.0000
  S   S182      1.0  0.14337  0.91460  0.64087  1.0000
  Fe  Fe91      1.0  0.06342  0.93934  0.65154  1.0000
  S   S183      1.0  0.03026  0.93020  0.66707  1.0000
  Fe  Fe92      1.0  0.08931  0.95662  0.60715  1.0000
  H   H992      1.0  0.07423  0.75425  0.74298  1.0000
  Fe  Fe93      1.0  0.09806  0.96186  0.66966  1.0000
  Fe  Fe94      1.0  0.13304  0.73616  0.86855  1.0000
  S   S184      1.0  0.08321  0.93194  0.61419  1.0000
  S   S185      1.0  0.09337  0.93763  0.68020  1.0000
  C   C585      1.0  0.00994  0.75040  0.86593  1.0000
  C   C586      1.0  0.00669  0.93245  0.64521  1.0000
  C   C587      1.0  0.00943  0.93741  0.61825  1.0000
  C   C588      1.0  0.13616  0.89668  0.56230  1.0000
  C   C589      1.0  0.25529  0.77784  0.52971  1.0000
  C   C590      1.0  0.14171  0.96009  0.96663  1.0000
  H   H993      1.0  0.39351  0.75145  0.53250  1.0000
  H   H994      1.0  0.20540  0.80913  0.52883  1.0000
  H   H995      1.0  0.02040  0.73784  0.71503  1.0000
  C   C591      1.0  0.03994  0.75906  0.78300  1.0000
  H   H996      1.0  0.09642  0.95962  0.74530  1.0000
  C   C592      1.0  0.01632  0.73638  0.87692  1.0000
  H   H997      1.0  0.02624  0.93983  0.61056  1.0000
  H   H998      1.0  0.25210  0.77928  0.55181  1.0000
  H   H999      1.0  0.18127  0.76447  0.97528  1.0000
  H   H1000     1.0  0.10611  0.91037  0.57043  1.0000
  C   C593      1.0  0.14390  0.86292  0.62960  1.0000
  C   C594      1.0  0.16410  0.87049  0.63409  1.0000
  C   C595      1.0  0.16357  0.88624  0.63768  1.0000
  C   C596      1.0  0.14289  0.89467  0.63700  1.0000
  C   C597      1.0  0.12268  0.88709  0.63261  1.0000
  C   C598      1.0  0.12323  0.87136  0.62888  1.0000
  H   H1001     1.0  0.18015  0.86423  0.63474  1.0000
  H   H1002     1.0  0.17935  0.89192  0.64094  1.0000
  H   H1003     1.0  0.10662  0.89333  0.63193  1.0000
  H   H1004     1.0  0.10746  0.86568  0.62545  1.0000
  C   C599      1.0  0.13972  0.77497  0.53894  1.0000
  C   C600      1.0  0.13186  0.76282  0.52357  1.0000
  H   H1005     1.0  0.15836  0.73789  0.80865  1.0000
  C   C601      1.0  0.13016  0.77978  0.96308  1.0000
  H   H1006     1.0  0.02769  0.72483  0.75391  1.0000
  C   C602      1.0  0.14316  0.78862  0.52561  1.0000
  H   H1007     1.0  0.12910  0.75222  0.53368  1.0000
  H   H1008     1.0  0.17110  0.93352  0.89763  1.0000
  C   C603      1.0  0.44338  0.72514  0.49898  1.0000
  H   H1009     1.0  0.14907  0.79809  0.53712  1.0000
  C   C604      1.0  0.15551  0.78335  0.73083  1.0000
  C   C605      1.0  0.16035  0.78205  0.75897  1.0000
  C   C606      1.0  0.14342  0.77796  0.77782  1.0000
  C   C607      1.0  0.12143  0.77516  0.76868  1.0000
  C   C608      1.0  0.11636  0.77696  0.74065  1.0000
  C   C609      1.0  0.13335  0.78094  0.72174  1.0000
  H   H1010     1.0  0.17741  0.78405  0.76618  1.0000
  H   H1011     1.0  0.14745  0.77685  0.79939  1.0000
  H   H1012     1.0  0.09931  0.77505  0.73341  1.0000
  H   H1013     1.0  0.12944  0.78188  0.70012  1.0000
  C   C610      1.0  0.30018  0.76215  0.62701  1.0000
  C   C611      1.0  0.27964  0.76414  0.64174  1.0000
  C   C612      1.0  0.26277  0.77482  0.63344  1.0000
  C   C613      1.0  0.26638  0.78393  0.61055  1.0000
  C   C614      1.0  0.28682  0.78187  0.59563  1.0000
  C   C615      1.0  0.30352  0.77096  0.60361  1.0000
  H   H1014     1.0  0.27685  0.75747  0.65992  1.0000
  H   H1015     1.0  0.24723  0.77625  0.64523  1.0000
  H   H1016     1.0  0.28992  0.78890  0.57799  1.0000
  H   H1017     1.0  0.31925  0.76969  0.59217  1.0000
  C   C616      1.0  0.16254  0.94049  0.91368  1.0000
  H   H1018     1.0  0.14931  0.97105  0.97129  1.0000
  C   C617      1.0  0.14141  0.92959  0.56671  1.0000
  H   H1019     1.0  0.16830  0.97076  0.93030  1.0000
  H   H1020     1.0  0.01749  0.77867  0.78841  1.0000
  H   H1021     1.0  0.12796  0.94163  0.90085  1.0000
  H   H1022     1.0  0.09516  0.96306  0.79591  1.0000
  H   H1023     1.0  0.07646  0.74040  0.78907  1.0000
  H   H1024     1.0  0.21927  0.75701  0.80559  1.0000
  H   H1025     1.0  0.16053  0.74961  0.78000  1.0000
  H   H1026     1.0  0.19415  0.74661  0.71585  1.0000
  H   H1027     1.0  0.08269  0.97039  0.88118  1.0000
  C   C618      1.0  0.14143  0.79071  0.97833  1.0000
  H   H1028     1.0  0.21932  0.75048  0.58795  1.0000
  H   H1029     1.0  0.19145  0.74273  0.50273  1.0000
  H   H1030     1.0  0.19165  0.75827  0.55418  1.0000
  H   H1031     1.0  0.11305  0.97077  0.94757  1.0000
  H   H1032     1.0  0.34062  0.73470  0.80186  1.0000
  S   S186      1.0  0.06696  0.96382  0.64278  1.0000
  C   C619      1.0  0.11822  0.90864  0.55297  1.0000
  H   H1033     1.0  0.08230  0.91881  0.51878  1.0000
  C   C620      1.0  0.07390  0.74192  0.74511  1.0000
  C   C621      1.0  0.20617  0.79845  0.51713  1.0000
  H   H1034     1.0  0.19687  0.94708  0.74798  1.0000
  H   H1035     1.0  0.17381  0.96011  0.67601  1.0000
  H   H1036     1.0  0.48104  0.73739  0.52317  1.0000
  H   H1037     1.0  0.05227  0.76248  0.79903  1.0000
  H   H1038     1.0  0.20387  0.95973  0.70901  1.0000
  C   C622      1.0  0.12215  0.76718  0.97672  1.0000
  H   H1039     1.0  0.13327  0.92716  0.58686  1.0000
  H   H1040     1.0  0.15856  0.92394  0.56750  1.0000
  N   N42       1.0  0.13546  0.96406  0.91404  1.0000
  C   C623      1.0  0.16085  0.73769  0.78598  1.0000
  H   H1041     1.0  0.15773  0.94916  0.58319  1.0000
  C   C624      1.0  0.14242  0.94941  0.90070  1.0000
  H   H1042     1.0  0.19864  0.73514  0.81760  1.0000
  H   H1043     1.0  0.14151  0.94609  0.69019  1.0000
  H   H1044     1.0  0.11343  0.75869  0.96530  1.0000
  C   C625      1.0  0.13940  0.73092  0.77345  1.0000
  C   C626      1.0  0.09156  0.92916  0.51402  1.0000
  C   C627      1.0  0.22471  0.75912  0.57303  1.0000
  H   H1045     1.0  0.19078  0.76065  0.79494  1.0000
  C   C628      1.0  0.02341  0.73665  0.75965  1.0000
  C   C629      1.0  0.09816  0.97068  0.75397  1.0000
  C   C630      1.0  0.19535  0.96770  0.72356  1.0000
  S   S187      1.0  0.08125  0.96624  0.56397  1.0000
  C   C631      1.0  0.03479  0.73590  0.80802  1.0000
  H   H1046     1.0  0.17483  0.96777  0.87921  1.0000
  C   C632      1.0  0.18848  0.73032  0.74841  1.0000
  N   N43       1.0  0.04047  0.74221  0.78011  1.0000
  H   H1047     1.0  0.15199  0.95092  0.54741  1.0000
  H   H1048     1.0  0.38185  0.73324  0.88580  1.0000
  H   H1049     1.0  0.14131  0.72874  0.75120  1.0000
  Fe  Fe95      1.0  0.35353  0.73563  0.62662  1.0000
  H   H1050     1.0  0.21140  0.76549  0.97673  1.0000
  C   C633      1.0  0.10716  0.93378  0.53774  1.0000
  C   C634      1.0  0.11733  0.97156  0.89637  1.0000
  C   C635      1.0  0.20197  0.73668  0.79528  1.0000
  H   H1051     1.0  0.18919  0.78486  0.54697  1.0000
  N   N44       1.0  0.12874  0.83245  0.71477  1.0000
  C   C636      1.0  0.10951  0.83227  0.69418  1.0000
  C   C637      1.0  0.13108  0.84852  0.72364  1.0000
  C   C638      1.0  0.12189  0.82307  0.73908  1.0000
  C   C639      1.0  0.15004  0.82600  0.70133  1.0000
  C   C640      1.0  0.10112  0.81667  0.68594  1.0000
  C   C641      1.0  0.13655  0.85967  0.70047  1.0000
  C   C642      1.0  0.13889  0.82175  0.76300  1.0000
  C   C643      1.0  0.17322  0.83024  0.71387  1.0000
  H   H1052     1.0  0.09432  0.83879  0.70185  1.0000
  H   H1053     1.0  0.11448  0.83788  0.67470  1.0000
  H   H1054     1.0  0.14429  0.84976  0.73953  1.0000
  H   H1055     1.0  0.11506  0.85270  0.73371  1.0000
  H   H1056     1.0  0.10531  0.82734  0.74760  1.0000
  H   H1057     1.0  0.11916  0.81128  0.73288  1.0000
  H   H1058     1.0  0.14953  0.81357  0.70071  1.0000
  H   H1059     1.0  0.15077  0.82955  0.67944  1.0000
  H   H1060     1.0  0.09100  0.81771  0.66675  1.0000
  H   H1061     1.0  0.11533  0.80855  0.68201  1.0000
  H   H1062     1.0  0.08976  0.81207  0.70192  1.0000
  H   H1063     1.0  0.14091  0.87064  0.70949  1.0000
  H   H1064     1.0  0.15126  0.85581  0.68784  1.0000
  H   H1065     1.0  0.12160  0.86182  0.68699  1.0000
  H   H1066     1.0  0.14295  0.83273  0.77199  1.0000
  H   H1067     1.0  0.15464  0.81545  0.75684  1.0000
  H   H1068     1.0  0.13113  0.81505  0.77964  1.0000
  H   H1069     1.0  0.18477  0.82015  0.71410  1.0000
  H   H1070     1.0  0.17270  0.83444  0.73510  1.0000
  H   H1071     1.0  0.18180  0.83849  0.70055  1.0000
  N   N45       1.0  0.12740  0.92345  0.54352  1.0000
  H   H1072     1.0  0.09190  0.73784  0.74341  1.0000
  H   H1073     1.0  0.02284  0.75859  0.86232  1.0000
  H   H1074     1.0  0.14923  0.97202  0.67999  1.0000
  H   H1075     1.0  0.01237  0.76415  0.81244  1.0000
  H   H1076     1.0  0.39651  0.73393  0.85388  1.0000
  H   H1077     1.0  0.10963  0.81564  0.99099  1.0000
  N   N46       1.0  0.21294  0.77007  0.52554  1.0000
  H   H1078     1.0  0.12329  0.97275  0.87485  1.0000
  H   H1079     1.0  0.19826  0.96365  0.76795  1.0000
  H   H1080     1.0  0.14600  0.95087  0.87841  1.0000
  C   C644      1.0  0.01788  0.96892  0.68580  1.0000
  H   H1081     1.0  0.21766  0.78830  0.55460  1.0000
  C   C645      1.0  0.40139  0.74102  0.52383  1.0000
  S   S188      1.0  0.38233  0.73167  0.65699  1.0000
  H   H1082     1.0  0.15651  0.93297  0.93020  1.0000
  H   H1083     1.0  0.12480  0.73898  0.77624  1.0000
  S   S189      1.0  0.37778  0.73529  0.59032  1.0000
  H   H1084     1.0  0.43500  0.74829  0.53236  1.0000
  C   C646      1.0  0.01663  0.76631  0.79070  1.0000
  H   H1085     1.0  0.10832  0.90328  0.53646  1.0000
  C   C647      1.0  0.18170  0.74487  0.73268  1.0000
  C   C648      1.0  0.20978  0.75819  0.54720  1.0000
  H   H1086     1.0  0.19299  0.77976  0.99274  1.0000
  S   S190      1.0  0.44219  0.73912  0.61809  1.0000
  H   H1087     1.0  0.21867  0.73096  0.79100  1.0000
  H   H1088     1.0  0.48445  0.75486  0.61827  1.0000
  H   H1089     1.0  0.13799  0.95614  0.72130  1.0000
  C   C649      1.0  0.19561  0.76766  0.98875  1.0000
  H   H1090     1.0  0.11486  0.95118  0.94215  1.0000
  H   H1091     1.0  0.14672  0.90056  0.57953  1.0000
  C   C650      1.0  0.15052  0.93439  0.50277  1.0000
  C   C651      1.0  0.14522  0.94661  0.56693  1.0000
  H   H1092     1.0  0.00615  0.73631  0.76922  1.0000
  N   N47       1.0  0.18320  0.72988  0.77876  1.0000
  H   H1093     1.0  0.21308  0.75565  0.77009  1.0000
  H   H1094     1.0  0.12923  0.95289  0.57225  1.0000
  H   H1095     1.0  0.30192  0.72639  0.81237  1.0000
  C   C652      1.0  0.16257  0.96556  0.69164  1.0000
  H   H1096     1.0  0.04581  0.76482  0.76430  1.0000
  H   H1097     1.0  0.42235  0.73855  0.55997  1.0000
  H   H1098     1.0  0.11225  0.94534  0.53294  1.0000
  C   C653      1.0  0.12522  0.96144  0.94209  1.0000
  H   H1099     1.0  0.09634  0.93500  0.55641  1.0000
  H   H1100     1.0  0.07836  0.93820  0.51092  1.0000
  H   H1101     1.0  0.08575  0.96286  0.91485  1.0000
  H   H1102     1.0  0.20701  0.72804  0.74480  1.0000
  C   C654      1.0  0.20645  0.78519  0.53749  1.0000
  H   H1103     1.0  0.27182  0.77152  0.52795  1.0000
  H   H1104     1.0  0.16498  0.74380  0.72235  1.0000
  H   H1105     1.0  0.17149  0.95777  0.75470  1.0000
  H   H1106     1.0  0.12721  0.88666  0.56989  1.0000
  C   C655      1.0  0.47149  0.73251  0.61752  1.0000
  H   H1107     1.0  0.06469  0.73688  0.72777  1.0000
  C   C656      1.0  0.15085  0.95243  0.70593  1.0000
  C   C657      1.0  0.99903  0.72605  0.88189  1.0000
  H   H1108     1.0  0.22276  0.77000  0.58371  1.0000
  H   H1109     1.0  0.03363  0.75392  0.72831  1.0000
  H   H1110     1.0  0.09609  0.95240  0.88513  1.0000
  C   C658      1.0  0.06434  0.73685  0.77296  1.0000
  H   H1111     1.0  0.01738  0.95860  0.69847  1.0000
  S   S191      1.0  0.16840  0.72473  0.86197  1.0000
  H   H1112     1.0  0.16335  0.94430  0.71492  1.0000
  C   C659      1.0  0.09432  0.96363  0.89464  1.0000
  H   H1113     1.0  0.00258  0.76254  0.77752  1.0000
  H   H1114     1.0  0.24293  0.75749  0.51183  1.0000
  C   C660      1.0  0.18977  0.95872  0.74989  1.0000
  H   H1115     1.0  0.15534  0.95146  0.96374  1.0000
  H   H1116     1.0  0.18154  0.75520  0.74497  1.0000
  H   H1117     1.0  0.00346  0.75162  0.73230  1.0000
  C   C661      1.0  0.20610  0.75347  0.79082  1.0000
  C   C662      1.0  0.14193  0.92059  0.51844  1.0000
  H   H1118     1.0  0.13190  0.95695  0.98520  1.0000
  C   C663      1.0  0.47556  0.73541  0.54459  1.0000
  S   S192      1.0  0.04552  0.73094  0.88378  1.0000
  H   H1119     1.0  0.46857  0.74593  0.55384  1.0000
  H   H1120     1.0  0.17607  0.94759  0.92177  1.0000
  H   H1121     1.0  0.04575  0.74079  0.82418  1.0000
  C   C664      1.0  0.02039  0.74571  0.73266  1.0000
  H   H1122     1.0  0.21350  0.74682  0.53882  1.0000
  H   H1123     1.0  0.01692  0.73897  0.81380  1.0000
  H   H1124     1.0  0.22162  0.79853  0.50409  1.0000
  H   H1125     1.0  0.40273  0.74277  0.50139  1.0000
  C   C665      1.0  0.42497  0.73824  0.53730  1.0000
  H   H1126     1.0  0.35548  0.73851  0.84794  1.0000
  H   H1127     1.0  0.08075  0.81079  0.98566  1.0000
  C   C666      1.0  0.23682  0.76936  0.51391  1.0000
  Fe  Fe96      1.0  0.40613  0.72904  0.62047  1.0000
  H   H1128     1.0  0.15754  0.91390  0.52398  1.0000
  H   H1129     1.0  0.19073  0.79844  0.50401  1.0000
  C   C667      1.0  0.48898  0.74303  0.61723  1.0000
  H   H1130     1.0  0.01775  0.96587  0.66379  1.0000
  H   H1131     1.0  0.31602  0.73147  0.84325  1.0000
  H   H1132     1.0  0.13323  0.91328  0.50348  1.0000
  H   H1133     1.0  0.16728  0.93780  0.51079  1.0000
  H   H1134     1.0  0.38942  0.73191  0.52819  1.0000
  H   H1135     1.0  0.38020  0.73338  0.80223  1.0000
  H   H1136     1.0  0.13856  0.94418  0.50281  1.0000
  C   C668      1.0  0.19630  0.76715  0.50268  1.0000
  C   C669      1.0  0.38426  0.72732  0.86593  1.0000
  C   C670      1.0  0.36096  0.72660  0.85151  1.0000
  H   H1137     1.0  0.17850  0.76862  0.51010  1.0000
  H   H1138     1.0  0.49111  0.73229  0.55651  1.0000
  H   H1139     1.0  0.03457  0.97401  0.68997  1.0000
  Fe  Fe97      1.0  0.88106  0.04318  0.36531  1.0000
  S   S193      1.0  0.85792  0.02363  0.37336  1.0000
  S   S194      1.0  0.87668  0.06876  0.37320  1.0000
  Fe  Fe98      1.0  0.92121  0.02173  0.35042  1.0000
  S   S195      1.0  0.90089  0.00126  0.35738  1.0000
  S   S196      1.0  0.95682  0.01595  0.33533  1.0000
  Fe  Fe99      1.0  0.87334  0.01360  0.33417  1.0000
  S   S197      1.0  0.85346  0.00114  0.30086  1.0000
  Fe  Fe100     1.0  0.88772  0.01246  0.39591  1.0000
  S   S198      1.0  0.89384  0.99852  0.43563  1.0000
  S   S199      1.0  0.89440  0.03370  0.32509  1.0000
  S   S200      1.0  0.90996  0.03239  0.38987  1.0000
  H   H1140     1.0  0.90070  0.00770  0.10998  1.0000
  S   S201      1.0  0.64848  0.21398  0.37084  1.0000
  Fe  Fe101     1.0  0.78528  0.18305  0.36737  1.0000
  S   S202      1.0  0.81776  0.19560  0.37114  1.0000
  S   S203      1.0  0.75654  0.20097  0.36058  1.0000
  Fe  Fe102     1.0  0.81315  0.15285  0.36947  1.0000
  S   S204      1.0  0.84676  0.16414  0.37346  1.0000
  S   S205      1.0  0.81029  0.12739  0.36212  1.0000
  Fe  Fe103     1.0  0.82862  0.17932  0.40401  1.0000
  S   S206      1.0  0.84819  0.19094  0.43826  1.0000
  Fe  Fe104     1.0  0.83327  0.17973  0.34056  1.0000
  S   S207      1.0  0.85630  0.19004  0.30829  1.0000
  S   S208      1.0  0.79529  0.16727  0.40220  1.0000
  S   S209      1.0  0.80058  0.16789  0.33459  1.0000
  C   C671      1.0  0.84584  0.99374  0.16118  1.0000
  H   H1141     1.0  0.83137  0.98497  0.25763  1.0000
  S   S210      1.0  0.89698  0.19859  0.11677  1.0000
  H   H1142     1.0  0.80803  0.19916  0.29861  1.0000
  Fe  Fe105     1.0  0.87562  0.21266  0.08762  1.0000
  S   S211      1.0  0.87206  0.20996  0.04115  1.0000
  Fe  Fe106     1.0  0.87021  0.20420  0.14874  1.0000
  S   S212      1.0  0.85483  0.18705  0.17781  1.0000
  C   C672      1.0  0.85491  0.19872  0.01994  1.0000
  H   H1143     1.0  0.89555  0.12482  0.28606  1.0000
  H   H1144     1.0  0.96985  0.97619  0.08740  1.0000
  C   C673      1.0  0.84605  0.19043  0.47458  1.0000
  H   H1145     1.0  0.91885  0.19647  0.17762  1.0000
  C   C674      1.0  0.83842  0.18930  0.03058  1.0000
  H   H1146     1.0  0.80494  0.21219  0.00547  1.0000
  H   H1147     1.0  0.82242  0.17250  0.47679  1.0000
  C   C675      1.0  0.85892  0.20045  0.49003  1.0000
  H   H1148     1.0  0.83619  0.18841  0.05254  1.0000
  C   C676      1.0  0.85425  0.18956  0.27209  1.0000
  C   C677      1.0  0.86733  0.19948  0.25665  1.0000
  C   C678      1.0  0.86719  0.19910  0.22779  1.0000
  C   C679      1.0  0.85415  0.18865  0.21404  1.0000
  C   C680      1.0  0.84067  0.17891  0.22949  1.0000
  C   C681      1.0  0.84050  0.17948  0.25842  1.0000
  H   H1149     1.0  0.84308  0.14626  0.26122  1.0000
  H   H1150     1.0  0.87934  0.15821  0.26955  1.0000
  H   H1151     1.0  0.83040  0.17087  0.21899  1.0000
  H   H1152     1.0  0.83004  0.17199  0.27011  1.0000
  C   C682      1.0  0.84944  0.98448  0.25323  1.0000
  S   S213      1.0  0.84727  0.21616  0.11822  1.0000
  C   C683      1.0  0.98163  0.22195  0.13339  1.0000
  C   C684      1.0  0.67867  0.21067  0.36844  1.0000
  H   H1153     1.0  0.83445  0.21805  0.29095  1.0000
  C   C685      1.0  0.71744  0.21886  0.36033  1.0000
  C   C686      1.0  0.72647  0.20421  0.36425  1.0000
  C   C687      1.0  0.71142  0.19281  0.37055  1.0000
  C   C688      1.0  0.68771  0.19602  0.37248  1.0000
  H   H1154     1.0  0.72379  0.21191  0.42366  1.0000
  H   H1155     1.0  0.96519  0.00195  0.48628  1.0000
  H   H1156     1.0  0.71798  0.18147  0.37364  1.0000
  H   H1157     1.0  0.67628  0.18705  0.37707  1.0000
  C   C689      1.0  0.63873  0.21029  0.25489  1.0000
  H   H1158     1.0  0.96045  0.04094  0.37301  1.0000
  C   C690      1.0  0.85753  0.08478  0.37061  1.0000
  C   C691      1.0  0.83583  0.08410  0.35886  1.0000
  C   C692      1.0  0.82161  0.09716  0.35690  1.0000
  C   C693      1.0  0.82877  0.11116  0.36648  1.0000
  C   C694      1.0  0.85047  0.11186  0.37821  1.0000
  C   C695      1.0  0.86464  0.09878  0.38030  1.0000
  H   H1159     1.0  0.82997  0.07350  0.35134  1.0000
  H   H1160     1.0  0.80489  0.09640  0.34782  1.0000
  H   H1161     1.0  0.85633  0.12246  0.38577  1.0000
  H   H1162     1.0  0.88132  0.09951  0.38951  1.0000
  C   C696      1.0  0.86455  0.99153  0.27122  1.0000
  H   H1163     1.0  0.94752  0.02778  0.47832  1.0000
  H   H1164     1.0  0.78859  0.10807  0.01799  1.0000
  C   C697      1.0  0.88788  0.99068  0.26520  1.0000
  C   C698      1.0  0.80236  0.21565  0.25113  1.0000
  H   H1165     1.0  0.89980  0.99597  0.27873  1.0000
  C   C699      1.0  0.88132  0.99113  0.46630  1.0000
  H   H1166     1.0  0.97887  0.02880  0.44969  1.0000
  H   H1167     1.0  0.86525  0.00481  0.02683  1.0000
  H   H1168     1.0  0.83717  0.11519  0.31118  1.0000
  H   H1169     1.0  0.94659  0.99145  0.44810  1.0000
  C   C700      1.0  0.88289  0.01006  0.10331  1.0000
  C   C701      1.0  0.98006  0.02356  0.35249  1.0000
  C   C702      1.0  0.97722  0.03587  0.36995  1.0000
  H   H1170     1.0  0.65725  0.21976  0.48809  1.0000
  H   H1171     1.0  0.91571  0.20058  0.25066  1.0000
  H   H1172     1.0  0.80096  0.12233  0.29474  1.0000
  H   H1173     1.0  0.87021  0.98475  0.39192  1.0000
  H   H1174     1.0  0.88221  0.00705  0.08124  1.0000
  H   H1175     1.0  0.83306  0.99340  0.40621  1.0000
  C   C703      1.0  0.85792  0.99230  0.47189  1.0000
  H   H1176     1.0  0.81656  0.22344  0.33655  1.0000
  N   N48       1.0  0.86036  0.00552  0.14825  1.0000
  C   C704      1.0  0.87194  0.98098  0.02376  1.0000
  H   H1177     1.0  0.91394  0.98261  0.23708  1.0000
  C   C705      1.0  0.96689  0.02041  0.44182  1.0000
  H   H1178     1.0  0.66132  0.19911  0.28501  1.0000
  H   H1179     1.0  0.82649  0.03696  0.16836  1.0000
  H   H1180     1.0  0.87736  0.20677  0.21615  1.0000
  C   C706      1.0  0.93126  0.19492  0.25864  1.0000
  H   H1181     1.0  0.81368  0.09710  0.00833  1.0000
  H   H1182     1.0  0.59181  0.21668  0.26428  1.0000
  C   C707      1.0  0.79310  0.20715  0.29740  1.0000
  H   H1183     1.0  0.81084  0.20433  0.25058  1.0000
  C   C708      1.0  0.96107  0.99322  0.43379  1.0000
  C   C709      1.0  0.87854  0.14853  0.25540  1.0000
  H   H1184     1.0  0.85260  0.13561  0.33190  1.0000
  H   H1185     1.0  0.81441  0.00015  0.13810  1.0000
  H   H1186     1.0  0.85651  0.13051  0.24501  1.0000
  C   C710      1.0  0.79928  0.10420  0.00042  1.0000
  C   C711      1.0  0.98147  0.00168  0.47449  1.0000
  C   C712      1.0  0.84897  0.98608  0.49629  1.0000
  C   C713      1.0  0.83237  0.18030  0.48839  1.0000
  H   H1187     1.0  0.78571  0.21439  0.24060  1.0000
  H   H1188     1.0  0.89648  0.14588  0.30637  1.0000
  H   H1189     1.0  0.80879  0.98208  0.39795  1.0000
  H   H1190     1.0  0.92881  0.17753  0.18002  1.0000
  H   H1191     1.0  0.96429  0.99778  0.38932  1.0000
  C   C714      1.0  0.88246  0.14764  0.32118  1.0000
  H   H1192     1.0  0.88034  0.15998  0.32383  1.0000
  H   H1193     1.0  0.84726  0.15078  0.30918  1.0000
  Fe  Fe107     1.0  0.91361  0.22005  0.12936  1.0000
  C   C715      1.0  0.66107  0.20184  0.26274  1.0000
  C   C716      1.0  0.94426  0.02356  0.45731  1.0000
  H   H1194     1.0  0.96089  0.18327  0.20781  1.0000
  H   H1195     1.0  0.86115  0.02975  0.14545  1.0000
  H   H1196     1.0  0.96683  0.19284  0.25112  1.0000
  H   H1197     1.0  0.96000  0.19544  0.17916  1.0000
  H   H1198     1.0  0.75642  0.20476  0.28847  1.0000
  H   H1199     1.0  0.87792  0.02389  0.19474  1.0000
  S   S214      1.0  0.86877  0.97806  0.06004  1.0000
  C   C717      1.0  0.69381  0.22211  0.36260  1.0000
  H   H1200     1.0  0.87764  0.20751  0.26713  1.0000
  C   C718      1.0  0.85925  0.14111  0.31307  1.0000
  H   H1201     1.0  0.82801  0.98285  0.12725  1.0000
  H   H1202     1.0  0.87590  0.15339  0.23459  1.0000
  H   H1203     1.0  0.98815  0.00350  0.24489  1.0000
  H   H1204     1.0  0.94051  0.98685  0.39890  1.0000
  H   H1205     1.0  0.88208  0.11650  0.33425  1.0000
  H   H1206     1.0  0.81168  0.00022  0.38322  1.0000
  H   H1207     1.0  0.96461  0.02375  0.41999  1.0000
  C   C719      1.0  0.95155  0.19325  0.19918  1.0000
  H   H1208     1.0  0.81015  0.21874  0.49620  1.0000
  C   C720      1.0  0.84844  0.02075  0.14688  1.0000
  H   H1209     1.0  0.89438  0.01401  0.15371  1.0000
  H   H1210     1.0  0.87869  0.02221  0.10482  1.0000
  H   H1211     1.0  0.62544  0.20527  0.26805  1.0000
  H   H1212     1.0  0.96988  0.98204  0.43241  1.0000
  H   H1213     1.0  0.83990  0.02387  0.19119  1.0000
  H   H1214     1.0  0.83806  0.02192  0.12783  1.0000
  H   H1215     1.0  0.98235  0.97694  0.47580  1.0000
  H   H1216     1.0  0.99171  0.01068  0.48375  1.0000
  C   C721      1.0  0.85828  0.13858  0.26225  1.0000
  C   C722      1.0  0.77264  0.19812  0.28745  1.0000
  H   H1217     1.0  0.97920  0.00446  0.27981  1.0000
  H   H1218     1.0  0.66237  0.19117  0.25105  1.0000
  H   H1219     1.0  0.84480  0.99265  0.35634  1.0000
  C   C723      1.0  0.69328  0.21888  0.44599  1.0000
  H   H1220     1.0  0.81212  0.17370  0.02110  1.0000
  C   C724      1.0  0.95095  0.99644  0.40516  1.0000
  H   H1221     1.0  0.91642  0.18627  0.20958  1.0000
  H   H1222     1.0  0.81647  0.22097  0.21110  1.0000
  H   H1223     1.0  0.88799  0.14319  0.34148  1.0000
  N   N49       1.0  0.79882  0.22074  0.28045  1.0000
  H   H1224     1.0  0.81262  0.98351  0.15878  1.0000
  C   C725      1.0  0.89587  0.98304  0.24151  1.0000
  H   H1225     1.0  0.77531  0.19347  0.26659  1.0000
  S   S215      1.0  0.95258  0.21621  0.13673  1.0000
  N   N50       1.0  0.95334  0.20661  0.21806  1.0000
  H   H1226     1.0  0.97881  0.98997  0.04652  1.0000
  H   H1227     1.0  0.93342  0.01369  0.45898  1.0000
  H   H1228     1.0  0.81137  0.13353  0.26738  1.0000
  C   C726      1.0  0.87915  0.11931  0.28928  1.0000
  C   C727      1.0  0.82138  0.98993  0.38969  1.0000
  H   H1229     1.0  0.85040  0.00008  0.10657  1.0000
  C   C728      1.0  0.83206  0.02502  0.17071  1.0000
  H   H1230     1.0  0.86859  0.10114  0.31705  1.0000
  H   H1231     1.0  0.63385  0.20679  0.23385  1.0000
  H   H1232     1.0  0.89850  0.10328  0.31451  1.0000
  N   N51       1.0  0.97704  0.00477  0.44456  1.0000
  H   H1233     1.0  0.89505  0.14223  0.25475  1.0000
  C   C729      1.0  0.64397  0.21950  0.44765  1.0000
  C   C730      1.0  0.92485  0.16931  0.49027  1.0000
  H   H1234     1.0  0.91361  0.98258  0.48162  1.0000
  C   C731      1.0  0.88116  0.01159  0.19369  1.0000
  H   H1235     1.0  0.85583  0.98301  0.16356  1.0000
  H   H1236     1.0  0.93075  0.18273  0.25415  1.0000
  H   H1237     1.0  0.87796  0.11146  0.27162  1.0000
  C   C732      1.0  0.83788  0.12116  0.29120  1.0000
  C   C733      1.0  0.81487  0.12988  0.28876  1.0000
  C   C734      1.0  0.88196  0.10963  0.31538  1.0000
  C   C735      1.0  0.86602  0.00039  0.11945  1.0000
  N   N52       1.0  0.85911  0.13031  0.28927  1.0000
  H   H1238     1.0  0.81639  0.01839  0.17038  1.0000
  C   C736      1.0  0.83430  0.98345  0.36452  1.0000
  H   H1239     1.0  0.86946  0.20839  0.47950  1.0000
  H   H1240     1.0  0.83799  0.11221  0.27528  1.0000
  H   H1241     1.0  0.82117  0.98149  0.34864  1.0000
  H   H1242     1.0  0.81368  0.13960  0.30281  1.0000
  H   H1243     1.0  0.67662  0.20783  0.25723  1.0000
  H   H1244     1.0  0.89793  0.00934  0.20363  1.0000
  C   C737      1.0  0.82480  0.18098  0.01268  1.0000
  H   H1245     1.0  0.84670  0.99808  0.45755  1.0000
  C   C738      1.0  0.99332  0.98643  0.48104  1.0000
  C   C739      1.0  0.88253  0.00622  0.16375  1.0000
  H   H1246     1.0  0.87198  0.97640  0.33733  1.0000
  H   H1247     1.0  0.93387  0.03212  0.44595  1.0000
  H   H1248     1.0  0.77046  0.18843  0.30144  1.0000
  C   C740      1.0  0.82399  0.99002  0.14527  1.0000
  H   H1249     1.0  0.93935  0.00644  0.40534  1.0000
  H   H1250     1.0  0.86845  0.00568  0.20611  1.0000
  C   C741      1.0  0.92741  0.18823  0.19158  1.0000
  H   H1251     1.0  0.67388  0.22222  0.29818  1.0000
  H   H1252     1.0  0.89151  0.99504  0.16359  1.0000
  C   C742      1.0  0.86907  0.99562  0.01300  1.0000
  C   C743      1.0  0.85745  0.97679  0.22954  1.0000
  H   H1253     1.0  0.87316  0.98866  0.11962  1.0000
  H   H1254     1.0  0.84060  0.99681  0.18234  1.0000
  H   H1255     1.0  0.78909  0.21032  0.31894  1.0000
  C   C744      1.0  0.88078  0.97609  0.22337  1.0000
  H   H1256     1.0  0.94116  0.16330  0.49503  1.0000
  H   H1257     1.0  0.92659  0.17418  0.46939  1.0000
  H   H1258     1.0  0.69330  0.20804  0.45741  1.0000
  H   H1259     1.0  0.62580  0.21930  0.45403  1.0000
  H   H1260     1.0  0.91078  0.16131  0.48905  1.0000
  H   H1261     1.0  0.64987  0.20765  0.44496  1.0000
  C   C745      1.0  0.89551  0.98363  0.48555  1.0000
  H   H1262     1.0  0.68360  0.21667  0.42701  1.0000
  H   H1263     1.0  0.65882  0.21906  0.20624  1.0000
  H   H1264     1.0  0.91750  0.21343  0.21360  1.0000
  H   H1265     1.0  0.93030  0.19655  0.28120  1.0000
  C   C746      1.0  0.71790  0.22156  0.43647  1.0000
  H   H1266     1.0  0.82190  0.21953  0.05773  1.0000
  H   H1267     1.0  0.79323  0.21790  0.04848  1.0000
  H   H1268     1.0  0.95838  0.21082  0.26166  1.0000
  C   C747      1.0  0.95335  0.20166  0.24763  1.0000
  H   H1269     1.0  0.73000  0.22217  0.45379  1.0000
  H   H1270     1.0  0.62953  0.22371  0.30082  1.0000
  H   H1271     1.0  0.79641  0.21896  0.09782  1.0000
  H   H1272     1.0  0.99277  0.97903  0.26786  1.0000
  C   C748      1.0  0.97576  0.21395  0.21235  1.0000
  C   C749      1.0  0.93467  0.21813  0.21199  1.0000
  H   H1273     1.0  0.93589  0.22197  0.19030  1.0000
  H   H1274     1.0  0.97558  0.21922  0.19161  1.0000
  H   H1275     1.0  0.97869  0.22324  0.22696  1.0000
  Fe  Fe108     1.0  0.87298  0.04014  0.87080  1.0000
  S   S216      1.0  0.84993  0.02012  0.87336  1.0000
  S   S217      1.0  0.86728  0.06521  0.88189  1.0000
  Fe  Fe109     1.0  0.91435  0.02023  0.85642  1.0000
  S   S218      1.0  0.89445  0.99935  0.85838  1.0000
  S   S219      1.0  0.95045  0.01530  0.84267  1.0000
  Fe  Fe110     1.0  0.86786  0.01206  0.83440  1.0000
  S   S220      1.0  0.85012  0.99918  0.79989  1.0000
  Fe  Fe111     1.0  0.87850  0.00844  0.89716  1.0000
  S   S221      1.0  0.87709  0.98946  0.92964  1.0000
  S   S222      1.0  0.88865  0.03276  0.83036  1.0000
  S   S223      1.0  0.90066  0.02865  0.89666  1.0000
  C   C750      1.0  0.97096  0.21605  0.63005  1.0000
  H   H1276     1.0  0.79803  0.98187  0.85300  1.0000
  Fe  Fe112     1.0  0.77316  0.17795  0.86946  1.0000
  S   S224      1.0  0.80269  0.19050  0.88650  1.0000
  S   S225      1.0  0.74391  0.19365  0.85473  1.0000
  Fe  Fe113     1.0  0.80163  0.14764  0.87068  1.0000
  S   S226      1.0  0.83254  0.15870  0.88727  1.0000
  S   S227      1.0  0.80035  0.12242  0.86075  1.0000
  Fe  Fe114     1.0  0.80803  0.17111  0.91556  1.0000
  S   S228      1.0  0.80967  0.17138  0.96249  1.0000
  Fe  Fe115     1.0  0.82417  0.17709  0.85650  1.0000
  S   S229      1.0  0.85094  0.18833  0.83006  1.0000
  S   S230      1.0  0.77713  0.15917  0.90024  1.0000
  S   S231      1.0  0.79469  0.16533  0.83818  1.0000
  H   H1277     1.0  0.96424  0.18686  0.56517  1.0000
  H   H1278     1.0  0.71132  0.21188  0.91849  1.0000
  S   S232      1.0  0.88633  0.19184  0.63178  1.0000
  H   H1279     1.0  0.86637  0.11272  0.73828  1.0000
  Fe  Fe116     1.0  0.90454  0.21385  0.63031  1.0000
  H   H1280     1.0  0.79976  0.10950  0.91655  1.0000
  Fe  Fe117     1.0  0.86514  0.20192  0.66590  1.0000
  S   S233      1.0  0.84882  0.18774  0.69926  1.0000
  C   C751      1.0  0.84483  0.19001  0.53272  1.0000
  H   H1281     1.0  0.98626  0.97958  0.64473  1.0000
  C   C752      1.0  0.84392  0.19143  0.97343  1.0000
  C   C753      1.0  0.82744  0.18201  0.98403  1.0000
  H   H1282     1.0  0.98760  0.20394  0.59706  1.0000
  H   H1283     1.0  0.83986  0.14101  0.97775  1.0000
  H   H1284     1.0  0.94326  0.15900  0.54083  1.0000
  H   H1285     1.0  0.84618  0.19234  0.95146  1.0000
  C   C754      1.0  0.89337  0.16210  0.57309  1.0000
  H   H1286     1.0  0.86798  0.20823  0.53046  1.0000
  C   C755      1.0  0.85013  0.18839  0.79368  1.0000
  C   C756      1.0  0.86756  0.19522  0.77874  1.0000
  C   C757      1.0  0.86751  0.19523  0.74979  1.0000
  C   C758      1.0  0.85011  0.18824  0.73557  1.0000
  C   C759      1.0  0.83276  0.18138  0.75054  1.0000
  C   C760      1.0  0.83257  0.18166  0.77937  1.0000
  H   H1287     1.0  0.88123  0.20048  0.78964  1.0000
  C   C761      1.0  0.91950  0.18213  0.51067  1.0000
  H   H1288     1.0  0.81916  0.17600  0.73972  1.0000
  H   H1289     1.0  0.81878  0.17672  0.79052  1.0000
  H   H1290     1.0  0.84503  0.10804  0.93396  1.0000
  C   C762      1.0  0.89967  0.16665  0.54352  1.0000
  C   C763      1.0  0.94034  0.17022  0.55034  1.0000
  C   C764      1.0  0.66871  0.20401  0.87829  1.0000
  C   C765      1.0  0.68081  0.21367  0.86137  1.0000
  C   C766      1.0  0.70372  0.21024  0.85445  1.0000
  C   C767      1.0  0.71503  0.19726  0.86462  1.0000
  C   C768      1.0  0.70305  0.18769  0.88190  1.0000
  C   C769      1.0  0.68000  0.19103  0.88855  1.0000
  C   C770      1.0  0.95852  0.99388  0.72389  1.0000
  H   H1291     1.0  0.97502  0.99836  0.73052  1.0000
  H   H1292     1.0  0.71144  0.17763  0.88982  1.0000
  C   C771      1.0  0.80807  0.11798  0.98501  1.0000
  H   H1293     1.0  0.87074  0.10271  0.78455  1.0000
  H   H1294     1.0  0.95298  0.03709  0.88676  1.0000
  C   C772      1.0  0.84882  0.08097  0.87414  1.0000
  C   C773      1.0  0.82748  0.07957  0.86181  1.0000
  C   C774      1.0  0.81301  0.09235  0.85780  1.0000
  C   C775      1.0  0.81966  0.10674  0.86577  1.0000
  C   C776      1.0  0.84122  0.10820  0.87751  1.0000
  C   C777      1.0  0.85557  0.09540  0.88180  1.0000
  H   H1295     1.0  0.82193  0.06859  0.85582  1.0000
  H   H1296     1.0  0.79643  0.09102  0.84861  1.0000
  H   H1297     1.0  0.84683  0.11915  0.88349  1.0000
  H   H1298     1.0  0.87206  0.09667  0.89125  1.0000
  C   C778      1.0  0.86178  0.99308  0.76759  1.0000
  H   H1299     1.0  0.94730  0.98762  0.63865  1.0000
  H   H1300     1.0  0.84689  0.10666  0.97003  1.0000
  C   C779      1.0  0.88303  0.99764  0.75816  1.0000
  C   C780      1.0  0.94051  0.98037  0.95360  1.0000
  H   H1301     1.0  0.80221  0.97906  0.80592  1.0000
  C   C781      1.0  0.87515  0.98672  0.96609  1.0000
  H   H1302     1.0  0.78790  0.09728  0.98802  1.0000
  C   C782      1.0  0.92670  0.01207  0.96362  1.0000
  H   H1303     1.0  0.91893  0.21487  0.56540  1.0000
  H   H1304     1.0  0.88732  0.17180  0.58544  1.0000
  H   H1305     1.0  0.66216  0.22218  0.69254  1.0000
  C   C783      1.0  0.97346  0.02298  0.86011  1.0000
  C   C784      1.0  0.97007  0.03335  0.88128  1.0000
  Fe  Fe118     1.0  0.86107  0.20241  0.60247  1.0000
  N   N53       1.0  0.81439  0.11581  0.95530  1.0000
  C   C785      1.0  0.82069  0.13088  0.94378  1.0000
  C   C786      1.0  0.86319  0.97869  0.51568  1.0000
  C   C787      1.0  0.98893  0.03898  0.89518  1.0000
  H   H1306     1.0  0.94081  0.98640  0.68851  1.0000
  H   H1307     1.0  0.68066  0.21636  0.94473  1.0000
  C   C788      1.0  0.77245  0.11984  0.93997  1.0000
  H   H1308     1.0  0.98621  0.99557  0.89420  1.0000
  H   H1309     1.0  0.80741  0.97923  0.90343  1.0000
  H   H1310     1.0  0.72941  0.22135  0.69512  1.0000
  C   C789      1.0  0.95876  0.98882  0.69363  1.0000
  N   N54       1.0  0.97470  0.97579  0.68662  1.0000
  H   H1311     1.0  0.90407  0.15598  0.53275  1.0000
  H   H1312     1.0  0.83270  0.98998  0.89742  1.0000
  C   C790      1.0  0.99150  0.99741  0.91573  1.0000
  H   H1313     1.0  0.94383  0.98446  0.86997  1.0000
  H   H1314     1.0  0.80524  0.99802  0.89093  1.0000
  H   H1315     1.0  0.95321  0.98482  0.73792  1.0000
  C   C791      1.0  0.78283  0.21415  0.70047  1.0000
  H   H1316     1.0  0.77654  0.21530  0.78830  1.0000
  H   H1317     1.0  0.81748  0.22030  0.97588  1.0000
  C   C792      1.0  0.79396  0.21627  0.54959  1.0000
  H   H1318     1.0  0.82319  0.13017  0.92115  1.0000
  S   S234      1.0  0.94292  0.21101  0.61905  1.0000
  H   H1319     1.0  0.91381  0.01217  0.94712  1.0000
  H   H1320     1.0  0.94587  0.00328  0.72626  1.0000
  H   H1321     1.0  0.80850  0.20979  0.54038  1.0000
  H   H1322     1.0  0.78968  0.19629  0.57455  1.0000
  H   H1323     1.0  0.76568  0.12068  0.96116  1.0000
  H   H1324     1.0  0.90738  0.99691  0.72495  1.0000
  H   H1325     1.0  0.87061  0.12596  0.81881  1.0000
  H   H1326     1.0  0.87637  0.12866  0.77243  1.0000
  N   N55       1.0  0.91850  0.17774  0.54057  1.0000
  H   H1327     1.0  0.96296  0.99877  0.68092  1.0000
  H   H1328     1.0  0.83694  0.11921  0.73584  1.0000
  H   H1329     1.0  0.69421  0.22105  0.72125  1.0000
  H   H1330     1.0  0.84721  0.08204  0.95059  1.0000
  H   H1331     1.0  0.94846  0.98728  0.99611  1.0000
  H   H1332     1.0  0.85951  0.97968  0.84881  1.0000
  C   C793      1.0  0.85457  0.12266  0.73946  1.0000
  C   C794      1.0  0.85822  0.20032  0.51894  1.0000
  H   H1333     1.0  0.84996  0.08941  0.79469  1.0000
  H   H1334     1.0  0.84363  0.12963  0.83435  1.0000
  H   H1335     1.0  0.94856  0.00425  0.89938  1.0000
  C   C795      1.0  0.95105  0.97542  0.64117  1.0000
  H   H1336     1.0  0.85289  0.22169  0.71229  1.0000
  H   H1337     1.0  0.67084  0.18347  0.90167  1.0000
  H   H1338     1.0  0.73345  0.21843  0.94097  1.0000
  H   H1339     1.0  0.81999  0.08405  0.96688  1.0000
  H   H1340     1.0  0.87024  0.20700  0.98286  1.0000
  H   H1341     1.0  0.98620  0.98886  0.95618  1.0000
  H   H1342     1.0  0.86981  0.15356  0.80172  1.0000
  H   H1343     1.0  0.87897  0.15430  0.57227  1.0000
  H   H1344     1.0  0.82739  0.10831  0.77362  1.0000
  C   C796      1.0  0.86054  0.14911  0.81966  1.0000
  H   H1345     1.0  0.88105  0.20047  0.73853  1.0000
  H   H1346     1.0  0.75932  0.11437  0.92737  1.0000
  H   H1347     1.0  0.73591  0.22026  0.90468  1.0000
  C   C797      1.0  0.84228  0.13783  0.95594  1.0000
  C   C798      1.0  0.91256  0.19129  0.55808  1.0000
  H   H1348     1.0  0.78206  0.20207  0.69515  1.0000
  H   H1349     1.0  0.92336  0.99757  0.91287  1.0000
  H   H1350     1.0  0.77440  0.13116  0.93114  1.0000
  H   H1351     1.0  0.88371  0.17109  0.53371  1.0000
  H   H1352     1.0  0.96224  0.00740  0.97150  1.0000
  C   C799      1.0  0.80574  0.13583  0.76301  1.0000
  H   H1353     1.0  0.91428  0.21073  0.53022  1.0000
  H   H1354     1.0  0.82528  0.15025  0.78719  1.0000
  H   H1355     1.0  0.70818  0.22439  0.97474  1.0000
  H   H1356     1.0  0.94120  0.20586  0.54660  1.0000
  H   H1357     1.0  0.78897  0.20472  0.76085  1.0000
  C   C800      1.0  0.99012  0.21084  0.61491  1.0000
  C   C801      1.0  0.96228  0.17917  0.54748  1.0000
  H   H1358     1.0  0.85917  0.12986  0.72177  1.0000
  H   H1359     1.0  0.80672  0.13939  0.94693  1.0000
  H   H1360     1.0  0.82138  0.17206  0.52777  1.0000
  H   H1361     1.0  0.79562  0.12753  0.98785  1.0000
  C   C802      1.0  0.79475  0.11031  0.93850  1.0000
  H   H1362     1.0  0.82346  0.99121  0.84698  1.0000
  S   S235      1.0  0.83841  0.21069  0.63661  1.0000
  H   H1363     1.0  0.84519  0.15624  0.82384  1.0000
  H   H1364     1.0  0.82322  0.11093  0.80880  1.0000
  C   C803      1.0  0.92251  0.20640  0.54924  1.0000
  H   H1365     1.0  0.79007  0.09878  0.94413  1.0000
  H   H1366     1.0  0.84570  0.14840  0.94480  1.0000
  C   C804      1.0  0.97756  0.98804  0.93595  1.0000
  C   C805      1.0  0.78934  0.20865  0.57744  1.0000
  H   H1367     1.0  0.77224  0.21185  0.58559  1.0000
  C   C806      1.0  0.81555  0.98740  0.88964  1.0000
  H   H1368     1.0  0.83261  0.98004  0.75752  1.0000
  C   C807      1.0  0.85754  0.19973  0.99130  1.0000
  S   S236      1.0  0.63973  0.20792  0.88751  1.0000
  H   H1369     1.0  0.80670  0.21375  0.78598  1.0000
  H   H1370     1.0  0.79010  0.14303  0.76540  1.0000
  H   H1371     1.0  0.89299  0.00499  0.77068  1.0000
  H   H1372     1.0  0.98632  0.04706  0.91148  1.0000
  H   H1373     1.0  0.87179  0.15023  0.83780  1.0000
  H   H1374     1.0  0.86126  0.10148  0.81987  1.0000
  H   H1375     1.0  0.95663  0.01657  0.93999  1.0000
  H   H1376     1.0  0.81406  0.13954  0.74381  1.0000
  C   C808      1.0  0.87866  0.98351  0.71520  1.0000
  H   H1377     1.0  0.93229  0.19075  0.50668  1.0000
  H   H1378     1.0  0.92083  0.00483  0.98059  1.0000
  H   H1379     1.0  0.90759  0.15610  0.58375  1.0000
  C   C809      1.0  0.79097  0.21491  0.77348  1.0000
  C   C810      1.0  0.94173  0.99450  0.91067  1.0000
  C   C811      1.0  0.87078  0.99850  0.98448  1.0000
  C   C812      1.0  0.81607  0.98209  0.85953  1.0000
  C   C813      1.0  0.83184  0.18007  0.51730  1.0000
  H   H1380     1.0  0.92716  0.02367  0.97178  1.0000
  H   H1381     1.0  0.93915  0.16758  0.57260  1.0000
  S   S237      1.0  0.84362  0.18903  0.56905  1.0000
  H   H1382     1.0  0.86833  0.00979  0.97673  1.0000
  H   H1383     1.0  0.79999  0.12416  0.76128  1.0000
  H   H1384     1.0  0.85806  0.14364  0.76101  1.0000
  H   H1385     1.0  0.91772  0.18931  0.57981  1.0000
  H   H1386     1.0  0.80258  0.21110  0.59280  1.0000
  H   H1387     1.0  0.81043  0.13677  0.80670  1.0000
  C   C814      1.0  0.89124  0.99298  0.73215  1.0000
  N   N56       1.0  0.84254  0.12850  0.78995  1.0000
  C   C815      1.0  0.85433  0.13253  0.81635  1.0000
  C   C816      1.0  0.83607  0.11229  0.79222  1.0000
  C   C817      1.0  0.82114  0.13821  0.78801  1.0000
  C   C818      1.0  0.85846  0.13146  0.76628  1.0000
  H   H1388     1.0  0.89379  0.19338  0.55883  1.0000
  C   C819      1.0  0.85587  0.10099  0.79808  1.0000
  N   N57       1.0  0.95265  0.99251  0.93843  1.0000
  H   H1389     1.0  0.77907  0.21421  0.53609  1.0000
  H   H1390     1.0  0.96336  0.18554  0.52811  1.0000
  H   H1391     1.0  0.83087  0.98715  0.50032  1.0000
  C   C820      1.0  0.72359  0.22085  0.92202  1.0000
  C   C821      1.0  0.95075  0.00730  0.95337  1.0000
  C   C822      1.0  0.83061  0.08836  0.95004  1.0000
  H   H1392     1.0  0.97720  0.17122  0.54695  1.0000
  H   H1393     1.0  0.81210  0.20639  0.72366  1.0000
  H   H1394     1.0  0.81813  0.21823  0.69632  1.0000
  H   H1395     1.0  0.85775  0.13053  0.95360  1.0000
  H   H1396     1.0  0.82279  0.08573  0.92994  1.0000
  C   C823      1.0  0.83496  0.10528  0.95254  1.0000
  H   H1397     1.0  0.97994  0.97605  0.93012  1.0000
  H   H1398     1.0  0.71276  0.21771  0.84105  1.0000
  C   C824      1.0  0.84913  0.98358  0.75069  1.0000
  C   C825      1.0  0.80607  0.21699  0.71376  1.0000
  S   S238      1.0  0.89022  0.97832  0.68232  1.0000
  C   C826      1.0  0.85753  0.97875  0.72479  1.0000
  C   C827      1.0  0.94262  0.98066  0.89165  1.0000
  H   H1399     1.0  0.82309  0.12156  0.99694  1.0000
  H   H1400     1.0  0.99031  0.00952  0.92058  1.0000
  C   C828      1.0  0.88659  0.97752  0.51004  1.0000
  H   H1401     1.0  0.90296  0.18750  0.50429  1.0000
  H   H1402     1.0  0.92189  0.98290  0.95448  1.0000
  H   H1403     1.0  0.78059  0.22082  0.68138  1.0000
  H   H1404     1.0  0.67242  0.22367  0.85323  1.0000
  S   S239      1.0  0.88453  0.22342  0.66655  1.0000
  H   H1405     1.0  0.69664  0.22068  0.49947  1.0000
  C   C829      1.0  0.94896  0.97715  0.98303  1.0000
  S   S240      1.0  0.87972  0.22389  0.59905  1.0000
  H   H1406     1.0  0.64068  0.22106  0.94639  1.0000
  H   H1407     1.0  0.83405  0.21869  0.75686  1.0000
  H   H1408     1.0  0.65286  0.22209  0.73632  1.0000
  H   H1409     1.0  0.70626  0.22341  0.67170  1.0000
  H   H1410     1.0  0.76821  0.21623  0.71433  1.0000
  C   C830      1.0  0.80695  0.22291  0.99431  1.0000
  Fe  Fe119     1.0  0.61210  0.45697  0.09853  1.0000
  S   S241      1.0  0.60451  0.43268  0.09156  1.0000
  H   H1411     1.0  0.51411  0.44721  0.32367  1.0000
  Fe  Fe120     1.0  0.59886  0.45534  0.16101  1.0000
  S   S242      1.0  0.58948  0.43094  0.15753  1.0000
  H   H1412     1.0  0.77529  0.25006  0.05076  1.0000
  Fe  Fe121     1.0  0.62160  0.42768  0.13216  1.0000
  S   S243      1.0  0.64768  0.40827  0.14091  1.0000
  Fe  Fe122     1.0  0.57320  0.43742  0.11730  1.0000
  S   S244      1.0  0.53977  0.43036  0.09888  1.0000
  S   S245      1.0  0.63189  0.45194  0.13765  1.0000
  Fe  Fe123     1.0  0.67464  0.31486  0.11762  1.0000
  S   S246      1.0  0.65304  0.29540  0.13000  1.0000
  S   S247      1.0  0.65546  0.33771  0.11348  1.0000
  Fe  Fe124     1.0  0.71758  0.29380  0.11105  1.0000
  S   S248      1.0  0.69848  0.27342  0.12294  1.0000
  S   S249      1.0  0.75505  0.29336  0.09744  1.0000
  Fe  Fe125     1.0  0.67049  0.28275  0.09545  1.0000
  S   S250      1.0  0.65141  0.26698  0.06717  1.0000
  Fe  Fe126     1.0  0.68278  0.28796  0.15616  1.0000
  S   S251      1.0  0.68470  0.28107  0.20123  1.0000
  S   S252      1.0  0.69043  0.30245  0.08152  1.0000
  S   S253      1.0  0.70353  0.30808  0.14569  1.0000
  Fe  Fe127     1.0  0.61075  0.26217  0.33377  1.0000
  S   S254      1.0  0.59574  0.23966  0.34245  1.0000
  S   S255      1.0  0.60667  0.27077  0.28971  1.0000
  Fe  Fe128     1.0  0.62185  0.26676  0.39508  1.0000
  S   S256      1.0  0.60717  0.24474  0.40687  1.0000
  S   S257      1.0  0.63927  0.28217  0.42545  1.0000
  C   C831      1.0  0.59406  0.22894  0.26288  1.0000
  Fe  Fe129     1.0  0.57785  0.25089  0.37832  1.0000
  S   S258      1.0  0.54016  0.25221  0.39280  1.0000
  S   S259      1.0  0.64227  0.25772  0.35907  1.0000
  S   S260      1.0  0.59189  0.27355  0.36854  1.0000
  Fe  Fe130     1.0  0.86561  0.23670  0.13057  1.0000
  S   S261      1.0  0.84460  0.25812  0.14065  1.0000
  H   H1413     1.0  0.61546  0.24550  0.24524  1.0000
  H   H1414     1.0  0.51880  0.45526  0.05653  1.0000
  H   H1415     1.0  0.65392  0.25035  0.42238  1.0000
  H   H1416     1.0  0.57299  0.46789  0.28106  1.0000
  H   H1417     1.0  0.67234  0.23658  0.20158  1.0000
  C   C832      1.0  0.51114  0.24797  0.38523  1.0000
  C   C833      1.0  0.63936  0.23151  0.28773  1.0000
  H   H1418     1.0  0.93214  0.22947  0.25221  1.0000
  C   C834      1.0  0.64489  0.27004  0.03197  1.0000
  C   C835      1.0  0.98742  0.23614  0.12370  1.0000
  C   C836      1.0  0.62928  0.26725  0.47397  1.0000
  C   C837      1.0  0.64058  0.27904  0.46146  1.0000
  S   S262      1.0  0.89338  0.23396  0.09858  1.0000
  H   H1419     1.0  0.63127  0.24280  0.29098  1.0000
  H   H1420     1.0  0.62738  0.24924  0.02825  1.0000
  H   H1421     1.0  0.61882  0.26007  0.46175  1.0000
  H   H1422     1.0  0.66262  0.29755  0.46839  1.0000
  H   H1423     1.0  0.74734  0.35843  0.05636  1.0000
  C   C838      1.0  0.66265  0.27870  0.22555  1.0000
  C   C839      1.0  0.63968  0.27903  0.21809  1.0000
  C   C840      1.0  0.62275  0.27691  0.23813  1.0000
  C   C841      1.0  0.62861  0.27421  0.26571  1.0000
  C   C842      1.0  0.65159  0.27393  0.27319  1.0000
  C   C843      1.0  0.66851  0.27623  0.25319  1.0000
  H   H1424     1.0  0.63500  0.28072  0.19685  1.0000
  H   H1425     1.0  0.60500  0.27711  0.23217  1.0000
  H   H1426     1.0  0.65631  0.27195  0.29436  1.0000
  H   H1427     1.0  0.68626  0.27599  0.25915  1.0000
  C   C844      1.0  0.77902  0.28197  0.10821  1.0000
  C   C845      1.0  0.77738  0.26954  0.12578  1.0000
  C   C846      1.0  0.79733  0.26142  0.13430  1.0000
  C   C847      1.0  0.81908  0.26560  0.12528  1.0000
  C   C848      1.0  0.82048  0.27793  0.10756  1.0000
  C   C849      1.0  0.80069  0.28585  0.09879  1.0000
  H   H1428     1.0  0.76086  0.26642  0.13338  1.0000
  H   H1429     1.0  0.79596  0.25229  0.14879  1.0000
  H   H1430     1.0  0.83705  0.28167  0.10121  1.0000
  H   H1431     1.0  0.80233  0.29543  0.08537  1.0000
  C   C850      1.0  0.64939  0.38868  0.13291  1.0000
  C   C851      1.0  0.63277  0.38154  0.11755  1.0000
  C   C852      1.0  0.63504  0.36603  0.11176  1.0000
  C   C853      1.0  0.65387  0.35735  0.12123  1.0000
  C   C854      1.0  0.67042  0.36445  0.13679  1.0000
  C   C855      1.0  0.66821  0.37997  0.14245  1.0000
  H   H1432     1.0  0.61819  0.38800  0.11002  1.0000
  H   H1433     1.0  0.62205  0.36074  0.09977  1.0000
  H   H1434     1.0  0.68492  0.35806  0.14453  1.0000
  H   H1435     1.0  0.68117  0.38533  0.15440  1.0000
  C   C856      1.0  0.51406  0.43358  0.11681  1.0000
  H   H1436     1.0  0.62901  0.46018  0.23119  1.0000
  C   C857      1.0  0.51381  0.43569  0.14518  1.0000
  H   H1437     1.0  0.60962  0.34381  0.19279  1.0000
  H   H1438     1.0  0.52970  0.43574  0.15640  1.0000
  N   N58       1.0  0.64263  0.33346  0.20238  1.0000
  C   C858      1.0  0.74273  0.33017  0.06357  1.0000
  C   C859      1.0  0.62875  0.47419  0.26757  1.0000
  C   C860      1.0  0.65720  0.23122  0.21066  1.0000
  H   H1439     1.0  0.52062  0.46562  0.23623  1.0000
  H   H1440     1.0  0.61207  0.30265  0.17975  1.0000
  H   H1441     1.0  0.73625  0.33419  0.04337  1.0000
  N   N59       1.0  0.80711  0.23940  0.03771  1.0000
  H   H1442     1.0  0.68383  0.31473  0.20252  1.0000
  H   H1443     1.0  0.78949  0.26815  0.01638  1.0000
  H   H1444     1.0  0.65566  0.31029  0.23754  1.0000
  H   H1445     1.0  0.61819  0.36947  0.19095  1.0000
  C   C861      1.0  0.81928  0.23452  0.01187  1.0000
  H   H1446     1.0  0.70419  0.33301  0.09537  1.0000
  H   H1447     1.0  0.74017  0.32351  0.11559  1.0000
  H   H1448     1.0  0.67079  0.33832  0.17546  1.0000
  H   H1449     1.0  0.67403  0.25497  0.46194  1.0000
  H   H1450     1.0  0.83634  0.22945  0.01683  1.0000
  C   C862      1.0  0.65384  0.28838  0.47784  1.0000
  H   H1451     1.0  0.63097  0.36282  0.22213  1.0000
  H   H1452     1.0  0.81030  0.23644  0.09720  1.0000
  H   H1453     1.0  0.49790  0.26153  0.41847  1.0000
  H   H1454     1.0  0.68532  0.32664  0.23264  1.0000
  C   C863      1.0  0.68540  0.32636  0.20991  1.0000
  H   H1455     1.0  0.57885  0.23376  0.25215  1.0000
  H   H1456     1.0  0.64949  0.32010  0.26830  1.0000
  H   H1457     1.0  0.80612  0.24160  0.32428  1.0000
  H   H1458     1.0  0.67523  0.23781  0.40775  1.0000
  H   H1459     1.0  0.83524  0.22485  0.23851  1.0000
  H   H1460     1.0  0.64230  0.32050  0.16512  1.0000
  H   H1461     1.0  0.60165  0.32139  0.17524  1.0000
  C   C864      1.0  0.63780  0.31920  0.18719  1.0000
  H   H1462     1.0  0.73928  0.35634  0.13579  1.0000
  H   H1463     1.0  0.71893  0.23169  0.42334  1.0000
  H   H1464     1.0  0.77680  0.24744  0.24759  1.0000
  C   C865      1.0  0.52721  0.45211  0.33702  1.0000
  H   H1465     1.0  0.67986  0.23137  0.00522  1.0000
  H   H1466     1.0  0.50805  0.47086  0.28318  1.0000
  C   C866      1.0  0.67244  0.24778  0.42071  1.0000
  C   C867      1.0  0.78206  0.24743  0.26947  1.0000
  H   H1467     1.0  0.53425  0.45702  0.00897  1.0000
  C   C868      1.0  0.77905  0.23185  0.28255  1.0000
  C   C869      1.0  0.78327  0.24530  0.03183  1.0000
  H   H1468     1.0  0.49417  0.28590  0.33528  1.0000
  H   H1469     1.0  0.66112  0.23435  0.32286  1.0000
  C   C870      1.0  0.65783  0.22737  0.46994  1.0000
  H   H1470     1.0  0.85706  0.24891  0.04204  1.0000
  H   H1471     1.0  0.67391  0.23141  0.24951  1.0000
  Fe  Fe131     1.0  0.62659  0.23586  0.36985  1.0000
  H   H1472     1.0  0.54076  0.46028  0.07948  1.0000
  H   H1473     1.0  0.84698  0.23612  0.06745  1.0000
  H   H1474     1.0  0.82011  0.23617  0.48366  1.0000
  H   H1475     1.0  0.94926  0.23918  0.22695  1.0000
  H   H1476     1.0  0.82194  0.26131  0.03614  1.0000
  H   H1477     1.0  0.76474  0.33418  0.11366  1.0000
  H   H1478     1.0  0.73684  0.36593  0.08753  1.0000
  C   C871      1.0  0.68311  0.24630  0.44936  1.0000
  H   H1479     1.0  0.51001  0.27286  0.29442  1.0000
  H   H1480     1.0  0.71294  0.23554  0.48604  1.0000
  C   C872      1.0  0.66323  0.23253  0.30054  1.0000
  C   C873      1.0  0.76800  0.32593  0.05859  1.0000
  C   C874      1.0  0.49352  0.25433  0.40157  1.0000
  N   N60       1.0  0.73756  0.34151  0.08581  1.0000
  C   C875      1.0  0.71195  0.34346  0.08770  1.0000
  H   H1481     1.0  0.54326  0.44530  0.33583  1.0000
  H   H1482     1.0  0.55333  0.46537  0.49359  1.0000
  H   H1483     1.0  0.67105  0.34829  0.20705  1.0000
  C   C876      1.0  0.69951  0.34799  0.06094  1.0000
  H   H1484     1.0  0.76897  0.31626  0.04427  1.0000
  H   H1485     1.0  0.77788  0.36993  0.07991  1.0000
  C   C877      1.0  0.82057  0.22680  0.29186  1.0000
  H   H1486     1.0  0.51740  0.26276  0.32471  1.0000
  H   H1487     1.0  0.77115  0.25580  0.28061  1.0000
  H   H1488     1.0  0.81101  0.23727  0.23141  1.0000
  H   H1489     1.0  0.68050  0.25708  0.40941  1.0000
  C   C878      1.0  0.56415  0.46416  0.29994  1.0000
  H   H1490     1.0  0.58713  0.28497  0.00766  1.0000
  H   H1491     1.0  0.56243  0.45187  0.29722  1.0000
  C   C879      1.0  0.63272  0.25920  0.01759  1.0000
  H   H1492     1.0  0.70079  0.25044  0.44835  1.0000
  C   C880      1.0  0.82030  0.25176  0.05062  1.0000
  H   H1493     1.0  0.67990  0.44347  0.49763  1.0000
  H   H1494     1.0  0.52474  0.45407  0.28134  1.0000
  H   H1495     1.0  0.68738  0.23347  0.35974  1.0000
  S   S263      1.0  0.58960  0.47092  0.19778  1.0000
  H   H1496     1.0  0.64215  0.23627  0.20001  1.0000
  C   C881      1.0  0.73802  0.34406  0.13853  1.0000
  C   C882      1.0  0.74589  0.33522  0.11287  1.0000
  C   C883      1.0  0.61560  0.23303  0.24659  1.0000
  H   H1497     1.0  0.74879  0.34060  0.15630  1.0000
  H   H1498     1.0  0.52088  0.45122  0.35844  1.0000
  H   H1499     1.0  0.54941  0.43974  0.04342  1.0000
  H   H1500     1.0  0.77697  0.33518  0.04840  1.0000
  H   H1501     1.0  0.63034  0.34588  0.16666  1.0000
  C   C884      1.0  0.62803  0.34578  0.18936  1.0000
  H   H1502     1.0  0.60609  0.31381  0.20945  1.0000
  H   H1503     1.0  0.77265  0.36064  0.11154  1.0000
  H   H1504     1.0  0.91908  0.23941  0.22432  1.0000
  S   S264      1.0  0.57985  0.46181  0.12223  1.0000
  H   H1505     1.0  0.66088  0.29135  0.02874  1.0000
  H   H1506     1.0  0.56975  0.44099  0.01647  1.0000
  H   H1507     1.0  0.67237  0.24234  0.29249  1.0000
  H   H1508     1.0  0.60915  0.45550  0.02060  1.0000
  H   H1509     1.0  0.61836  0.33476  0.23574  1.0000
  H   H1510     1.0  0.97407  0.24400  0.11733  1.0000
  C   C885      1.0  0.84496  0.24763  0.05938  1.0000
  H   H1511     1.0  0.68168  0.35157  0.06594  1.0000
  C   C886      1.0  0.74752  0.35651  0.07894  1.0000
  H   H1512     1.0  0.81101  0.25687  0.06830  1.0000
  C   C887      1.0  0.64276  0.31765  0.24756  1.0000
  C   C888      1.0  0.66723  0.33728  0.19785  1.0000
  C   C889      1.0  0.63181  0.36190  0.19950  1.0000
  H   H1513     1.0  0.77706  0.32218  0.07740  1.0000
  H   H1514     1.0  0.54993  0.46459  0.24542  1.0000
  C   C890      1.0  0.56137  0.44743  0.03335  1.0000
  H   H1515     1.0  0.69834  0.33832  0.04679  1.0000
  H   H1516     1.0  0.64860  0.30959  0.19422  1.0000
  H   H1517     1.0  0.65468  0.43314  0.49387  1.0000
  H   H1518     1.0  0.70707  0.35229  0.10283  1.0000
  C   C891      1.0  0.60689  0.46270  0.49610  1.0000
  H   H1519     1.0  0.64554  0.34173  0.24388  1.0000
  C   C892      1.0  0.63698  0.33264  0.23257  1.0000
  C   C893      1.0  0.54867  0.46134  0.02121  1.0000
  H   H1520     1.0  0.82704  0.23616  0.27941  1.0000
  H   H1521     1.0  0.64451  0.22528  0.42767  1.0000
  H   H1522     1.0  0.72018  0.34145  0.14394  1.0000
  C   C894      1.0  0.77200  0.35927  0.08896  1.0000
  H   H1523     1.0  0.79947  0.25167  0.27114  1.0000
  H   H1524     1.0  0.70752  0.35753  0.05043  1.0000
  C   C895      1.0  0.65162  0.28289  0.01797  1.0000
  H   H1525     1.0  0.70251  0.33000  0.20333  1.0000
  H   H1526     1.0  0.73376  0.31957  0.06790  1.0000
  H   H1527     1.0  0.64809  0.36634  0.19180  1.0000
  C   C896      1.0  0.61290  0.31416  0.18827  1.0000
  H   H1528     1.0  0.78444  0.35036  0.08286  1.0000
  C   C897      1.0  0.53065  0.46880  0.33031  1.0000
  H   H1529     1.0  0.62712  0.31121  0.25119  1.0000
  N   N61       1.0  0.63809  0.22711  0.25787  1.0000
  C   C898      1.0  0.58099  0.46651  0.32366  1.0000
  H   H1530     1.0  0.60437  0.45125  0.48986  1.0000
  C   C899      1.0  0.81933  0.23259  0.32163  1.0000
  C   C900      1.0  0.69520  0.23198  0.48967  1.0000
  H   H1531     1.0  0.65523  0.24682  0.24412  1.0000
  H   H1532     1.0  0.72885  0.22782  0.35561  1.0000
  C   C901      1.0  0.52815  0.46502  0.06457  1.0000
  C   C902      1.0  0.52584  0.46649  0.28039  1.0000
  H   H1533     1.0  0.78077  0.23537  0.08703  1.0000
  H   H1534     1.0  0.85003  0.25499  0.07653  1.0000
  C   C903      1.0  0.65669  0.23445  0.24171  1.0000
  N   N62       1.0  0.68215  0.23117  0.46306  1.0000
  C   C904      1.0  0.50277  0.26622  0.31141  1.0000
  C   C905      1.0  0.53330  0.47008  0.25073  1.0000
  H   H1535     1.0  0.68243  0.42350  0.49465  1.0000
  C   C906      1.0  0.93411  0.23225  0.23018  1.0000
  C   C907      1.0  0.50508  0.23859  0.36359  1.0000
  H   H1536     1.0  0.57484  0.45031  0.04810  1.0000
  H   H1537     1.0  0.59780  0.46129  0.31814  1.0000
  H   H1538     1.0  0.57546  0.46113  0.34297  1.0000
  C   C908      1.0  0.80547  0.22606  0.05663  1.0000
  N   N63       1.0  0.54115  0.47203  0.30275  1.0000
  C   C909      1.0  0.51019  0.47412  0.08123  1.0000
  H   H1539     1.0  0.64330  0.46837  0.27667  1.0000
  H   H1540     1.0  0.57224  0.47306  0.06339  1.0000
  C   C910      1.0  0.79774  0.22963  0.08623  1.0000
  H   H1541     1.0  0.77342  0.23344  0.30423  1.0000
  H   H1542     1.0  0.50472  0.46721  0.09892  1.0000
  H   H1543     1.0  0.77203  0.23608  0.02557  1.0000
  N   N64       1.0  0.54022  0.47300  0.04158  1.0000
  H   H1544     1.0  0.59387  0.23391  0.28366  1.0000
  H   H1545     1.0  0.83596  0.23742  0.32703  1.0000
  C   C911      1.0  0.60711  0.47415  0.47592  1.0000
  H   H1546     1.0  0.56053  0.46630  0.00608  1.0000
  H   H1547     1.0  0.64782  0.23762  0.47596  1.0000
  H   H1548     1.0  0.70032  0.24525  0.01336  1.0000
  H   H1549     1.0  0.51829  0.23350  0.35091  1.0000
  C   C912      1.0  0.61096  0.46675  0.01281  1.0000
  H   H1550     1.0  0.60490  0.47143  0.45451  1.0000
  H   H1551     1.0  0.76371  0.22734  0.27252  1.0000
  S   S265      1.0  0.88743  0.22488  0.16286  1.0000
  H   H1552     1.0  0.61286  0.22899  0.22532  1.0000
  C   C913      1.0  0.62069  0.46952  0.24166  1.0000
  H   H1553     1.0  0.49352  0.43183  0.08042  1.0000
  H   H1554     1.0  0.82305  0.24429  0.99858  1.0000
  H   H1555     1.0  0.54094  0.47358  0.34714  1.0000
  C   C914      1.0  0.78107  0.25778  0.00991  1.0000
  H   H1556     1.0  0.76273  0.26082  0.00716  1.0000
  C   C915      1.0  0.81705  0.22545  0.23234  1.0000
  H   H1557     1.0  0.49538  0.25579  0.30349  1.0000
  H   H1558     1.0  0.51365  0.47446  0.33247  1.0000
  Fe  Fe132     1.0  0.60809  0.44676  0.59531  1.0000
  S   S266      1.0  0.59923  0.42267  0.60349  1.0000
  H   H1559     1.0  0.77255  0.23081  0.74860  1.0000
  Fe  Fe133     1.0  0.60692  0.45403  0.65792  1.0000
  S   S267      1.0  0.59773  0.43051  0.66944  1.0000
  H   H1560     1.0  0.63936  0.32929  0.71570  1.0000
  Fe  Fe134     1.0  0.62400  0.42275  0.63824  1.0000
  S   S268      1.0  0.64910  0.40330  0.64899  1.0000
  Fe  Fe135     1.0  0.57374  0.43196  0.63366  1.0000
  S   S269      1.0  0.53937  0.42120  0.63384  1.0000
  S   S270      1.0  0.63505  0.44641  0.62862  1.0000
  Fe  Fe136     1.0  0.67693  0.31306  0.61558  1.0000
  S   S271      1.0  0.64348  0.30151  0.61220  1.0000
  S   S272      1.0  0.67509  0.33793  0.60234  1.0000
  Fe  Fe137     1.0  0.70318  0.28336  0.62978  1.0000
  S   S273      1.0  0.67059  0.27074  0.62712  1.0000
  S   S274      1.0  0.73049  0.26542  0.64178  1.0000
  Fe  Fe138     1.0  0.66287  0.28370  0.58859  1.0000
  S   S275      1.0  0.64808  0.26958  0.55418  1.0000
  Fe  Fe139     1.0  0.65421  0.28952  0.65091  1.0000
  S   S276      1.0  0.62682  0.28495  0.68296  1.0000
  S   S277      1.0  0.69614  0.29551  0.58971  1.0000
  S   S278      1.0  0.68681  0.30184  0.65592  1.0000
  Fe  Fe140     1.0  0.61972  0.25829  0.84318  1.0000
  S   S279      1.0  0.59909  0.23730  0.84317  1.0000
  S   S280      1.0  0.64103  0.26930  0.80968  1.0000
  Fe  Fe141     1.0  0.61683  0.26104  0.90673  1.0000
  S   S281      1.0  0.59640  0.24030  0.91084  1.0000
  S   S282      1.0  0.62832  0.27700  0.94025  1.0000
  S   S283      1.0  0.60566  0.47425  0.68742  1.0000
  Fe  Fe142     1.0  0.57581  0.24901  0.87455  1.0000
  S   S284      1.0  0.53665  0.25455  0.87407  1.0000
  S   S285      1.0  0.64244  0.25063  0.87793  1.0000
  S   S286      1.0  0.59565  0.27040  0.87195  1.0000
  H   H1561     1.0  0.67780  0.25087  0.74906  1.0000
  S   S287      1.0  0.83864  0.25405  0.63625  1.0000
  H   H1562     1.0  0.52433  0.29902  0.91560  1.0000
  H   H1563     1.0  0.52372  0.29396  0.97857  1.0000
  H   H1564     1.0  0.67238  0.44215  0.84966  1.0000
  H   H1565     1.0  0.55243  0.27938  0.90998  1.0000
  Fe  Fe143     1.0  0.85831  0.23152  0.63529  1.0000
  C   C916      1.0  0.50844  0.24773  0.87967  1.0000
  C   C917      1.0  0.78047  0.25099  0.71248  1.0000
  C   C918      1.0  0.67518  0.22783  0.93794  1.0000
  C   C919      1.0  0.64482  0.27399  0.51879  1.0000
  H   H1566     1.0  0.68596  0.25477  0.50487  1.0000
  H   H1567     1.0  0.67117  0.22685  0.76441  1.0000
  C   C920      1.0  0.63433  0.27392  0.97556  1.0000
  C   C921      1.0  0.54679  0.43876  0.56438  1.0000
  H   H1568     1.0  0.60895  0.36695  0.71689  1.0000
  C   C922      1.0  0.50481  0.45679  0.55214  1.0000
  H   H1569     1.0  0.61795  0.25273  0.97886  1.0000
  H   H1570     1.0  0.65156  0.29482  0.97940  1.0000
  H   H1571     1.0  0.62587  0.33331  0.61412  1.0000
  C   C923      1.0  0.63068  0.28122  0.71843  1.0000
  C   C924      1.0  0.61322  0.27431  0.73319  1.0000
  C   C925      1.0  0.61589  0.27071  0.76122  1.0000
  C   C926      1.0  0.63601  0.27415  0.77484  1.0000
  C   C927      1.0  0.65327  0.28135  0.76018  1.0000
  C   C928      1.0  0.65067  0.28486  0.73213  1.0000
  H   H1572     1.0  0.59765  0.27152  0.72279  1.0000
  H   H1573     1.0  0.60248  0.26519  0.77223  1.0000
  H   H1574     1.0  0.66884  0.28413  0.77059  1.0000
  H   H1575     1.0  0.66413  0.29033  0.72115  1.0000
  C   C929      1.0  0.76057  0.26265  0.63884  1.0000
  C   C930      1.0  0.76987  0.24799  0.64153  1.0000
  C   C931      1.0  0.79363  0.24516  0.64045  1.0000
  C   C932      1.0  0.80850  0.25700  0.63715  1.0000
  C   C933      1.0  0.79921  0.27167  0.63461  1.0000
  C   C934      1.0  0.77540  0.27448  0.63520  1.0000
  H   H1576     1.0  0.75859  0.23875  0.64438  1.0000
  H   H1577     1.0  0.80044  0.23383  0.64241  1.0000
  H   H1578     1.0  0.81052  0.28094  0.63209  1.0000
  H   H1579     1.0  0.76857  0.28583  0.63332  1.0000
  C   C935      1.0  0.65396  0.38448  0.63734  1.0000
  C   C936      1.0  0.64184  0.37829  0.61562  1.0000
  C   C937      1.0  0.64786  0.36380  0.60568  1.0000
  C   C938      1.0  0.66535  0.35502  0.61808  1.0000
  C   C939      1.0  0.67695  0.36107  0.64034  1.0000
  C   C940      1.0  0.67129  0.37565  0.64984  1.0000
  H   H1580     1.0  0.62822  0.38479  0.60609  1.0000
  H   H1581     1.0  0.63914  0.35946  0.58800  1.0000
  H   H1582     1.0  0.69094  0.35473  0.64958  1.0000
  H   H1583     1.0  0.68088  0.38028  0.66657  1.0000
  C   C941      1.0  0.51464  0.43272  0.63083  1.0000
  C   C942      1.0  0.51573  0.44830  0.63254  1.0000
  H   H1584     1.0  0.66630  0.29311  0.51864  1.0000
  H   H1585     1.0  0.53179  0.45342  0.63674  1.0000
  H   H1586     1.0  0.76933  0.24279  0.70273  1.0000
  H   H1587     1.0  0.66591  0.33066  0.69890  1.0000
  H   H1588     1.0  0.56144  0.43102  0.55965  1.0000
  C   C943      1.0  0.65799  0.23127  0.74995  1.0000
  C   C944      1.0  0.50438  0.23311  0.88859  1.0000
  C   C945      1.0  0.57540  0.32086  0.67256  1.0000
  H   H1589     1.0  0.58585  0.34933  0.69351  1.0000
  H   H1590     1.0  0.55533  0.45446  0.75769  1.0000
  S   S288      1.0  0.58084  0.45589  0.62373  1.0000
  H   H1591     1.0  0.64539  0.42756  0.58034  1.0000
  H   H1592     1.0  0.55087  0.27426  0.99653  1.0000
  C   C946      1.0  0.54443  0.45056  0.54132  1.0000
  H   H1593     1.0  0.84345  0.24742  0.53918  1.0000
  H   H1594     1.0  0.56908  0.29979  0.99516  1.0000
  H   H1595     1.0  0.68707  0.43521  0.54285  1.0000
  H   H1596     1.0  0.52119  0.27008  0.93083  1.0000
  H   H1597     1.0  0.53958  0.44446  0.52239  1.0000
  H   H1598     1.0  0.96039  0.22913  0.66504  1.0000
  H   H1599     1.0  0.61325  0.46135  0.89924  1.0000
  H   H1600     1.0  0.78037  0.26317  0.54578  1.0000
  H   H1601     1.0  0.67132  0.23437  0.66656  1.0000
  H   H1602     1.0  0.54421  0.30492  0.96256  1.0000
  Fe  Fe144     1.0  0.62111  0.23038  0.87948  1.0000
  N   N65       1.0  0.67876  0.24208  0.70766  1.0000
  C   C947      1.0  0.70015  0.26752  0.94642  1.0000
  H   H1603     1.0  0.70522  0.23884  0.90146  1.0000
  N   N66       1.0  0.80746  0.23009  0.73306  1.0000
  N   N67       1.0  0.79891  0.23278  0.55062  1.0000
  C   C948      1.0  0.54181  0.25247  0.94796  1.0000
  H   H1604     1.0  0.60653  0.31571  0.69380  1.0000
  H   H1605     1.0  0.53274  0.46614  0.59052  1.0000
  C   C949      1.0  0.68387  0.39143  0.55963  1.0000
  H   H1606     1.0  0.62599  0.39899  0.56591  1.0000
  H   H1607     1.0  0.57323  0.26712  0.97502  1.0000
  H   H1608     1.0  0.70654  0.27619  0.69938  1.0000
  C   C950      1.0  0.54837  0.46362  0.71791  1.0000
  H   H1609     1.0  0.57566  0.30465  0.94046  1.0000
  H   H1610     1.0  0.63935  0.25297  0.67812  1.0000
  H   H1611     1.0  0.66749  0.24037  0.51743  1.0000
  H   H1612     1.0  0.61382  0.39721  0.53294  1.0000
  C   C951      1.0  0.66656  0.24512  0.73436  1.0000
  H   H1613     1.0  0.68305  0.43702  0.58914  1.0000
  C   C952      1.0  0.70332  0.26571  0.71094  1.0000
  H   H1614     1.0  0.60476  0.33930  0.71515  1.0000
  C   C953      1.0  0.79028  0.22943  0.75608  1.0000
  H   H1615     1.0  0.81370  0.25388  0.72854  1.0000
  C   C954      1.0  0.65593  0.28590  0.50635  1.0000
  H   H1616     1.0  0.52836  0.24458  0.94208  1.0000
  C   C955      1.0  0.69942  0.23218  0.71340  1.0000
  H   H1617     1.0  0.67693  0.42393  0.61555  1.0000
  H   H1618     1.0  0.69620  0.41837  0.58884  1.0000
  H   H1619     1.0  0.55024  0.44384  0.58450  1.0000
  H   H1620     1.0  0.55778  0.45402  0.70821  1.0000
  H   H1621     1.0  0.51003  0.31115  0.93971  1.0000
  C   C956      1.0  0.60412  0.34582  0.69568  1.0000
  C   C957      1.0  0.63931  0.24102  0.68428  1.0000
  C   C958      1.0  0.56252  0.28197  0.92864  1.0000
  H   H1622     1.0  0.66738  0.44788  0.91116  1.0000
  C   C959      1.0  0.67538  0.43913  0.87134  1.0000
  H   H1623     1.0  0.69195  0.25519  0.67400  1.0000
  H   H1624     1.0  0.66851  0.25697  0.95225  1.0000
  H   H1625     1.0  0.54385  0.46255  0.81598  1.0000
  H   H1626     1.0  0.57648  0.27326  0.92927  1.0000
  H   H1627     1.0  0.84870  0.24956  0.57483  1.0000
  C   C960      1.0  0.67477  0.45238  0.89183  1.0000
  H   H1628     1.0  0.80503  0.25031  0.52057  1.0000
  H   H1629     1.0  0.50145  0.29220  0.93670  1.0000
  H   H1630     1.0  0.49640  0.23513  0.81416  1.0000
  H   H1631     1.0  0.78322  0.23806  0.51149  1.0000
  H   H1632     1.0  0.71993  0.25955  0.71241  1.0000
  H   H1633     1.0  0.65205  0.25321  0.73166  1.0000
  C   C961      1.0  0.57814  0.28927  0.98905  1.0000
  C   C962      1.0  0.68390  0.25477  0.93973  1.0000
  H   H1634     1.0  0.76254  0.26184  0.57514  1.0000
  H   H1635     1.0  0.63041  0.23495  0.66778  1.0000
  C   C963      1.0  0.77895  0.24053  0.56479  1.0000
  H   H1636     1.0  0.69247  0.43345  0.87217  1.0000
  H   H1637     1.0  0.50506  0.45028  0.57166  1.0000
  C   C964      1.0  0.64149  0.41271  0.53343  1.0000
  H   H1638     1.0  0.62903  0.23977  0.70323  1.0000
  C   C965      1.0  0.66366  0.23428  0.68748  1.0000
  H   H1639     1.0  0.64260  0.24061  0.94048  1.0000
  H   H1640     1.0  0.72032  0.24207  0.97354  1.0000
  H   H1641     1.0  0.85025  0.24197  0.71463  1.0000
  H   H1642     1.0  0.77251  0.25517  0.73177  1.0000
  H   H1643     1.0  0.62990  0.44421  0.89399  1.0000
  S   S289      1.0  0.61016  0.45079  0.54847  1.0000
  C   C966      1.0  0.83079  0.22954  0.74612  1.0000
  H   H1644     1.0  0.51194  0.47340  0.75068  1.0000
  N   N68       1.0  0.66356  0.41692  0.54683  1.0000
  H   H1645     1.0  0.63066  0.45645  0.72960  1.0000
  C   C967      1.0  0.77899  0.25776  0.56614  1.0000
  H   H1646     1.0  0.56180  0.45449  0.53711  1.0000
  H   H1647     1.0  0.67225  0.22705  0.91546  1.0000
  H   H1648     1.0  0.59169  0.29149  0.97390  1.0000
  C   C968      1.0  0.63026  0.39841  0.54385  1.0000
  H   H1649     1.0  0.60085  0.34252  0.60144  1.0000
  H   H1650     1.0  0.72597  0.24455  0.92549  1.0000
  H   H1651     1.0  0.51854  0.26828  0.96709  1.0000
  C   C969      1.0  0.61004  0.46591  0.52413  1.0000
  C   C970      1.0  0.60161  0.32112  0.67398  1.0000
  N   N69       1.0  0.69339  0.23902  0.94371  1.0000
  H   H1652     1.0  0.63511  0.35790  0.70684  1.0000
  C   C971      1.0  0.83494  0.24859  0.55939  1.0000
  H   H1653     1.0  0.60864  0.31337  0.65801  1.0000
  C   C972      1.0  0.67018  0.43187  0.53497  1.0000
  C   C973      1.0  0.56201  0.27718  0.97888  1.0000
  H   H1654     1.0  0.69735  0.26915  0.73160  1.0000
  H   H1655     1.0  0.57010  0.30904  0.67462  1.0000
  H   H1656     1.0  0.59836  0.32491  0.61833  1.0000
  H   H1657     1.0  0.61741  0.36761  0.68174  1.0000
  C   C974      1.0  0.68537  0.25682  0.69520  1.0000
  H   H1658     1.0  0.67797  0.25642  0.91822  1.0000
  H   H1659     1.0  0.57594  0.46711  0.74586  1.0000
  C   C975      1.0  0.62231  0.45425  0.88379  1.0000
  H   H1660     1.0  0.68857  0.38142  0.54708  1.0000
  C   C976      1.0  0.63149  0.26471  0.50242  1.0000
  H   H1661     1.0  0.64327  0.45745  0.84825  1.0000
  H   H1662     1.0  0.60913  0.45045  0.86926  1.0000
  C   C977      1.0  0.57350  0.29724  0.92267  1.0000
  H   H1663     1.0  0.77760  0.23676  0.58646  1.0000
  C   C978      1.0  0.82076  0.23477  0.56647  1.0000
  H   H1664     1.0  0.64900  0.31427  0.69379  1.0000
  N   N70       1.0  0.54772  0.28095  0.95393  1.0000
  C   C979      1.0  0.53122  0.26842  0.95004  1.0000
  C   C980      1.0  0.68231  0.40544  0.54077  1.0000
  C   C981      1.0  0.64629  0.28482  0.98998  1.0000
  H   H1665     1.0  0.52099  0.46205  0.77792  1.0000
  C   C982      1.0  0.63274  0.47099  0.76511  1.0000
  C   C983      1.0  0.62745  0.26111  0.98954  1.0000
  H   H1666     1.0  0.69049  0.27838  0.94459  1.0000
  C   C984      1.0  0.53360  0.29506  0.95914  1.0000
  H   H1667     1.0  0.53004  0.46103  0.71731  1.0000
  H   H1668     1.0  0.55166  0.47353  0.70484  1.0000
  C   C985      1.0  0.80491  0.24476  0.71754  1.0000
  H   H1669     1.0  0.78767  0.25413  0.98962  1.0000
  H   H1670     1.0  0.79235  0.26163  0.58018  1.0000
  C   C986      1.0  0.56103  0.46579  0.80909  1.0000
  H   H1671     1.0  0.67019  0.26445  0.69288  1.0000
  H   H1672     1.0  0.81344  0.24395  0.69712  1.0000
  H   H1673     1.0  0.50048  0.44864  0.53578  1.0000
  C   C987      1.0  0.70366  0.23648  0.97173  1.0000
  H   H1674     1.0  0.64214  0.46276  0.77725  1.0000
  H   H1675     1.0  0.55497  0.25178  0.93178  1.0000
  H   H1676     1.0  0.81726  0.23522  0.58891  1.0000
  H   H1677     1.0  0.64582  0.34506  0.66712  1.0000
  H   H1678     1.0  0.56403  0.30338  0.90623  1.0000
  H   H1679     1.0  0.57025  0.45612  0.79952  1.0000
  H   H1680     1.0  0.64070  0.38821  0.53904  1.0000
  H   H1681     1.0  0.76267  0.23748  0.55479  1.0000
  C   C988      1.0  0.68035  0.42496  0.59321  1.0000
  H   H1682     1.0  0.61331  0.35495  0.64305  1.0000
  C   C989      1.0  0.68522  0.24289  0.51151  1.0000
  H   H1683     1.0  0.64278  0.32730  0.65313  1.0000
  H   H1684     1.0  0.65791  0.44097  0.54154  1.0000
  C   C990      1.0  0.65970  0.41930  0.57711  1.0000
  H   H1685     1.0  0.79248  0.23901  0.77037  1.0000
  H   H1686     1.0  0.62857  0.42202  0.53553  1.0000
  H   H1687     1.0  0.62272  0.25552  0.51183  1.0000
  H   H1688     1.0  0.67164  0.46612  0.82489  1.0000
  H   H1689     1.0  0.58581  0.34778  0.64684  1.0000
  H   H1690     1.0  0.69558  0.24190  0.53050  1.0000
  H   H1691     1.0  0.69785  0.39244  0.57477  1.0000
  N   N71       1.0  0.52775  0.46344  0.54650  1.0000
  H   H1692     1.0  0.56873  0.32506  0.65265  1.0000
  H   H1693     1.0  0.83206  0.23837  0.76214  1.0000
  H   H1694     1.0  0.82502  0.25928  0.55987  1.0000
  H   H1695     1.0  0.65415  0.40905  0.58771  1.0000
  H   H1696     1.0  0.79015  0.22714  0.98686  1.0000
  H   H1697     1.0  0.71451  0.26799  0.93170  1.0000
  H   H1698     1.0  0.59088  0.29515  0.91420  1.0000
  C   C991      1.0  0.51648  0.29947  0.93629  1.0000
  H   H1699     1.0  0.67670  0.25041  0.99316  1.0000
  H   H1700     1.0  0.56729  0.32724  0.68963  1.0000
  H   H1701     1.0  0.78125  0.26077  0.69836  1.0000
  C   C992      1.0  0.85116  0.23133  0.72645  1.0000
  H   H1702     1.0  0.68105  0.40143  0.51923  1.0000
  C   C993      1.0  0.55725  0.46552  0.74750  1.0000
  H   H1703     1.0  0.69923  0.41072  0.54223  1.0000
  H   H1704     1.0  0.53152  0.43175  0.56598  1.0000
  C   C994      1.0  0.71197  0.23660  0.92253  1.0000
  C   C995      1.0  0.80028  0.23837  0.52146  1.0000
  N   N72       1.0  0.61180  0.33636  0.67157  1.0000
  C   C996      1.0  0.60415  0.34431  0.64567  1.0000
  C   C997      1.0  0.63733  0.33430  0.67090  1.0000
  C   C998      1.0  0.60761  0.33555  0.61867  1.0000
  C   C999      1.0  0.61731  0.36034  0.70022  1.0000
  C   C1000     1.0  0.64831  0.32664  0.69628  1.0000
  H   H1705     1.0  0.69272  0.45501  0.89682  1.0000
  H   H1706     1.0  0.54895  0.24845  0.96779  1.0000
  H   H1707     1.0  0.65170  0.23242  0.97288  1.0000
  C   C1001     1.0  0.62634  0.46738  0.73799  1.0000
  H   H1708     1.0  0.70661  0.26681  0.96773  1.0000
  H   H1709     1.0  0.64245  0.23456  0.76184  1.0000
  H   H1710     1.0  0.66810  0.38868  0.57061  1.0000
  H   H1711     1.0  0.86712  0.23140  0.73865  1.0000
  H   H1712     1.0  0.60233  0.46095  0.97117  1.0000
  H   H1713     1.0  0.70984  0.23691  0.73017  1.0000
  C   C1002     1.0  0.65139  0.23088  0.95046  1.0000
  H   H1714     1.0  0.64388  0.41095  0.51103  1.0000
  C   C1003     1.0  0.64006  0.46331  0.86789  1.0000
  H   H1715     1.0  0.51865  0.22541  0.89220  1.0000
  H   H1716     1.0  0.66316  0.43048  0.87766  1.0000
  C   C1004     1.0  0.60727  0.46988  0.98467  1.0000
  C   C1005     1.0  0.68907  0.24109  0.99692  1.0000
  H   H1717     1.0  0.68722  0.47206  0.93165  1.0000
  H   H1718     1.0  0.69817  0.46073  0.84215  1.0000
  H   H1719     1.0  0.49691  0.46937  0.62994  1.0000
  C   C1006     1.0  0.97476  0.22498  0.65310  1.0000
  H   H1720     1.0  0.72302  0.23937  0.68071  1.0000
  C   C1007     1.0  0.67184  0.43279  0.50342  1.0000
  N   N73       1.0  0.66172  0.46643  0.88319  1.0000
  C   C1008     1.0  0.49594  0.45730  0.62887  1.0000
  H   H1721     1.0  0.64449  0.46820  0.92258  1.0000
  H   H1722     1.0  0.51349  0.46838  0.50631  1.0000
  H   H1723     1.0  0.57076  0.46867  0.82778  1.0000
  H   H1724     1.0  0.57134  0.47257  0.56285  1.0000
  C   C1009     1.0  0.81713  0.22962  0.50267  1.0000
  C   C1010     1.0  0.53411  0.47260  0.57113  1.0000
  H   H1725     1.0  0.83383  0.22750  0.51266  1.0000
  C   C1011     1.0  0.71523  0.22904  0.68861  1.0000
  C   C1012     1.0  0.52563  0.47323  0.52119  1.0000
  C   C1013     1.0  0.68532  0.46988  0.83861  1.0000
  H   H1726     1.0  0.63139  0.47404  0.86169  1.0000
  C   C1014     1.0  0.49355  0.42616  0.62619  1.0000
  C   C1015     1.0  0.52189  0.47374  0.77004  1.0000
  H   H1727     1.0  0.83263  0.22488  0.56387  1.0000
  Fe  Fe145     1.0  0.69708  0.67129  0.35807  1.0000
  S   S290      1.0  0.66654  0.68688  0.36233  1.0000
  S   S291      1.0  0.72886  0.68351  0.34307  1.0000
  Fe  Fe146     1.0  0.66715  0.64333  0.36695  1.0000
  S   S292      1.0  0.63526  0.65776  0.37111  1.0000
  S   S293      1.0  0.66841  0.61764  0.37486  1.0000
  Fe  Fe147     1.0  0.64836  0.67094  0.33513  1.0000
  S   S294      1.0  0.62364  0.68178  0.30419  1.0000
  Fe  Fe148     1.0  0.65620  0.67257  0.39790  1.0000
  S   S295      1.0  0.63840  0.68417  0.43420  1.0000
  S   S296      1.0  0.67916  0.65569  0.32903  1.0000
  S   S297      1.0  0.68782  0.65774  0.39563  1.0000
  S   S298      1.0  0.64371  0.71142  0.11233  1.0000
  H   H1728     1.0  0.57639  0.69062  0.18215  1.0000
  S   S299      1.0  0.59857  0.69166  0.10492  1.0000
  C   C1016     1.0  0.57006  0.67036  0.16017  1.0000
  Fe  Fe149     1.0  0.61828  0.70088  0.14033  1.0000
  S   S300      1.0  0.63354  0.68585  0.17399  1.0000
  Fe  Fe150     1.0  0.62223  0.70394  0.07700  1.0000
  S   S301      1.0  0.64457  0.69340  0.04316  1.0000
  H   H1729     1.0  0.79222  0.71840  0.33663  1.0000
  Fe  Fe151     1.0  0.59983  0.53623  0.37361  1.0000
  S   S302      1.0  0.62818  0.51911  0.38146  1.0000
  S   S303      1.0  0.60177  0.56171  0.36462  1.0000
  Fe  Fe152     1.0  0.56400  0.51158  0.37426  1.0000
  S   S304      1.0  0.59006  0.49318  0.38217  1.0000
  S   S305      1.0  0.52881  0.50222  0.37033  1.0000
  Fe  Fe153     1.0  0.60464  0.50883  0.41315  1.0000
  H   H1730     1.0  0.70990  0.68672  0.40579  1.0000
  Fe  Fe154     1.0  0.61061  0.50477  0.34972  1.0000
  S   S306      1.0  0.62842  0.49135  0.31500  1.0000
  S   S307      1.0  0.57720  0.52680  0.40672  1.0000
  S   S308      1.0  0.58367  0.52231  0.34035  1.0000
  H   H1731     1.0  0.50152  0.50603  0.44535  1.0000
  H   H1732     1.0  0.51604  0.49203  0.04037  1.0000
  H   H1733     1.0  0.65164  0.55395  0.25390  1.0000
  C   C1017     1.0  0.59925  0.63657  0.43711  1.0000
  C   C1018     1.0  0.62125  0.61303  0.44160  1.0000
  H   H1734     1.0  0.62545  0.50149  0.03330  1.0000
  H   H1735     1.0  0.60354  0.52858  0.28170  1.0000
  C   C1019     1.0  0.61801  0.48614  0.28192  1.0000
  C   C1020     1.0  0.59941  0.49362  0.26957  1.0000
  C   C1021     1.0  0.59136  0.48897  0.24369  1.0000
  H   H1736     1.0  0.63861  0.59145  0.44644  1.0000
  H   H1737     1.0  0.66533  0.62761  0.46698  1.0000
  H   H1738     1.0  0.59117  0.50295  0.28003  1.0000
  H   H1739     1.0  0.57688  0.49482  0.23453  1.0000
  C   C1022     1.0  0.50510  0.51411  0.36376  1.0000
  C   C1023     1.0  0.50692  0.52968  0.36240  1.0000
  C   C1024     1.0  0.53405  0.49218  0.00227  1.0000
  H   H1740     1.0  0.52339  0.53469  0.36459  1.0000
  C   C1025     1.0  0.63966  0.68947  0.00800  1.0000
  H   H1741     1.0  0.53120  0.66952  0.20424  1.0000
  C   C1026     1.0  0.62085  0.54977  0.28897  1.0000
  H   H1742     1.0  0.66482  0.71298  0.16481  1.0000
  C   C1027     1.0  0.66453  0.63513  0.44905  1.0000
  C   C1028     1.0  0.64918  0.60241  0.37260  1.0000
  C   C1029     1.0  0.62736  0.60402  0.36123  1.0000
  C   C1030     1.0  0.61303  0.59155  0.35958  1.0000
  C   C1031     1.0  0.62016  0.57725  0.36924  1.0000
  C   C1032     1.0  0.64184  0.57571  0.38105  1.0000
  C   C1033     1.0  0.65620  0.58817  0.38260  1.0000
  H   H1743     1.0  0.62162  0.61482  0.35331  1.0000
  H   H1744     1.0  0.59637  0.59296  0.35032  1.0000
  H   H1745     1.0  0.64770  0.56488  0.38866  1.0000
  H   H1746     1.0  0.67299  0.58672  0.39151  1.0000
  C   C1034     1.0  0.62719  0.68309  0.26813  1.0000
  C   C1035     1.0  0.61266  0.69289  0.25314  1.0000
  C   C1036     1.0  0.61446  0.69400  0.22438  1.0000
  C   C1037     1.0  0.63059  0.68514  0.21023  1.0000
  C   C1038     1.0  0.64517  0.67540  0.22523  1.0000
  C   C1039     1.0  0.64363  0.67446  0.25404  1.0000
  H   H1747     1.0  0.59998  0.69966  0.26393  1.0000
  H   H1748     1.0  0.60341  0.70172  0.21321  1.0000
  H   H1749     1.0  0.65777  0.66852  0.21452  1.0000
  H   H1750     1.0  0.65491  0.66687  0.26529  1.0000
  C   C1040     1.0  0.64318  0.68605  0.47004  1.0000
  C   C1041     1.0  0.55722  0.68051  0.22623  1.0000
  H   H1751     1.0  0.55190  0.67592  0.24638  1.0000
  H   H1752     1.0  0.63469  0.62583  0.48967  1.0000
  H   H1753     1.0  0.70584  0.70852  0.16617  1.0000
  C   C1042     1.0  0.61091  0.48903  0.48338  1.0000
  H   H1754     1.0  0.67396  0.67239  0.47194  1.0000
  H   H1755     1.0  0.71911  0.70824  0.45392  1.0000
  H   H1756     1.0  0.67504  0.68368  0.00069  1.0000
  S   S309      1.0  0.81718  0.71610  0.38903  1.0000
  C   C1043     1.0  0.75333  0.69241  0.35649  1.0000
  C   C1044     1.0  0.76173  0.68952  0.38288  1.0000
  C   C1045     1.0  0.78112  0.69694  0.39246  1.0000
  C   C1046     1.0  0.79238  0.70742  0.37594  1.0000
  C   C1047     1.0  0.78379  0.71045  0.34968  1.0000
  C   C1048     1.0  0.76453  0.70292  0.34001  1.0000
  H   H1757     1.0  0.66181  0.57993  0.32143  1.0000
  H   H1758     1.0  0.65714  0.53448  0.25762  1.0000
  H   H1759     1.0  0.56456  0.69152  0.23026  1.0000
  H   H1760     1.0  0.63320  0.57708  0.31099  1.0000
  C   C1049     1.0  0.52387  0.48347  0.02658  1.0000
  H   H1761     1.0  0.67751  0.53085  0.33189  1.0000
  C   C1050     1.0  0.62753  0.69480  0.48548  1.0000
  H   H1762     1.0  0.53414  0.48227  0.24671  1.0000
  H   H1763     1.0  0.57098  0.50173  0.07089  1.0000
  H   H1764     1.0  0.52419  0.50920  0.30838  1.0000
  H   H1765     1.0  0.63436  0.65418  0.48110  1.0000
  H   H1766     1.0  0.51918  0.50168  0.27559  1.0000
  H   H1767     1.0  0.58890  0.66936  0.15800  1.0000
  H   H1768     1.0  0.61888  0.62715  0.99939  1.0000
  H   H1769     1.0  0.75829  0.70525  0.31954  1.0000
  H   H1770     1.0  0.63920  0.52151  0.29289  1.0000
  C   C1051     1.0  0.53408  0.70553  0.18115  1.0000
  H   H1771     1.0  0.52645  0.68661  0.13798  1.0000
  H   H1772     1.0  0.59139  0.54438  0.26423  1.0000
  H   H1773     1.0  0.54804  0.49944  0.00883  1.0000
  H   H1774     1.0  0.58684  0.62165  0.40478  1.0000
  C   C1052     1.0  0.62035  0.49259  0.01979  1.0000
  H   H1775     1.0  0.66554  0.51290  0.32919  1.0000
  H   H1776     1.0  0.58421  0.63312  0.44935  1.0000
  C   C1053     1.0  0.59372  0.63306  0.40686  1.0000
  H   H1777     1.0  0.65755  0.60619  0.44062  1.0000
  N   N74       1.0  0.70721  0.71857  0.41582  1.0000
  S   S310      1.0  0.53839  0.70975  0.10127  1.0000
  H   H1778     1.0  0.71914  0.68195  0.43955  1.0000
  C   C1054     1.0  0.55633  0.49413  0.07207  1.0000
  C   C1055     1.0  0.50883  0.71418  0.10870  1.0000
  H   H1779     1.0  0.60550  0.60785  0.44960  1.0000
  H   H1780     1.0  0.54130  0.50126  0.06677  1.0000
  C   C1056     1.0  0.71886  0.70594  0.43152  1.0000
  H   H1781     1.0  0.49470  0.47662  0.06881  1.0000
  H   H1782     1.0  0.65545  0.71541  0.45039  1.0000
  H   H1783     1.0  0.56521  0.69356  0.14906  1.0000
  H   H1784     1.0  0.58034  0.64112  0.39935  1.0000
  H   H1785     1.0  0.67238  0.55433  0.32029  1.0000
  H   H1786     1.0  0.67701  0.63053  0.43385  1.0000
  H   H1787     1.0  0.53530  0.71071  0.16044  1.0000
  H   H1788     1.0  0.60356  0.69430  0.00841  1.0000
  H   H1789     1.0  0.65608  0.57532  0.28632  1.0000
  C   C1057     1.0  0.49751  0.68518  0.16497  1.0000
  H   H1790     1.0  0.52211  0.68689  0.21845  1.0000
  C   C1058     1.0  0.68172  0.71853  0.41956  1.0000
  H   H1791     1.0  0.50922  0.47712  0.01859  1.0000
  C   C1059     1.0  0.64087  0.63720  0.43527  1.0000
  H   H1792     1.0  0.67089  0.64618  0.45549  1.0000
  H   H1793     1.0  0.97274  0.72210  0.37127  1.0000
  C   C1060     1.0  0.53638  0.68134  0.20688  1.0000
  H   H1794     1.0  0.64445  0.64492  0.02371  1.0000
  H   H1795     1.0  0.57159  0.48502  0.03519  1.0000
  H   H1796     1.0  0.68756  0.56030  0.27562  1.0000
  C   C1061     1.0  0.61745  0.47811  0.03069  1.0000
  C   C1062     1.0  0.54890  0.71473  0.20045  1.0000
  C   C1063     1.0  0.54416  0.48871  0.30040  1.0000
  H   H1797     1.0  0.58386  0.47854  0.32732  1.0000
  C   C1064     1.0  0.70892  0.69030  0.42749  1.0000
  H   H1798     1.0  0.68819  0.69960  0.25445  1.0000
  H   H1799     1.0  0.68293  0.71267  0.46398  1.0000
  H   H1800     1.0  0.69244  0.54643  0.24994  1.0000
  H   H1801     1.0  0.66024  0.70756  0.25242  1.0000
  Fe  Fe155     1.0  0.57729  0.71329  0.10694  1.0000
  H   H1802     1.0  0.55348  0.49301  0.31847  1.0000
  C   C1065     1.0  0.62023  0.63155  0.47914  1.0000
  H   H1803     1.0  0.51945  0.51976  0.43110  1.0000
  C   C1066     1.0  0.52203  0.49845  0.29734  1.0000
  H   H1804     1.0  0.56478  0.66214  0.17583  1.0000
  C   C1067     1.0  0.69938  0.71996  0.16079  1.0000
  C   C1068     1.0  0.68449  0.54845  0.27034  1.0000
  H   H1805     1.0  0.69111  0.68976  0.43495  1.0000
  H   H1806     1.0  0.75360  0.68133  0.39569  1.0000
  H   H1807     1.0  0.67968  0.52005  0.30008  1.0000
  H   H1808     1.0  0.54480  0.71244  0.22224  1.0000
  C   C1069     1.0  0.60178  0.47681  0.22956  1.0000
  H   H1809     1.0  0.62115  0.61131  0.41904  1.0000
  C   C1070     1.0  0.50443  0.51823  0.44468  1.0000
  C   C1071     1.0  0.65109  0.57308  0.30783  1.0000
  S   S311      1.0  0.59611  0.72174  0.14419  1.0000
  H   H1810     1.0  0.73715  0.70482  0.42562  1.0000
  C   C1072     1.0  0.66168  0.67908  0.48349  1.0000
  H   H1811     1.0  0.64531  0.55482  0.33578  1.0000
  H   H1812     1.0  0.64278  0.63356  0.41366  1.0000
  H   H1813     1.0  0.50917  0.52230  0.46530  1.0000
  S   S312      1.0  0.61298  0.50394  0.45878  1.0000
  H   H1814     1.0  0.61739  0.53599  0.25149  1.0000
  C   C1073     1.0  0.56321  0.68664  0.16790  1.0000
  C   C1074     1.0  0.67484  0.72276  0.17136  1.0000
  H   H1815     1.0  0.63741  0.64954  0.43390  1.0000
  C   C1075     1.0  0.68136  0.71069  0.21539  1.0000
  N   N75       1.0  0.62105  0.62953  0.44844  1.0000
  H   H1816     1.0  0.57091  0.67282  0.21838  1.0000
  C   C1076     1.0  0.64553  0.52992  0.30763  1.0000
  H   H1817     1.0  0.59942  0.64904  0.43865  1.0000
  H   H1818     1.0  0.55487  0.49121  0.28232  1.0000
  H   H1819     1.0  0.61957  0.56089  0.27860  1.0000
  C   C1077     1.0  0.64171  0.60334  0.45165  1.0000
  C   C1078     1.0  0.52313  0.68236  0.15907  1.0000
  C   C1079     1.0  0.67822  0.70953  0.24678  1.0000
  H   H1820     1.0  0.52563  0.66997  0.15776  1.0000
  H   H1821     1.0  0.78768  0.69439  0.41270  1.0000
  H   H1822     1.0  0.60364  0.65403  0.48357  1.0000
  N   N76       1.0  0.53949  0.68891  0.17940  1.0000
  H   H1823     1.0  0.63362  0.52976  0.32540  1.0000
  H   H1824     1.0  0.60867  0.63403  0.39321  1.0000
  C   C1080     1.0  0.66862  0.52340  0.31760  1.0000
  H   H1825     1.0  0.51674  0.48461  0.08970  1.0000
  H   H1826     1.0  0.64415  0.60374  0.47412  1.0000
  H   H1827     1.0  0.50653  0.49343  0.30585  1.0000
  H   H1828     1.0  0.54400  0.48433  0.48829  1.0000
  H   H1829     1.0  0.67335  0.70068  0.20624  1.0000
  H   H1830     1.0  0.49660  0.69679  0.08238  1.0000
  H   H1831     1.0  0.61320  0.70029  0.47530  1.0000
  C   C1081     1.0  0.65407  0.55636  0.31572  1.0000
  C   C1082     1.0  0.60784  0.53893  0.27045  1.0000
  H   H1832     1.0  0.69935  0.72062  0.13803  1.0000
  H   H1833     1.0  0.69366  0.54111  0.28514  1.0000
  H   H1834     1.0  0.89106  0.72438  0.45832  1.0000
  H   H1835     1.0  0.51630  0.70776  0.18820  1.0000
  C   C1083     1.0  0.63987  0.64650  0.00177  1.0000
  C   C1084     1.0  0.65876  0.54538  0.26845  1.0000
  H   H1836     1.0  0.67396  0.70868  0.40961  1.0000
  H   H1837     1.0  0.70542  0.70605  0.37795  1.0000
  H   H1838     1.0  0.68446  0.71946  0.25772  1.0000
  H   H1839     1.0  0.56270  0.66736  0.14001  1.0000
  H   H1840     1.0  0.61091  0.55105  0.30840  1.0000
  N   N77       1.0  0.64540  0.54538  0.29498  1.0000
  C   C1085     1.0  0.71263  0.71657  0.38581  1.0000
  H   H1841     1.0  0.55493  0.49003  0.09352  1.0000
  H   H1842     1.0  0.69998  0.70909  0.21171  1.0000
  H   H1843     1.0  0.62487  0.65436  0.00137  1.0000
  H   H1844     1.0  0.56737  0.71317  0.19649  1.0000
  C   C1086     1.0  0.67297  0.71974  0.44939  1.0000
  H   H1845     1.0  0.60495  0.62612  0.48786  1.0000
  H   H1846     1.0  0.73130  0.71526  0.38252  1.0000
  C   C1087     1.0  0.56068  0.48099  0.05218  1.0000
  H   H1847     1.0  0.63826  0.71671  0.20167  1.0000
  C   C1088     1.0  0.61973  0.64796  0.48911  1.0000
  S   S313      1.0  0.62186  0.47499  0.06665  1.0000
  Fe  Fe156     1.0  0.70648  0.67102  0.86900  1.0000
  S   S314      1.0  0.67338  0.68234  0.85576  1.0000
  S   S315      1.0  0.73355  0.68917  0.87167  1.0000
  Fe  Fe157     1.0  0.68279  0.63987  0.87202  1.0000
  S   S316      1.0  0.64930  0.64990  0.85889  1.0000
  S   S317      1.0  0.68562  0.61423  0.87815  1.0000
  Fe  Fe158     1.0  0.66927  0.66277  0.82764  1.0000
  S   S318      1.0  0.66374  0.66122  0.78144  1.0000
  Fe  Fe159     1.0  0.65711  0.66843  0.88855  1.0000
  S   S319      1.0  0.62896  0.67678  0.91734  1.0000
  S   S320      1.0  0.70286  0.65192  0.83941  1.0000
  S   S321      1.0  0.69003  0.65794  0.90332  1.0000
  H   H1848     1.0  0.73566  0.68158  0.74509  1.0000
  C   C1089     1.0  0.54556  0.50727  0.76303  1.0000
  S   S322      1.0  0.60716  0.70035  0.62495  1.0000
  H   H1849     1.0  0.68270  0.49064  0.91669  1.0000
  Fe  Fe160     1.0  0.62642  0.71509  0.65366  1.0000
  S   S323      1.0  0.63122  0.71382  0.70030  1.0000
  Fe  Fe161     1.0  0.63259  0.70687  0.59241  1.0000
  S   S324      1.0  0.65145  0.69028  0.56390  1.0000
  S   S325      1.0  0.83925  0.70320  0.85473  1.0000
  Fe  Fe162     1.0  0.61094  0.53553  0.87242  1.0000
  S   S326      1.0  0.63457  0.51516  0.87982  1.0000
  S   S327      1.0  0.61283  0.56150  0.87447  1.0000
  Fe  Fe163     1.0  0.57120  0.51561  0.85795  1.0000
  S   S328      1.0  0.59140  0.49445  0.86483  1.0000
  S   S329      1.0  0.53699  0.51386  0.83753  1.0000
  Fe  Fe164     1.0  0.60502  0.50514  0.90304  1.0000
  S   S330      1.0  0.60507  0.48750  0.93797  1.0000
  Fe  Fe165     1.0  0.61903  0.50542  0.84128  1.0000
  S   S331      1.0  0.63646  0.48937  0.81048  1.0000
  S   S332      1.0  0.58224  0.52579  0.89762  1.0000
  S   S333      1.0  0.59806  0.52625  0.83238  1.0000
  H   H1850     1.0  0.77418  0.66959  0.86149  1.0000
  C   C1090     1.0  0.61002  0.48439  0.97383  1.0000
  H   H1851     1.0  0.62210  0.61540  0.92671  1.0000
  H   H1852     1.0  0.55678  0.49066  0.55875  1.0000
  N   N78       1.0  0.53026  0.56661  0.86372  1.0000
  C   C1091     1.0  0.57360  0.69481  0.69170  1.0000
  C   C1092     1.0  0.77028  0.69452  0.77344  1.0000
  C   C1093     1.0  0.62714  0.48512  0.77656  1.0000
  H   H1853     1.0  0.57071  0.71316  0.66328  1.0000
  H   H1854     1.0  0.68538  0.71301  0.76177  1.0000
  H   H1855     1.0  0.52742  0.54628  0.91706  1.0000
  N   N79       1.0  0.72644  0.69621  0.77903  1.0000
  H   H1856     1.0  0.96307  0.72125  0.87890  1.0000
  C   C1094     1.0  0.61123  0.64137  0.95210  1.0000
  C   C1095     1.0  0.51215  0.51699  0.85702  1.0000
  H   H1857     1.0  0.79834  0.72254  0.86217  1.0000
  C   C1096     1.0  0.51327  0.52034  0.88495  1.0000
  H   H1858     1.0  0.85245  0.71240  0.94983  1.0000
  H   H1859     1.0  0.52954  0.52012  0.89529  1.0000
  H   H1860     1.0  0.55309  0.54391  0.82941  1.0000
  H   H1861     1.0  0.61490  0.65315  0.95746  1.0000
  C   C1097     1.0  0.50113  0.71272  0.61362  1.0000
  C   C1098     1.0  0.54757  0.47575  0.50439  1.0000
  C   C1099     1.0  0.66498  0.59978  0.87750  1.0000
  C   C1100     1.0  0.64148  0.60290  0.87621  1.0000
  C   C1101     1.0  0.62593  0.59107  0.87549  1.0000
  C   C1102     1.0  0.63351  0.57591  0.87578  1.0000
  C   C1103     1.0  0.65700  0.57281  0.87702  1.0000
  C   C1104     1.0  0.67254  0.58464  0.87800  1.0000
  H   H1862     1.0  0.63527  0.61443  0.87577  1.0000
  H   H1863     1.0  0.60785  0.59369  0.87455  1.0000
  H   H1864     1.0  0.66322  0.56128  0.87737  1.0000
  H   H1865     1.0  0.69063  0.58201  0.87908  1.0000
  C   C1105     1.0  0.65442  0.67594  0.75923  1.0000
  C   C1106     1.0  0.65441  0.67345  0.73074  1.0000
  C   C1107     1.0  0.64725  0.68485  0.71233  1.0000
  C   C1108     1.0  0.64001  0.69888  0.72229  1.0000
  C   C1109     1.0  0.63995  0.70134  0.75079  1.0000
  C   C1110     1.0  0.64713  0.68995  0.76918  1.0000
  H   H1866     1.0  0.65999  0.66264  0.72281  1.0000
  H   H1867     1.0  0.64739  0.68282  0.69046  1.0000
  H   H1868     1.0  0.63434  0.71215  0.75869  1.0000
  H   H1869     1.0  0.64687  0.69200  0.79104  1.0000
  C   C1111     1.0  0.63365  0.68203  0.95197  1.0000
  H   H1870     1.0  0.56257  0.48259  0.59196  1.0000
  H   H1871     1.0  0.51975  0.58322  0.89439  1.0000
  C   C1112     1.0  0.64827  0.68924  0.52765  1.0000
  S   S334      1.0  0.65379  0.71973  0.62259  1.0000
  H   H1872     1.0  0.66674  0.48710  0.86092  1.0000
  H   H1873     1.0  0.59821  0.68772  0.95930  1.0000
  H   H1874     1.0  0.67817  0.67491  0.52251  1.0000
  H   H1875     1.0  0.61781  0.70316  0.52561  1.0000
  H   H1876     1.0  0.66979  0.67730  0.95162  1.0000
  C   C1113     1.0  0.76296  0.69262  0.86586  1.0000
  C   C1114     1.0  0.77008  0.70756  0.86578  1.0000
  C   C1115     1.0  0.79322  0.71100  0.86216  1.0000
  C   C1116     1.0  0.80967  0.69951  0.85848  1.0000
  C   C1117     1.0  0.80249  0.68457  0.85797  1.0000
  C   C1118     1.0  0.77930  0.68113  0.86158  1.0000
  H   H1877     1.0  0.54983  0.60039  0.89053  1.0000
  H   H1878     1.0  0.50564  0.70091  0.61215  1.0000
  H   H1879     1.0  0.81501  0.67558  0.85501  1.0000
  N   N80       1.0  0.66791  0.60966  0.78691  1.0000
  C   C1119     1.0  0.65623  0.62079  0.80589  1.0000
  C   C1120     1.0  0.68758  0.60219  0.80207  1.0000
  C   C1121     1.0  0.65190  0.59774  0.77791  1.0000
  C   C1122     1.0  0.67587  0.61800  0.76192  1.0000
  C   C1123     1.0  0.63319  0.62760  0.79589  1.0000
  C   C1124     1.0  0.70835  0.61197  0.80697  1.0000
  C   C1125     1.0  0.68908  0.60855  0.74029  1.0000
  H   H1880     1.0  0.65323  0.61577  0.82639  1.0000
  H   H1881     1.0  0.66742  0.63039  0.80992  1.0000
  H   H1882     1.0  0.69374  0.59176  0.79166  1.0000
  H   H1883     1.0  0.68205  0.59831  0.82266  1.0000
  H   H1884     1.0  0.63805  0.60259  0.76476  1.0000
  H   H1885     1.0  0.66095  0.58936  0.76460  1.0000
  H   H1886     1.0  0.66113  0.62319  0.75075  1.0000
  H   H1887     1.0  0.68608  0.62788  0.76752  1.0000
  H   H1888     1.0  0.63482  0.63387  0.77638  1.0000
  H   H1889     1.0  0.61995  0.61909  0.79389  1.0000
  H   H1890     1.0  0.62676  0.63585  0.81126  1.0000
  H   H1891     1.0  0.71721  0.61474  0.78759  1.0000
  H   H1892     1.0  0.70352  0.62235  0.81808  1.0000
  H   H1893     1.0  0.72080  0.60568  0.82011  1.0000
  H   H1894     1.0  0.67724  0.60406  0.72479  1.0000
  H   H1895     1.0  0.69915  0.59907  0.74914  1.0000
  H   H1896     1.0  0.70160  0.61569  0.72975  1.0000
  H   H1897     1.0  0.49513  0.55965  0.90342  1.0000
  H   H1898     1.0  0.55000  0.55467  0.79888  1.0000
  H   H1899     1.0  0.65447  0.65183  0.99165  1.0000
  H   H1900     1.0  0.54388  0.51662  0.74802  1.0000
  C   C1126     1.0  0.61662  0.49573  0.99165  1.0000
  H   H1901     1.0  0.61725  0.64365  0.90742  1.0000
  C   C1127     1.0  0.62570  0.61554  0.94906  1.0000
  H   H1902     1.0  0.53215  0.56599  0.92092  1.0000
  H   H1903     1.0  0.55381  0.48909  0.80283  1.0000
  H   H1904     1.0  0.64809  0.62317  0.99598  1.0000
  H   H1905     1.0  0.62093  0.64816  0.51185  1.0000
  H   H1906     1.0  0.65169  0.64919  0.94301  1.0000
  C   C1128     1.0  0.70853  0.69665  0.80120  1.0000
  H   H1907     1.0  0.71625  0.65976  0.78110  1.0000
  H   H1908     1.0  0.64912  0.60156  0.97486  1.0000
  H   H1909     1.0  0.72210  0.71375  0.82896  1.0000
  H   H1910     1.0  0.74888  0.70495  0.94420  1.0000
  H   H1911     1.0  0.60985  0.61188  0.95943  1.0000
  H   H1912     1.0  0.61694  0.50363  0.51759  1.0000
  H   H1913     1.0  0.65912  0.60484  0.93994  1.0000
  H   H1914     1.0  0.81750  0.69774  0.95019  1.0000
  H   H1915     1.0  0.70163  0.72117  0.80419  1.0000
  H   H1916     1.0  0.69176  0.47970  0.87715  1.0000
  C   C1129     1.0  0.84144  0.71241  0.93136  1.0000
  C   C1130     1.0  0.53917  0.55544  0.91223  1.0000
  H   H1917     1.0  0.67624  0.62217  0.96829  1.0000
  C   C1131     1.0  0.73108  0.66722  0.78054  1.0000
  H   H1918     1.0  0.61889  0.50694  0.98380  1.0000
  C   C1132     1.0  0.64088  0.58876  0.80132  1.0000
  C   C1133     1.0  0.78040  0.71341  0.96096  1.0000
  H   H1919     1.0  0.75150  0.69059  0.81059  1.0000
  C   C1134     1.0  0.55267  0.58939  0.88026  1.0000
  C   C1135     1.0  0.56926  0.71167  0.68587  1.0000
  H   H1920     1.0  0.74522  0.66085  0.77032  1.0000
  H   H1921     1.0  0.59387  0.63164  0.91641  1.0000
  C   C1136     1.0  0.65196  0.63669  0.94300  1.0000
  H   H1922     1.0  0.81997  0.71370  0.99091  1.0000
  H   H1923     1.0  0.77034  0.70188  0.75511  1.0000
  H   H1924     1.0  0.58383  0.71772  0.69432  1.0000
  C   C1137     1.0  0.54501  0.71819  0.72698  1.0000
  H   H1925     1.0  0.63059  0.59599  0.81534  1.0000
  H   H1926     1.0  0.62916  0.58053  0.79237  1.0000
  H   H1927     1.0  0.56296  0.55796  0.87877  1.0000
  C   C1138     1.0  0.61329  0.48082  0.53168  1.0000
  H   H1928     1.0  0.61585  0.48355  0.55303  1.0000
  C   C1139     1.0  0.61390  0.49222  0.51145  1.0000
  C   C1140     1.0  0.51860  0.72326  0.61316  1.0000
  H   H1929     1.0  0.75759  0.71658  0.86869  1.0000
  C   C1141     1.0  0.54664  0.49225  0.74737  1.0000
  C   C1142     1.0  0.54128  0.56731  0.83572  1.0000
  C   C1143     1.0  0.72273  0.70887  0.75883  1.0000
  H   H1930     1.0  0.56856  0.69157  0.71274  1.0000
  C   C1144     1.0  0.61470  0.47802  0.72166  1.0000
  C   C1145     1.0  0.66405  0.68055  0.51218  1.0000
  C   C1146     1.0  0.52935  0.58237  0.87486  1.0000
  H   H1931     1.0  0.56442  0.68790  0.67664  1.0000
  C   C1147     1.0  0.65530  0.68096  0.96384  1.0000
  H   H1932     1.0  0.56201  0.59164  0.86098  1.0000
  C   C1148     1.0  0.60938  0.49220  0.73306  1.0000
  H   H1933     1.0  0.51757  0.48851  0.80667  1.0000
  H   H1934     1.0  0.65114  0.63347  0.92098  1.0000
  H   H1935     1.0  0.49416  0.52711  0.92092  1.0000
  H   H1936     1.0  0.52911  0.69719  0.69337  1.0000
  C   C1149     1.0  0.72485  0.68157  0.76389  1.0000
  C   C1150     1.0  0.67584  0.63164  0.95372  1.0000
  H   H1937     1.0  0.77362  0.69777  0.92707  1.0000
  H   H1938     1.0  0.69397  0.70029  0.73454  1.0000
  C   C1151     1.0  0.54442  0.55596  0.88119  1.0000
  C   C1152     1.0  0.55745  0.48002  0.57061  1.0000
  H   H1939     1.0  0.59087  0.65151  0.91940  1.0000
  N   N81       1.0  0.63151  0.63109  0.95832  1.0000
  H   H1940     1.0  0.69147  0.69410  0.79282  1.0000
  H   H1941     1.0  0.50685  0.54865  0.85652  1.0000
  C   C1153     1.0  0.67628  0.47643  0.86585  1.0000
  H   H1942     1.0  0.54284  0.54428  0.87371  1.0000
  H   H1943     1.0  0.69413  0.47885  0.82724  1.0000
  H   H1944     1.0  0.60070  0.50061  0.72058  1.0000
  Fe  Fe166     1.0  0.58681  0.72120  0.61229  1.0000
  C   C1154     1.0  0.65823  0.68461  0.99168  1.0000
  H   H1945     1.0  0.56261  0.49258  0.73508  1.0000
  C   C1155     1.0  0.54216  0.55256  0.81922  1.0000
  H   H1946     1.0  0.51965  0.58997  0.86060  1.0000
  H   H1947     1.0  0.54010  0.48464  0.98556  1.0000
  C   C1156     1.0  0.64403  0.60305  0.95316  1.0000
  H   H1948     1.0  0.73477  0.70768  0.74127  1.0000
  H   H1949     1.0  0.71197  0.68765  0.81657  1.0000
  H   H1950     1.0  0.61112  0.50666  0.76859  1.0000
  C   C1157     1.0  0.61504  0.68686  0.96826  1.0000
  H   H1951     1.0  0.66703  0.48518  0.94610  1.0000
  C   C1158     1.0  0.67439  0.48096  0.92644  1.0000
  H   H1952     1.0  0.49944  0.49347  0.77788  1.0000
  H   H1953     1.0  0.50030  0.71793  0.71062  1.0000
  H   H1954     1.0  0.77144  0.68260  0.76714  1.0000
  H   H1955     1.0  0.73615  0.66920  0.80201  1.0000
  C   C1159     1.0  0.61525  0.49567  0.76035  1.0000
  H   H1956     1.0  0.53243  0.57593  0.82264  1.0000
  C   C1160     1.0  0.74953  0.69782  0.79211  1.0000
  H   H1957     1.0  0.52158  0.48203  0.57413  1.0000
  H   H1958     1.0  0.55932  0.57074  0.83728  1.0000
  H   H1959     1.0  0.52055  0.49966  0.99329  1.0000
  H   H1960     1.0  0.59207  0.69204  0.68920  1.0000
  H   H1961     1.0  0.52505  0.54809  0.81533  1.0000
  C   C1161     1.0  0.55997  0.47958  0.79000  1.0000
  C   C1162     1.0  0.70633  0.71146  0.81741  1.0000
  S   S335      1.0  0.54785  0.71670  0.61055  1.0000
  H   H1962     1.0  0.78346  0.70358  0.97478  1.0000
  H   H1963     1.0  0.70722  0.68011  0.75616  1.0000
  H   H1964     1.0  0.65375  0.58223  0.81338  1.0000
  H   H1965     1.0  0.55529  0.55318  0.92362  1.0000
  C   C1163     1.0  0.63011  0.69647  0.51404  1.0000
  H   H1966     1.0  0.75151  0.70940  0.80003  1.0000
  C   C1164     1.0  0.76601  0.70801  0.93667  1.0000
  H   H1967     1.0  0.68453  0.64125  0.96314  1.0000
  H   H1968     1.0  0.84882  0.70377  0.91726  1.0000
  H   H1969     1.0  0.59625  0.63841  0.96491  1.0000
  H   H1970     1.0  0.63697  0.59223  0.94644  1.0000
  C   C1165     1.0  0.81670  0.70844  0.93833  1.0000
  H   H1971     1.0  0.57781  0.48236  0.78473  1.0000
  H   H1972     1.0  0.57912  0.71052  0.74166  1.0000
  H   H1973     1.0  0.53087  0.50828  0.77714  1.0000
  H   H1974     1.0  0.80872  0.70569  0.91836  1.0000
  H   H1975     1.0  0.68670  0.62806  0.93609  1.0000
  C   C1166     1.0  0.60310  0.64186  0.92200  1.0000
  H   H1976     1.0  0.53256  0.49263  0.73208  1.0000
  H   H1977     1.0  0.69255  0.71050  0.83288  1.0000
  H   H1978     1.0  0.56155  0.50903  0.77459  1.0000
  H   H1979     1.0  0.78607  0.69673  0.78517  1.0000
  C   C1167     1.0  0.50642  0.56097  0.85999  1.0000
  H   H1980     1.0  0.56356  0.58237  0.89407  1.0000
  H   H1981     1.0  0.76342  0.71683  0.92090  1.0000
  H   H1982     1.0  0.49426  0.47745  0.79932  1.0000
  H   H1983     1.0  0.84232  0.72332  0.92067  1.0000
  N   N82       1.0  0.54610  0.47800  0.76418  1.0000
  H   H1984     1.0  0.53812  0.70746  0.73467  1.0000
  H   H1985     1.0  0.51832  0.48451  0.52655  1.0000
  C   C1168     1.0  0.69865  0.71040  0.74618  1.0000
  C   C1169     1.0  0.61801  0.69061  0.99611  1.0000
  H   H1986     1.0  0.64385  0.48503  0.90304  1.0000
  C   C1170     1.0  0.52823  0.70869  0.68447  1.0000
  H   H1987     1.0  0.53056  0.70710  0.66201  1.0000
  N   N83       1.0  0.54682  0.71817  0.69604  1.0000
  H   H1988     1.0  0.56180  0.47985  0.51679  1.0000
  C   C1171     1.0  0.50352  0.71455  0.68908  1.0000
  H   H1989     1.0  0.69822  0.71987  0.73134  1.0000
  H   H1990     1.0  0.72663  0.71985  0.76826  1.0000
  H   H1991     1.0  0.56298  0.72162  0.76543  1.0000
  C   C1172     1.0  0.50777  0.48405  0.78937  1.0000
  C   C1173     1.0  0.81552  0.72412  0.97918  1.0000
  H   H1992     1.0  0.49840  0.56598  0.84126  1.0000
  H   H1993     1.0  0.49912  0.72401  0.67502  1.0000
  H   H1994     1.0  0.76921  0.72111  0.97298  1.0000
  N   N84       1.0  0.80273  0.72033  0.95340  1.0000
  C   C1174     1.0  0.56724  0.72038  0.74333  1.0000
  C   C1175     1.0  0.63454  0.63115  0.98907  1.0000
  C   C1176     1.0  0.65488  0.47514  0.90859  1.0000
  H   H1995     1.0  0.63506  0.74117  0.17476  1.0000
  S   S336      1.0  0.63573  0.75504  0.12091  1.0000
  H   H1996     1.0  0.76000  0.76575  0.47251  1.0000
  H   H1997     1.0  0.98773  0.93537  0.06194  1.0000
  Fe  Fe167     1.0  0.76432  0.79567  0.12239  1.0000
  S   S337      1.0  0.78540  0.77552  0.11012  1.0000
  S   S338      1.0  0.72561  0.79426  0.12894  1.0000
  Fe  Fe168     1.0  0.80577  0.81718  0.11851  1.0000
  S   S339      1.0  0.82882  0.79768  0.10560  1.0000
  S   S340      1.0  0.82622  0.83908  0.12101  1.0000
  Fe  Fe169     1.0  0.80044  0.79053  0.07800  1.0000
  S   S341      1.0  0.79774  0.78595  0.03196  1.0000
  Fe  Fe170     1.0  0.81167  0.78457  0.13912  1.0000
  S   S342      1.0  0.83205  0.76876  0.16761  1.0000
  S   S343      1.0  0.77823  0.81060  0.08914  1.0000
  S   S344      1.0  0.78978  0.80412  0.15334  1.0000
  H   H1998     1.0  0.67926  0.74133  0.23325  1.0000
  S   S345      1.0  0.82629  0.75853  0.36801  1.0000
  Fe  Fe171     1.0  0.89072  0.74521  0.36834  1.0000
  S   S346      1.0  0.87924  0.76916  0.36260  1.0000
  H   H1999     1.0  0.74542  0.73679  0.39899  1.0000
  Fe  Fe172     1.0  0.85410  0.76522  0.39657  1.0000
  S   S347      1.0  0.84867  0.78350  0.42855  1.0000
  Fe  Fe173     1.0  0.85242  0.76039  0.33421  1.0000
  S   S348      1.0  0.84409  0.77544  0.29716  1.0000
  H   H2000     1.0  0.88584  0.84798  0.17817  1.0000
  H   H2001     1.0  0.89102  0.75619  0.29047  1.0000
  Fe  Fe174     1.0  0.86105  0.92883  0.12023  1.0000
  S   S349      1.0  0.85209  0.95364  0.12667  1.0000
  S   S350      1.0  0.83270  0.91131  0.12242  1.0000
  Fe  Fe175     1.0  0.91077  0.93557  0.11153  1.0000
  S   S351      1.0  0.94533  0.92566  0.10019  1.0000
  Fe  Fe176     1.0  0.88340  0.95429  0.15348  1.0000
  H   H2002     1.0  0.88420  0.81139  0.23500  1.0000
  Fe  Fe177     1.0  0.87500  0.95818  0.09013  1.0000
  H   H2003     1.0  0.81909  0.95621  0.36250  1.0000
  S   S352      1.0  0.89099  0.92940  0.14918  1.0000
  S   S353      1.0  0.88157  0.93357  0.08199  1.0000
  C   C1177     1.0  0.96734  0.92895  0.12358  1.0000
  H   H2004     1.0  0.89959  0.73309  0.48924  1.0000
  C   C1178     1.0  0.96384  0.93856  0.14590  1.0000
  H   H2005     1.0  0.70618  0.81384  0.06795  1.0000
  C   C1179     1.0  0.71579  0.73323  0.42633  1.0000
  C   C1180     1.0  0.86504  0.97286  0.39286  1.0000
  H   H2006     1.0  0.87897  0.95793  0.01315  1.0000
  H   H2007     1.0  0.69279  0.79476  0.03542  1.0000
  C   C1181     1.0  0.92938  0.77021  0.30723  1.0000
  H   H2008     1.0  0.85953  0.95993  0.30064  1.0000
  C   C1182     1.0  0.90947  0.78454  0.44981  1.0000
  H   H2009     1.0  0.89835  0.76515  0.42801  1.0000
  C   C1183     1.0  0.82754  0.85922  0.12085  1.0000
  C   C1184     1.0  0.84902  0.86593  0.12119  1.0000
  C   C1185     1.0  0.85101  0.88173  0.12152  1.0000
  C   C1186     1.0  0.83149  0.89117  0.12169  1.0000
  C   C1187     1.0  0.81003  0.88444  0.12160  1.0000
  C   C1188     1.0  0.80804  0.86864  0.12112  1.0000
  H   H2010     1.0  0.86429  0.85886  0.12096  1.0000
  H   H2011     1.0  0.86766  0.88662  0.12159  1.0000
  H   H2012     1.0  0.79477  0.89152  0.12177  1.0000
  H   H2013     1.0  0.79138  0.86379  0.12095  1.0000
  H   H2014     1.0  0.89611  0.96617  0.41430  1.0000
  C   C1189     1.0  0.83631  0.76852  0.01914  1.0000
  H   H2015     1.0  0.88455  0.82773  0.25540  1.0000
  C   C1190     1.0  0.84249  0.78016  0.46353  1.0000
  C   C1191     1.0  0.84134  0.76563  0.47410  1.0000
  S   S354      1.0  0.86490  0.73625  0.33810  1.0000
  H   H2016     1.0  0.83952  0.76783  0.04096  1.0000
  H   H2017     1.0  0.88273  0.85315  0.21433  1.0000
  H   H2018     1.0  0.84347  0.75612  0.46055  1.0000
  H   H2019     1.0  0.96889  0.74772  0.46573  1.0000
  C   C1192     1.0  0.83352  0.77001  0.20400  1.0000
  C   C1193     1.0  0.84576  0.75889  0.21888  1.0000
  C   C1194     1.0  0.84822  0.75992  0.24762  1.0000
  C   C1195     1.0  0.83902  0.77235  0.26169  1.0000
  C   C1196     1.0  0.82668  0.78339  0.24680  1.0000
  C   C1197     1.0  0.82352  0.78207  0.21827  1.0000
  H   H2020     1.0  0.85336  0.74941  0.20808  1.0000
  H   H2021     1.0  0.85759  0.75128  0.25875  1.0000
  H   H2022     1.0  0.81929  0.79297  0.25750  1.0000
  H   H2023     1.0  0.81347  0.79040  0.20725  1.0000
  C   C1198     1.0  0.96251  0.75971  0.37060  1.0000
  C   C1199     1.0  0.95760  0.74441  0.37053  1.0000
  H   H2024     1.0  0.85881  0.93887  0.36568  1.0000
  H   H2025     1.0  0.94874  0.76800  0.37034  1.0000
  H   H2026     1.0  0.89239  0.82910  0.22033  1.0000
  C   C1200     1.0  0.66206  0.76460  0.12311  1.0000
  C   C1201     1.0  0.68388  0.75767  0.12104  1.0000
  C   C1202     1.0  0.70384  0.76633  0.12322  1.0000
  C   C1203     1.0  0.70202  0.78198  0.12720  1.0000
  C   C1204     1.0  0.68022  0.78863  0.12945  1.0000
  C   C1205     1.0  0.66060  0.78010  0.12746  1.0000
  H   H2027     1.0  0.68535  0.74572  0.11761  1.0000
  H   H2028     1.0  0.72052  0.76092  0.12182  1.0000
  H   H2029     1.0  0.67841  0.80061  0.13264  1.0000
  H   H2030     1.0  0.64402  0.78565  0.12923  1.0000
  H   H2031     1.0  0.66751  0.73230  0.15944  1.0000
  S   S355      1.0  0.90561  0.96028  0.11742  1.0000
  H   H2032     1.0  0.94705  0.94342  0.14987  1.0000
  N   N85       1.0  0.84902  0.96953  0.36953  1.0000
  C   C1206     1.0  0.98538  0.76437  0.37157  1.0000
  C   C1207     1.0  0.92908  0.75887  0.48809  1.0000
  H   H2033     1.0  0.97528  0.76005  0.31057  1.0000
  H   H2034     1.0  0.51467  0.73235  0.13647  1.0000
  H   H2035     1.0  0.81483  0.73643  0.01743  1.0000
  H   H2036     1.0  0.68439  0.76236  0.20794  1.0000
  H   H2037     1.0  0.89386  0.77260  0.25821  1.0000
  H   H2038     1.0  0.71063  0.74021  0.37165  1.0000
  C   C1208     1.0  0.69378  0.75922  0.05118  1.0000
  H   H2039     1.0  0.88522  0.95139  0.39408  1.0000
  H   H2040     1.0  0.82504  0.95933  0.39706  1.0000
  C   C1209     1.0  0.73431  0.78601  0.01290  1.0000
  H   H2041     1.0  0.94972  0.77188  0.44506  1.0000
  H   H2042     1.0  0.78788  0.77365  0.47781  1.0000
  H   H2043     1.0  0.91928  0.78764  0.46822  1.0000
  H   H2044     1.0  0.69888  0.78776  0.06881  1.0000
  H   H2045     1.0  0.93729  0.74834  0.49610  1.0000
  H   H2046     1.0  0.93640  0.75353  0.24459  1.0000
  H   H2047     1.0  0.91469  0.72547  0.28224  1.0000
  Fe  Fe178     1.0  0.84011  0.73494  0.37372  1.0000
  C   C1210     1.0  0.90330  0.73487  0.27528  1.0000
  H   H2048     1.0  0.72458  0.81253  0.03881  1.0000
  Fe  Fe179     1.0  0.62096  0.73179  0.11396  1.0000
  H   H2049     1.0  0.88025  0.74275  0.46550  1.0000
  C   C1211     1.0  0.70389  0.72912  0.36638  1.0000
  H   H2050     1.0  0.61618  0.73981  0.20298  1.0000
  H   H2051     1.0  0.86515  0.75421  0.00823  1.0000
  N   N86       1.0  0.92808  0.75740  0.28722  1.0000
  S   S356      1.0  0.86698  0.74172  0.40422  1.0000
  H   H2052     1.0  0.94701  0.95347  0.06498  1.0000
  S   S357      1.0  0.89205  0.96752  0.19281  1.0000
  H   H2053     1.0  0.93050  0.73314  0.45709  1.0000
  C   C1212     1.0  0.83922  0.79243  0.48129  1.0000
  H   H2054     1.0  0.67351  0.72822  0.40868  1.0000
  C   C1213     1.0  0.70707  0.79166  0.04957  1.0000
  C   C1214     1.0  0.73925  0.77432  0.05886  1.0000
  H   H2055     1.0  0.90081  0.76036  0.22987  1.0000
  H   H2056     1.0  0.73301  0.80435  0.07149  1.0000
  C   C1215     1.0  0.90761  0.76882  0.24414  1.0000
  S   S358      1.0  0.92895  0.73764  0.36957  1.0000
  C   C1216     1.0  0.86218  0.96640  0.34341  1.0000
  H   H2057     1.0  0.89362  0.77895  0.30595  1.0000
  H   H2058     1.0  0.71595  0.75828  0.01646  1.0000
  H   H2059     1.0  0.84008  0.80371  0.47324  1.0000
  H   H2060     1.0  0.64048  0.75105  0.20665  1.0000
  C   C1217     1.0  0.88760  0.96361  0.39457  1.0000
  H   H2061     1.0  0.83902  0.95121  0.32202  1.0000
  N   N87       1.0  0.72228  0.77942  0.03731  1.0000
  H   H2062     1.0  0.75243  0.78289  0.06172  1.0000
  C   C1218     1.0  0.90385  0.76774  0.44931  1.0000
  H   H2063     1.0  0.95105  0.97066  0.04803  1.0000
  H   H2064     1.0  0.73096  0.77375  0.07931  1.0000
  H   H2065     1.0  0.75082  0.75216  0.07333  1.0000
  H   H2066     1.0  0.72194  0.79250  0.99983  1.0000
  H   H2067     1.0  0.74623  0.75227  0.03734  1.0000
  H   H2068     1.0  0.70996  0.72644  0.34529  1.0000
  H   H2069     1.0  0.94823  0.73717  0.27824  1.0000
  H   H2070     1.0  0.91155  0.77864  0.23110  1.0000
  C   C1219     1.0  0.98220  0.94208  0.16292  1.0000
  H   H2071     1.0  0.98883  0.77621  0.37180  1.0000
  H   H2072     1.0  0.96843  0.95419  0.03946  1.0000
  C   C1220     1.0  0.74131  0.73600  0.42116  1.0000
  C   C1221     1.0  0.84790  0.96182  0.31840  1.0000
  H   H2073     1.0  0.85633  0.97173  0.41307  1.0000
  C   C1222     1.0  0.91640  0.74125  0.45201  1.0000
  H   H2074     1.0  0.89954  0.96689  0.37805  1.0000
  H   H2075     1.0  0.97490  0.75974  0.27326  1.0000
  C   C1223     1.0  0.71870  0.80635  0.05715  1.0000
  N   N88       1.0  0.92292  0.75713  0.45819  1.0000
  C   C1224     1.0  0.75217  0.75912  0.05449  1.0000
  C   C1225     1.0  0.97658  0.96515  0.07982  1.0000
  H   H2076     1.0  0.94594  0.74131  0.31366  1.0000
  H   H2077     1.0  0.70546  0.75434  0.06685  1.0000
  C   C1226     1.0  0.50194  0.72560  0.12689  1.0000
  C   C1227     1.0  0.97190  0.75317  0.29217  1.0000
  H   H2078     1.0  0.93867  0.76053  0.41863  1.0000
  H   H2079     1.0  0.69393  0.77178  0.01330  1.0000
  H   H2080     1.0  0.91351  0.78938  0.28519  1.0000
  C   C1228     1.0  0.87680  0.96926  0.00541  1.0000
  C   C1229     1.0  0.77673  0.76415  0.48273  1.0000
  C   C1230     1.0  0.96434  0.74971  0.44395  1.0000
  H   H2081     1.0  0.92840  0.76588  0.32863  1.0000
  H   H2082     1.0  0.98479  0.74379  0.29264  1.0000
  H   H2083     1.0  0.68428  0.74981  0.04229  1.0000
  C   C1231     1.0  0.94344  0.76048  0.44071  1.0000
  H   H2084     1.0  0.77059  0.76099  0.05115  1.0000
  H   H2085     1.0  0.89340  0.79143  0.44974  1.0000
  H   H2086     1.0  0.94265  0.77176  0.25640  1.0000
  H   H2087     1.0  0.97407  0.95714  0.09705  1.0000
  N   N89       1.0  0.84821  0.83093  0.19977  1.0000
  C   C1232     1.0  0.82339  0.82745  0.19589  1.0000
  C   C1233     1.0  0.86165  0.82205  0.17859  1.0000
  C   C1234     1.0  0.85053  0.84748  0.19435  1.0000
  C   C1235     1.0  0.85486  0.82689  0.22884  1.0000
  C   C1236     1.0  0.80606  0.83674  0.21317  1.0000
  C   C1237     1.0  0.85869  0.80495  0.17932  1.0000
  C   C1238     1.0  0.87479  0.85355  0.19375  1.0000
  C   C1239     1.0  0.88048  0.82368  0.23450  1.0000
  H   H2088     1.0  0.81833  0.82893  0.17407  1.0000
  H   H2089     1.0  0.82024  0.81555  0.20089  1.0000
  H   H2090     1.0  0.88015  0.82387  0.17993  1.0000
  H   H2091     1.0  0.85703  0.82593  0.15757  1.0000
  H   H2092     1.0  0.84252  0.85057  0.17435  1.0000
  H   H2093     1.0  0.84122  0.85428  0.21008  1.0000
  H   H2094     1.0  0.84887  0.83583  0.24328  1.0000
  H   H2095     1.0  0.84608  0.81654  0.23538  1.0000
  H   H2096     1.0  0.78899  0.83182  0.21095  1.0000
  H   H2097     1.0  0.81029  0.83657  0.23530  1.0000
  H   H2098     1.0  0.80435  0.84846  0.20559  1.0000
  H   H2099     1.0  0.86078  0.80019  0.20019  1.0000
  H   H2100     1.0  0.84187  0.80194  0.17096  1.0000
  H   H2101     1.0  0.87167  0.79940  0.16587  1.0000
  H   H2102     1.0  0.87363  0.86559  0.18777  1.0000
  C   C1240     1.0  0.81749  0.77690  0.00949  1.0000
  H   H2103     1.0  0.78528  0.75401  0.47374  1.0000
  C   C1241     1.0  0.90661  0.74903  0.29279  1.0000
  H   H2104     1.0  0.88835  0.76640  0.46194  1.0000
  H   H2105     1.0  0.94590  0.77589  0.30551  1.0000
  H   H2106     1.0  0.68089  0.76675  0.06114  1.0000
  H   H2107     1.0  0.91332  0.79094  0.32157  1.0000
  H   H2108     1.0  0.83197  0.93265  0.37577  1.0000
  H   H2109     1.0  0.91333  0.73991  0.42960  1.0000
  H   H2110     1.0  0.83551  0.97074  0.31198  1.0000
  C   C1242     1.0  0.91124  0.78293  0.30442  1.0000
  C   C1243     1.0  0.84479  0.94122  0.38033  1.0000
  H   H2111     1.0  0.91913  0.78765  0.43114  1.0000
  C   C1244     1.0  0.83359  0.95697  0.37710  1.0000
  C   C1245     1.0  0.68583  0.75233  0.19452  1.0000
  C   C1246     1.0  0.97609  0.73396  0.37130  1.0000
  H   H2112     1.0  0.70384  0.73451  0.21548  1.0000
  H   H2113     1.0  0.67257  0.73154  0.45660  1.0000
  H   H2114     1.0  0.97947  0.94965  0.17998  1.0000
  H   H2115     1.0  0.75255  0.72728  0.43078  1.0000
  H   H2116     1.0  0.70579  0.74288  0.41756  1.0000
  H   H2117     1.0  0.87532  0.95736  0.34599  1.0000
  H   H2118     1.0  0.85105  0.93943  0.40161  1.0000
  H   H2119     1.0  0.54479  0.72683  0.19701  1.0000
  H   H2120     1.0  0.74573  0.74689  0.43042  1.0000
  H   H2121     1.0  0.74718  0.79416  0.01969  1.0000
  C   C1247     1.0  0.96042  0.96067  0.05634  1.0000
  C   C1248     1.0  0.89557  0.73533  0.46737  1.0000
  C   C1249     1.0  0.92986  0.76282  0.25795  1.0000
  H   H2122     1.0  0.67195  0.75352  0.17939  1.0000
  C   C1250     1.0  0.70681  0.76719  0.02811  1.0000
  C   C1251     1.0  0.63447  0.74055  0.19740  1.0000
  H   H2123     1.0  0.96168  0.73888  0.43343  1.0000
  H   H2124     1.0  0.88557  0.73108  0.27800  1.0000
  H   H2125     1.0  0.70244  0.75326  0.18377  1.0000
  H   H2126     1.0  0.90629  0.74539  0.31464  1.0000
  H   H2127     1.0  0.84556  0.97149  0.21601  1.0000
  H   H2128     1.0  0.97929  0.75472  0.43375  1.0000
  C   C1252     1.0  0.98907  0.92256  0.11882  1.0000
  H   H2129     1.0  0.71311  0.73407  0.44890  1.0000
  H   H2130     1.0  0.91976  0.76305  0.02069  1.0000
  H   H2131     1.0  0.68502  0.72973  0.36543  1.0000
  C   C1253     1.0  0.94785  0.74661  0.29310  1.0000
  H   H2132     1.0  0.76077  0.76846  0.00441  1.0000
  C   C1254     1.0  0.68561  0.73799  0.21255  1.0000
  H   H2133     1.0  0.90591  0.73692  0.25312  1.0000
  H   H2134     1.0  0.64476  0.72728  0.23144  1.0000
  H   H2135     1.0  0.94215  0.76756  0.49076  1.0000
  H   H2136     1.0  0.78726  0.73097  0.00728  1.0000
  H   H2137     1.0  0.94009  0.77404  0.00282  1.0000
  C   C1255     1.0  0.85079  0.76081  0.00052  1.0000
  S   S359      1.0  0.60038  0.72517  0.07683  1.0000
  C   C1256     1.0  0.92368  0.76834  0.00063  1.0000
  H   H2138     1.0  0.99175  0.91497  0.10179  1.0000
  C   C1257     1.0  0.80361  0.73508  0.99932  1.0000
  H   H2139     1.0  0.71132  0.72838  0.16839  1.0000
  C   C1258     1.0  0.64742  0.72668  0.20890  1.0000
  H   H2140     1.0  0.99338  0.96965  0.13053  1.0000
  N   N90       1.0  0.67239  0.72496  0.20189  1.0000
  H   H2141     1.0  0.73192  0.75863  0.51686  1.0000
  S   S360      1.0  0.64650  0.76272  0.60324  1.0000
  H   H2142     1.0  0.77450  0.78166  0.68297  1.0000
  C   C1259     1.0  0.77183  0.75789  0.67773  1.0000
  Fe  Fe180     1.0  0.77585  0.80121  0.61720  1.0000
  S   S361      1.0  0.79689  0.78020  0.62090  1.0000
  S   S362      1.0  0.73684  0.80097  0.61594  1.0000
  Fe  Fe181     1.0  0.81854  0.82093  0.61383  1.0000
  S   S363      1.0  0.84215  0.80043  0.61774  1.0000
  S   S364      1.0  0.83440  0.84339  0.60084  1.0000
  Fe  Fe182     1.0  0.81892  0.78951  0.58767  1.0000
  S   S365      1.0  0.82901  0.77219  0.55524  1.0000
  Fe  Fe183     1.0  0.81822  0.79273  0.65093  1.0000
  S   S366      1.0  0.82869  0.77700  0.68621  1.0000
  S   S367      1.0  0.79648  0.81002  0.58189  1.0000
  S   S368      1.0  0.79585  0.81378  0.64907  1.0000
  H   H2143     1.0  0.77165  0.74639  0.56254  1.0000
  S   S369      1.0  0.83589  0.74572  0.87403  1.0000
  Fe  Fe184     1.0  0.90249  0.74325  0.85940  1.0000
  S   S370      1.0  0.88337  0.76403  0.87407  1.0000
  C   C1260     1.0  0.76255  0.77047  0.55929  1.0000
  Fe  Fe185     1.0  0.86486  0.74915  0.90323  1.0000
  S   S371      1.0  0.86486  0.75093  0.94991  1.0000
  Fe  Fe186     1.0  0.85639  0.75861  0.84299  1.0000
  S   S372      1.0  0.83981  0.77727  0.81684  1.0000
  S   S373      1.0  0.87602  0.73854  0.82666  1.0000
  H   H2144     1.0  0.71992  0.78532  0.55392  1.0000
  Fe  Fe187     1.0  0.86522  0.93256  0.62356  1.0000
  S   S374      1.0  0.84955  0.95612  0.62480  1.0000
  S   S375      1.0  0.84595  0.91188  0.63829  1.0000
  Fe  Fe188     1.0  0.91075  0.94422  0.60518  1.0000
  S   S376      1.0  0.94531  0.93778  0.58834  1.0000
  Fe  Fe189     1.0  0.88200  0.96287  0.64585  1.0000
  H   H2145     1.0  0.76172  0.75028  0.66490  1.0000
  Fe  Fe190     1.0  0.86782  0.95990  0.58415  1.0000
  H   H2146     1.0  0.77501  0.79105  0.72853  1.0000
  S   S377      1.0  0.89654  0.93923  0.64675  1.0000
  S   S378      1.0  0.88068  0.93592  0.58193  1.0000
  C   C1261     1.0  0.96853  0.93613  0.61086  1.0000
  C   C1262     1.0  0.96570  0.93142  0.63800  1.0000
  H   H2147     1.0  0.78183  0.90440  0.53219  1.0000
  H   H2148     1.0  0.94887  0.92918  0.64572  1.0000
  H   H2149     1.0  0.74685  0.76249  0.73461  1.0000
  H   H2150     1.0  0.82549  0.95668  0.89413  1.0000
  C   C1263     1.0  0.94517  0.95627  0.70128  1.0000
  H   H2151     1.0  0.78253  0.93797  0.60719  1.0000
  H   H2152     1.0  0.77398  0.75301  0.69851  1.0000
  H   H2153     1.0  0.55661  0.74901  0.71576  1.0000
  N   N91       1.0  0.75901  0.77310  0.52900  1.0000
  H   H2154     1.0  0.77312  0.77946  0.75821  1.0000
  C   C1264     1.0  0.83759  0.86233  0.61199  1.0000
  C   C1265     1.0  0.82868  0.86774  0.63683  1.0000
  C   C1266     1.0  0.83161  0.88284  0.64453  1.0000
  C   C1267     1.0  0.84355  0.89279  0.62767  1.0000
  C   C1268     1.0  0.85246  0.88741  0.60279  1.0000
  C   C1269     1.0  0.84950  0.87231  0.59508  1.0000
  H   H2155     1.0  0.81947  0.86029  0.65011  1.0000
  H   H2156     1.0  0.82452  0.88683  0.66376  1.0000
  H   H2157     1.0  0.86141  0.89487  0.58933  1.0000
  H   H2158     1.0  0.85639  0.86830  0.57576  1.0000
  C   C1270     1.0  0.83434  0.77568  0.52010  1.0000
  C   C1271     1.0  0.82709  0.96311  0.82417  1.0000
  H   H2159     1.0  0.78902  0.75837  0.66826  1.0000
  C   C1272     1.0  0.84670  0.76147  0.97212  1.0000
  C   C1273     1.0  0.82807  0.77000  0.96242  1.0000
  C   C1274     1.0  0.83141  0.91675  0.53945  1.0000
  H   H2160     1.0  0.83253  0.79975  0.52292  1.0000
  S   S379      1.0  0.89887  0.96831  0.60526  1.0000
  H   H2161     1.0  0.82485  0.77071  0.94061  1.0000
  H   H2162     1.0  0.93757  0.96892  0.99275  1.0000
  C   C1275     1.0  0.83244  0.77776  0.72241  1.0000
  C   C1276     1.0  0.84048  0.76476  0.73611  1.0000
  C   C1277     1.0  0.84310  0.76449  0.76486  1.0000
  C   C1278     1.0  0.83748  0.77722  0.78040  1.0000
  C   C1279     1.0  0.82929  0.79023  0.76674  1.0000
  C   C1280     1.0  0.82690  0.79055  0.73790  1.0000
  H   H2163     1.0  0.84479  0.75480  0.72438  1.0000
  H   H2164     1.0  0.84937  0.75440  0.77500  1.0000
  H   H2165     1.0  0.82489  0.80015  0.77855  1.0000
  H   H2166     1.0  0.82069  0.80064  0.72771  1.0000
  C   C1281     1.0  0.79508  0.95155  0.87112  1.0000
  C   C1282     1.0  0.96967  0.74331  0.86352  1.0000
  H   H2167     1.0  0.52649  0.73867  0.68960  1.0000
  C   C1283     1.0  0.80443  0.96678  0.80933  1.0000
  H   H2168     1.0  0.53247  0.72701  0.73388  1.0000
  C   C1284     1.0  0.67286  0.77203  0.60737  1.0000
  C   C1285     1.0  0.67209  0.78768  0.60504  1.0000
  C   C1286     1.0  0.69180  0.79604  0.60780  1.0000
  C   C1287     1.0  0.71306  0.78903  0.61250  1.0000
  C   C1288     1.0  0.71424  0.77327  0.61462  1.0000
  C   C1289     1.0  0.69413  0.76478  0.61228  1.0000
  H   H2169     1.0  0.65594  0.79346  0.60120  1.0000
  H   H2170     1.0  0.69050  0.80814  0.60612  1.0000
  H   H2171     1.0  0.73046  0.76767  0.61837  1.0000
  H   H2172     1.0  0.69506  0.75269  0.61399  1.0000
  H   H2173     1.0  0.78039  0.77297  0.56500  1.0000
  H   H2174     1.0  0.98235  0.76453  0.85013  1.0000
  H   H2175     1.0  0.76608  0.74371  0.92542  1.0000
  H   H2176     1.0  0.91613  0.79009  0.90747  1.0000
  H   H2177     1.0  0.79908  0.78417  0.97338  1.0000
  H   H2178     1.0  0.91597  0.76259  0.52947  1.0000
  C   C1290     1.0  0.73474  0.77080  0.52003  1.0000
  C   C1291     1.0  0.56036  0.74561  0.69433  1.0000
  H   H2179     1.0  0.97326  0.96382  0.72522  1.0000
  H   H2180     1.0  0.76605  0.93133  0.56432  1.0000
  H   H2181     1.0  0.78175  0.90102  0.56874  1.0000
  H   H2182     1.0  0.77692  0.95584  0.56355  1.0000
  H   H2183     1.0  0.92287  0.78378  0.95573  1.0000
  C   C1292     1.0  0.97490  0.76227  0.92893  1.0000
  C   C1293     1.0  0.75300  0.80187  0.53453  1.0000
  H   H2184     1.0  0.94203  0.96955  0.94232  1.0000
  C   C1294     1.0  0.75812  0.75445  0.56954  1.0000
  H   H2185     1.0  0.92836  0.77274  0.89630  1.0000
  S   S380      1.0  0.94095  0.74817  0.85339  1.0000
  H   H2186     1.0  0.73564  0.76753  0.98260  1.0000
  S   S381      1.0  0.88494  0.72853  0.89001  1.0000
  C   C1295     1.0  0.92878  0.86106  0.60276  1.0000
  H   H2187     1.0  0.89357  0.88742  0.66232  1.0000
  H   H2188     1.0  0.75205  0.77822  0.57208  1.0000
  H   H2189     1.0  0.96633  0.76444  0.90916  1.0000
  C   C1296     1.0  0.98691  0.75373  0.85900  1.0000
  C   C1297     1.0  0.78733  0.91490  0.61625  1.0000
  C   C1298     1.0  0.97592  0.72949  0.87542  1.0000
  C   C1299     1.0  0.79450  0.95752  0.57089  1.0000
  C   C1300     1.0  0.94054  0.73243  0.93990  1.0000
  C   C1301     1.0  0.99041  0.93901  0.60100  1.0000
  N   N92       1.0  0.80210  0.92871  0.57303  1.0000
  N   N93       1.0  0.74074  0.77580  0.69769  1.0000
  C   C1302     1.0  0.72393  0.76384  0.69100  1.0000
  C   C1303     1.0  0.76071  0.77380  0.67838  1.0000
  C   C1304     1.0  0.72906  0.79079  0.69212  1.0000
  C   C1305     1.0  0.74747  0.77435  0.72754  1.0000
  C   C1306     1.0  0.70077  0.76500  0.70600  1.0000
  C   C1307     1.0  0.74334  0.80477  0.69630  1.0000
  H   H2190     1.0  0.72023  0.76373  0.66860  1.0000
  H   H2191     1.0  0.73117  0.75248  0.69590  1.0000
  H   H2192     1.0  0.75545  0.77663  0.65699  1.0000
  H   H2193     1.0  0.72245  0.79121  0.67071  1.0000
  H   H2194     1.0  0.71392  0.79257  0.70558  1.0000
  H   H2195     1.0  0.73500  0.78058  0.74083  1.0000
  H   H2196     1.0  0.69158  0.75441  0.70299  1.0000
  H   H2197     1.0  0.75682  0.90773  0.55173  1.0000
  H   H2198     1.0  0.68970  0.77408  0.69714  1.0000
  H   H2199     1.0  0.73359  0.81472  0.68832  1.0000
  H   H2200     1.0  0.75957  0.80428  0.68482  1.0000
  H   H2201     1.0  0.74637  0.80687  0.71837  1.0000
  N   N94       1.0  0.92757  0.88900  0.61806  1.0000
  C   C1308     1.0  0.91100  0.90042  0.63022  1.0000
  C   C1309     1.0  0.93382  0.89455  0.58984  1.0000
  C   C1310     1.0  0.94840  0.88824  0.63631  1.0000
  C   C1311     1.0  0.91604  0.87412  0.61734  1.0000
  H   H2202     1.0  0.79909  0.90511  0.61359  1.0000
  C   C1312     1.0  0.91414  0.89587  0.56897  1.0000
  C   C1313     1.0  0.97111  0.88288  0.62315  1.0000
  H   H2203     1.0  0.91826  0.91180  0.62918  1.0000
  H   H2204     1.0  0.89490  0.90116  0.61833  1.0000
  H   H2205     1.0  0.94719  0.88738  0.58001  1.0000
  H   H2206     1.0  0.94159  0.90577  0.59132  1.0000
  H   H2207     1.0  0.95193  0.89952  0.64489  1.0000
  H   H2208     1.0  0.94546  0.88089  0.65442  1.0000
  H   H2209     1.0  0.91288  0.87000  0.63853  1.0000
  H   H2210     1.0  0.89855  0.87519  0.60862  1.0000
  C   C1314     1.0  0.77966  0.74492  0.94102  1.0000
  C   C1315     1.0  0.81348  0.77761  0.98105  1.0000
  H   H2211     1.0  0.94360  0.94644  0.71511  1.0000
  H   H2212     1.0  0.92124  0.89906  0.54870  1.0000
  H   H2213     1.0  0.90546  0.88511  0.56621  1.0000
  H   H2214     1.0  0.90160  0.90486  0.57452  1.0000
  H   H2215     1.0  0.57648  0.73047  0.73720  1.0000
  H   H2216     1.0  0.78549  0.75660  0.93875  1.0000
  H   H2217     1.0  0.98410  0.88126  0.63952  1.0000
  H   H2218     1.0  0.73562  0.80290  0.52575  1.0000
  H   H2219     1.0  0.78368  0.92986  0.53473  1.0000
  H   H2220     1.0  0.95868  0.73293  0.94589  1.0000
  H   H2221     1.0  0.83199  0.72934  0.97411  1.0000
  H   H2222     1.0  0.78499  0.77181  0.72760  1.0000
  C   C1316     1.0  0.90951  0.76330  0.50809  1.0000
  H   H2223     1.0  0.81119  0.93279  0.61529  1.0000
  H   H2224     1.0  0.80495  0.96154  0.78868  1.0000
  C   C1317     1.0  0.98483  0.92934  0.65501  1.0000
  H   H2225     1.0  0.74118  0.75055  0.56325  1.0000
  Fe  Fe191     1.0  0.63184  0.73942  0.60989  1.0000
  C   C1318     1.0  0.77143  0.77956  0.73552  1.0000
  H   H2226     1.0  0.76569  0.79068  0.49935  1.0000
  H   H2227     1.0  0.79439  0.96034  0.59305  1.0000
  H   H2228     1.0  0.54449  0.73355  0.66168  1.0000
  C   C1319     1.0  0.74721  0.77500  0.99368  1.0000
  H   H2229     1.0  0.75600  0.78162  0.97771  1.0000
  H   H2230     1.0  0.93052  0.72746  0.95677  1.0000
  C   C1320     1.0  0.81061  0.94393  0.56486  1.0000
  H   H2231     1.0  0.96708  0.75571  0.96989  1.0000
  H   H2232     1.0  0.90280  0.77207  0.93978  1.0000
  H   H2233     1.0  0.93704  0.75017  0.91058  1.0000
  H   H2234     1.0  0.90695  0.75212  0.97587  1.0000
  H   H2235     1.0  0.81714  0.90603  0.57465  1.0000
  H   H2236     1.0  0.57844  0.74196  0.69223  1.0000
  H   H2237     1.0  0.77007  0.91237  0.60869  1.0000
  S   S382      1.0  0.60518  0.73564  0.64245  1.0000
  H   H2238     1.0  0.98864  0.77053  0.93041  1.0000
  C   C1321     1.0  0.92136  0.77437  0.94103  1.0000
  H   H2239     1.0  0.90336  0.77505  0.50492  1.0000
  C   C1322     1.0  0.78146  0.92538  0.55591  1.0000
  H   H2240     1.0  0.70075  0.78047  0.52765  1.0000
  H   H2241     1.0  0.95226  0.97054  0.62024  1.0000
  H   H2242     1.0  0.81795  0.91590  0.52371  1.0000
  H   H2243     1.0  0.89237  0.90712  0.66701  1.0000
  C   C1323     1.0  0.83758  0.76342  0.50232  1.0000
  H   H2244     1.0  0.96151  0.77510  0.96327  1.0000
  N   N95       1.0  0.82872  0.96740  0.85413  1.0000
  H   H2245     1.0  0.82963  0.94419  0.86701  1.0000
  H   H2246     1.0  0.93639  0.97032  0.65144  1.0000
  H   H2247     1.0  0.81427  0.94443  0.54247  1.0000
  H   H2248     1.0  0.96985  0.87211  0.61222  1.0000
  N   N96       1.0  0.93446  0.76058  0.95087  1.0000
  C   C1324     1.0  0.82065  0.95494  0.87230  1.0000
  C   C1325     1.0  0.77564  0.90867  0.55233  1.0000
  H   H2249     1.0  0.78491  0.78985  0.52750  1.0000
  H   H2250     1.0  0.98271  0.92547  0.67588  1.0000
  H   H2251     1.0  0.97956  0.96082  0.65188  1.0000
  H   H2252     1.0  0.81574  0.74052  0.93508  1.0000
  H   H2253     1.0  0.83696  0.75213  0.51039  1.0000
  C   C1326     1.0  0.82160  0.91756  0.56880  1.0000
  Fe  Fe192     1.0  0.85657  0.72584  0.85923  1.0000
  H   H2254     1.0  0.93449  0.74648  0.98729  1.0000
  H   H2255     1.0  0.94072  0.85512  0.61702  1.0000
  H   H2256     1.0  0.93798  0.86442  0.58407  1.0000
  H   H2257     1.0  0.80138  0.74642  0.99031  1.0000
  C   C1327     1.0  0.51227  0.73848  0.61527  1.0000
  H   H2258     1.0  0.90966  0.77669  0.99667  1.0000
  C   C1328     1.0  0.85350  0.96981  0.86045  1.0000
  H   H2259     1.0  0.91611  0.85295  0.59547  1.0000
  S   S383      1.0  0.85079  0.97091  0.54612  1.0000
  H   H2260     1.0  0.96642  0.97205  0.98302  1.0000
  C   C1329     1.0  0.54361  0.73382  0.68450  1.0000
  C   C1330     1.0  0.90372  0.89765  0.66025  1.0000
  H   H2261     1.0  0.83599  0.92020  0.58263  1.0000
  C   C1331     1.0  0.79616  0.92935  0.60315  1.0000
  C   C1332     1.0  0.77443  0.76196  0.51402  1.0000
  H   H2262     1.0  0.97774  0.89154  0.60903  1.0000
  H   H2263     1.0  0.83087  0.95091  0.82137  1.0000
  H   H2264     1.0  0.78944  0.96247  0.82022  1.0000
  C   C1333     1.0  0.76665  0.78863  0.52180  1.0000
  H   H2265     1.0  0.70272  0.76669  0.72837  1.0000
  H   H2266     1.0  0.75217  0.80132  0.55717  1.0000
  C   C1334     1.0  0.95943  0.76368  0.95462  1.0000
  H   H2267     1.0  0.89784  0.97189  0.52455  1.0000
  H   H2268     1.0  0.79150  0.94371  0.85411  1.0000
  H   H2269     1.0  0.52531  0.74680  0.61495  1.0000
  H   H2270     1.0  0.78575  0.91664  0.63875  1.0000
  H   H2271     1.0  0.76163  0.81243  0.52937  1.0000
  C   C1335     1.0  0.93043  0.74788  0.93129  1.0000
  H   H2272     1.0  0.91835  0.89719  0.67457  1.0000
  H   H2273     1.0  0.91182  0.74653  0.92819  1.0000
  H   H2274     1.0  0.94542  0.78615  0.91456  1.0000
  H   H2275     1.0  0.89475  0.75594  0.50689  1.0000
  H   H2276     1.0  0.84283  0.90664  0.53769  1.0000
  H   H2277     1.0  0.87002  0.95347  0.83188  1.0000
  H   H2278     1.0  0.82713  0.94612  0.57505  1.0000
  C   C1336     1.0  0.92461  0.75611  0.97828  1.0000
  H   H2279     1.0  0.73154  0.77627  0.49979  1.0000
  C   C1337     1.0  0.71553  0.77619  0.53985  1.0000
  C   C1338     1.0  0.79994  0.73391  0.93499  1.0000
  C   C1339     1.0  0.92853  0.78097  0.91322  1.0000
  H   H2280     1.0  0.78996  0.94630  0.89080  1.0000
  C   C1340     1.0  0.87026  0.95664  0.85385  1.0000
  H   H2281     1.0  0.94122  0.95231  0.68040  1.0000
  H   H2282     1.0  0.84199  0.92658  0.53493  1.0000
  H   H2283     1.0  0.75879  0.75430  0.59229  1.0000
  H   H2284     1.0  0.78389  0.96167  0.86927  1.0000
  H   H2285     1.0  0.86721  0.94670  0.86691  1.0000
  H   H2286     1.0  0.70896  0.76665  0.55190  1.0000
  H   H2287     1.0  0.98094  0.95238  0.69688  1.0000
  C   C1341     1.0  0.97395  0.97258  0.65613  1.0000
  H   H2288     1.0  0.88784  0.96021  0.85837  1.0000
  H   H2289     1.0  0.55805  0.75585  0.68149  1.0000
  H   H2290     1.0  0.79782  0.73031  0.91329  1.0000
  H   H2291     1.0  0.93223  0.96475  0.70813  1.0000
  H   H2292     1.0  0.80098  0.96752  0.56007  1.0000
  H   H2293     1.0  0.77209  0.74415  0.96167  1.0000
  H   H2294     1.0  0.88163  0.96286  0.96302  1.0000
  C   C1342     1.0  0.83499  0.79022  0.50944  1.0000
  C   C1343     1.0  0.87825  0.97211  0.97687  1.0000
  H   H2295     1.0  0.76857  0.75031  0.51695  1.0000
  H   H2296     1.0  0.79194  0.76193  0.52266  1.0000
  H   H2297     1.0  0.84025  0.96882  0.81175  1.0000
  H   H2298     1.0  0.85607  0.97237  0.88251  1.0000
  H   H2299     1.0  0.98387  0.75114  0.92828  1.0000
  S   S384      1.0  0.61158  0.72686  0.57813  1.0000
  C   C1344     1.0  0.96958  0.96197  0.70313  1.0000
  H   H2300     1.0  0.92696  0.97407  0.89411  1.0000
  H   H2301     1.0  0.95762  0.97313  0.89498  1.0000
  H   H2302     1.0  0.84750  0.97154  0.71209  1.0000
  H   H2303     1.0  0.99267  0.94261  0.57997  1.0000
  H   H2304     1.0  0.93951  0.72463  0.92224  1.0000
