data_image0
_chemical_formula_structural       FeS3CSCH2CFeS2C6H4SCNFeHSH5CH5C2HCHCH5CH3SFeSHFeS2FeSFeS3C6H2CSC4H3C2H10FeCSNC8H9SHCH8CH4CH2CH4NSCH2CH3C3HNH2NHCH6CH4FeC2HC2HCH5CHC2HCHC2H10CHCFeS2FeS2FeHFeS3FeHSH2CH2FeSHC7H4C6H3C5H5CH2SHNC5HC2H11CH2C3H5CH5NCHC2H4S2HC2NH3CH2CHCH3CH4SHCH6CHFeC3H6FeS2HNHCH3S3C2HC6H4CH2C2H2FeCH5CHSHNC2H4CH2C2SH4C2H7CH2CHSC2HCH2CHCH3NH2FeH5C3HC2H3CH2CH4CH4FeS2FeSCFeSFeHS2CHSH2CH4C5H3C4HCHCSHCH2CHC3HCHSH8FeHSCHCH2NH2NC4H2C2H4CHCH2CH3CH6SH2C4H2SHFeHC2HSHFeSHCNCFeS2FeS2FeSFeS3C3H2CH4CHC6H7NC2HC2H2SH5CHCH3C4HCH2CHCH2C2HCH11CH4CHFeCHFeH2CH3FeHSFeH2SFeS2FeS2FeSFeS3CH2C3HC3HCH4C4HC7H6NHCHCH5CHCH6CH3CH3CH2C3NHCHCH4CH2FeHNHC2H3CH3CH2SC2H3CH4CHC2HSH2C2H2CHCFeS2FeS2FeSFeHS2C2H2C2HCHCNH2C7H3SHC2HCH4NC2H4CHCHSH3C3HCH6C2HSH6CH2NH2C3H3CHCH4CH3CH6C2H2CH3C2HCHCHCH2CHFeS2CH3FeS3H2SH3C6H6NC3HCH4C2H4CH3FeC2HCHCHC3H7CFeNH3CH4CH2SHFeHCSCH2CHCH2SFeS2FeS2FeSFeS3FeCFeHSFeHSH2C6H4C2HC3H7CHCH2CHC4H4CH2CH2SHCHSCHCH2SCSHCSCH3CH2NC4H7NH2CHC2H2CHSHCHC2H4CH4FeSCFeS2FeHFeS3HC2H2NC4SH2C4HC2HCHCHC5H6CSHC2HC2H5CH3C2NC2H3C2H5CH5CNH10C2H8C3SH2CHCHNH6CHCH2C3H6CHCH6CSHFeS2HFeSHSCHSC8H4CH5CHNSHC2FeHCH7FeH2SFeH6C2HCH2NHCH8C3H3CHCHCHCH3CHCNH
_chemical_formula_sum              "Fe64 S128 C448 H768 N32"
_cell_length_a       36.2741
_cell_length_b       39.9077
_cell_length_c       41.3943
_cell_angle_alpha    90.0117
_cell_angle_beta     89.9674
_cell_angle_gamma    89.6203

_space_group_name_H-M_alt    "P 1"
_space_group_IT_number       1

loop_
  _space_group_symop_operation_xyz
  'x, y, z'

loop_
  _atom_site_type_symbol
  _atom_site_label
  _atom_site_symmetry_multiplicity
  _atom_site_fract_x
  _atom_site_fract_y
  _atom_site_fract_z
  _atom_site_occupancy
  Fe  Fe1       1.0  0.36717  0.16616  0.26528  1.0000
  S   S1        1.0  0.40025  0.20226  0.29589  1.0000
  S   S2        1.0  0.35830  0.17773  0.21151  1.0000
  S   S3        1.0  0.33481  0.08412  0.99682  1.0000
  C   C1        1.0  0.46043  0.16073  0.11584  1.0000
  S   S4        1.0  0.41949  0.11316  0.00508  1.0000
  C   C2        1.0  0.48344  0.14717  0.20647  1.0000
  H   H1        1.0  0.30487  0.28668  0.99740  1.0000
  H   H2        1.0  0.50401  0.04850  0.11055  1.0000
  C   C3        1.0  0.50449  0.19229  0.17116  1.0000
  Fe  Fe2       1.0  0.42975  0.15603  0.31340  1.0000
  S   S5        1.0  0.39924  0.12100  0.28087  1.0000
  S   S6        1.0  0.38057  0.07975  0.09004  1.0000
  C   C4        1.0  0.36254  0.14968  0.17811  1.0000
  C   C5        1.0  0.35759  0.16203  0.14649  1.0000
  C   C6        1.0  0.36261  0.14110  0.11923  1.0000
  C   C7        1.0  0.37254  0.10741  0.12325  1.0000
  C   C8        1.0  0.37716  0.09502  0.15488  1.0000
  C   C9        1.0  0.37230  0.11595  0.18210  1.0000
  H   H3        1.0  0.35004  0.18805  0.14305  1.0000
  H   H4        1.0  0.35881  0.15104  0.09515  1.0000
  H   H5        1.0  0.38458  0.06897  0.15837  1.0000
  H   H6        1.0  0.37605  0.10597  0.20617  1.0000
  S   S7        1.0  0.32308  0.15982  0.30368  1.0000
  C   C10       1.0  0.49696  0.98828  0.00293  1.0000
  N   N1        1.0  0.49193  0.15632  0.17189  1.0000
  Fe  Fe3       1.0  0.38046  0.08158  0.03439  1.0000
  H   H7        1.0  0.48254  0.17870  0.11018  1.0000
  S   S8        1.0  0.40251  0.03270  0.01433  1.0000
  H   H8        1.0  0.48750  0.24399  0.17895  1.0000
  H   H9        1.0  0.45996  0.21487  0.20081  1.0000
  H   H10       1.0  0.46862  0.99366  0.00900  1.0000
  H   H11       1.0  0.45899  0.16142  0.21546  1.0000
  H   H12       1.0  0.49615  0.08112  0.04339  1.0000
  C   C11       1.0  0.45760  0.15155  0.15206  1.0000
  H   H13       1.0  0.43380  0.16529  0.16278  1.0000
  H   H14       1.0  0.46131  0.07201  0.07236  1.0000
  H   H15       1.0  0.43428  0.17285  0.10792  1.0000
  H   H16       1.0  0.46483  0.13784  0.10098  1.0000
  H   H17       1.0  0.06370  0.44509  0.03694  1.0000
  C   C12       1.0  0.05139  0.46132  0.01892  1.0000
  C   C13       1.0  0.01687  0.45319  0.00585  1.0000
  H   H18       1.0  0.45395  0.22007  0.15760  1.0000
  C   C14       1.0  0.48839  0.06336  0.06282  1.0000
  H   H19       1.0  0.44880  0.12495  0.15265  1.0000
  C   C15       1.0  0.47437  0.21896  0.17753  1.0000
  H   H20       1.0  0.49932  0.09346  0.20762  1.0000
  H   H21       1.0  0.46996  0.10696  0.23952  1.0000
  H   H22       1.0  0.48634  0.20691  0.28258  1.0000
  H   H23       1.0  0.45051  0.10105  0.20049  1.0000
  H   H24       1.0  0.48410  0.03814  0.05244  1.0000
  C   C16       1.0  0.47545  0.10990  0.21325  1.0000
  H   H25       1.0  0.27259  0.25330  0.98803  1.0000
  H   H26       1.0  0.32077  0.24511  0.98910  1.0000
  H   H27       1.0  0.50641  0.15440  0.22262  1.0000
  S   S9        1.0  0.49081  0.14491  0.31929  1.0000
  Fe  Fe4       1.0  0.21374  0.43980  0.48201  1.0000
  S   S10       1.0  0.17755  0.41505  0.44564  1.0000
  H   H28       1.0  0.35110  0.34266  0.35823  1.0000
  Fe  Fe5       1.0  0.18811  0.39318  0.53711  1.0000
  S   S11       1.0  0.15005  0.36545  0.50326  1.0000
  S   S12       1.0  0.18292  0.39121  0.59243  1.0000
  Fe  Fe6       1.0  0.19769  0.36634  0.46747  1.0000
  S   S13       1.0  0.21017  0.32481  0.42971  1.0000
  Fe  Fe7       1.0  0.13416  0.41666  0.48448  1.0000
  S   S14       1.0  0.07608  0.43530  0.47233  1.0000
  S   S15       1.0  0.23665  0.39148  0.50253  1.0000
  S   S16       1.0  0.16948  0.44405  0.51948  1.0000
  C   C17       1.0  0.34595  0.00987  0.43153  1.0000
  C   C18       1.0  0.35076  0.04479  0.43020  1.0000
  C   C19       1.0  0.35084  0.06175  0.40032  1.0000
  C   C20       1.0  0.34410  0.04414  0.37171  1.0000
  C   C21       1.0  0.33999  0.00920  0.37303  1.0000
  C   C22       1.0  0.06163  0.29201  0.63313  1.0000
  H   H29       1.0  0.47912  0.13542  0.43373  1.0000
  H   H30       1.0  0.25934  0.40320  0.42997  1.0000
  C   C23       1.0  0.30513  0.25786  0.38931  1.0000
  S   S17       1.0  0.34128  0.23031  0.37572  1.0000
  C   C24       1.0  0.24774  0.29974  0.41475  1.0000
  C   C25       1.0  0.24408  0.28368  0.38458  1.0000
  C   C26       1.0  0.27260  0.26321  0.37180  1.0000
  C   C27       1.0  0.28061  0.29501  0.43194  1.0000
  H   H31       1.0  0.21891  0.28711  0.37092  1.0000
  H   H32       1.0  0.26913  0.25116  0.34859  1.0000
  H   H33       1.0  0.28400  0.30693  0.45521  1.0000
  C   C28       1.0  0.20010  0.36709  0.62541  1.0000
  C   C29       1.0  0.21979  0.33713  0.62118  1.0000
  H   H34       1.0  0.14080  0.28291  0.57029  1.0000
  H   H35       1.0  0.33720  0.34399  0.39942  1.0000
  H   H36       1.0  0.43129  0.05884  0.44698  1.0000
  H   H37       1.0  0.44910  0.00484  0.42621  1.0000
  H   H38       1.0  0.22644  0.32863  0.59705  1.0000
  H   H39       1.0  0.26373  0.36746  0.33707  1.0000
  H   H40       1.0  0.48494  0.13615  0.39042  1.0000
  H   H41       1.0  0.27206  0.11263  0.34239  1.0000
  H   H42       1.0  0.24013  0.10416  0.37391  1.0000
  H   H43       1.0  0.48767  0.07101  0.36975  1.0000
  Fe  Fe8       1.0  0.35865  0.11703  0.32169  1.0000
  C   C30       1.0  0.32795  0.39111  0.37231  1.0000
  S   S18       1.0  0.39133  0.14884  0.35535  1.0000
  N   N2        1.0  0.26633  0.15573  0.41625  1.0000
  C   C31       1.0  0.24052  0.18350  0.40563  1.0000
  C   C32       1.0  0.28322  0.14107  0.38603  1.0000
  C   C33       1.0  0.29587  0.17101  0.43728  1.0000
  C   C34       1.0  0.24404  0.13054  0.43498  1.0000
  C   C35       1.0  0.22527  0.20653  0.43261  1.0000
  C   C36       1.0  0.25609  0.12447  0.36233  1.0000
  C   C37       1.0  0.33272  0.15175  0.44029  1.0000
  C   C38       1.0  0.26340  0.09749  0.44460  1.0000
  H   H44       1.0  0.25439  0.20002  0.38778  1.0000
  H   H45       1.0  0.21607  0.17327  0.39286  1.0000
  H   H46       1.0  0.30436  0.12187  0.39143  1.0000
  H   H47       1.0  0.29849  0.16082  0.37260  1.0000
  H   H48       1.0  0.30360  0.19622  0.42804  1.0000
  H   H49       1.0  0.28539  0.17532  0.46225  1.0000
  H   H50       1.0  0.23409  0.14171  0.45803  1.0000
  H   H51       1.0  0.21801  0.12406  0.42222  1.0000
  H   H52       1.0  0.49211  0.04350  0.33652  1.0000
  S   S19       1.0  0.33888  0.06468  0.33405  1.0000
  H   H53       1.0  0.20594  0.22505  0.42167  1.0000
  C   C39       1.0  0.23076  0.31802  0.64832  1.0000
  H   H54       1.0  0.33490  0.99535  0.35102  1.0000
  H   H55       1.0  0.29197  0.47725  0.35923  1.0000
  H   H56       1.0  0.34877  0.15344  0.41752  1.0000
  H   H57       1.0  0.32935  0.12522  0.44711  1.0000
  H   H58       1.0  0.34974  0.16376  0.45930  1.0000
  H   H59       1.0  0.27814  0.10009  0.46797  1.0000
  H   H60       1.0  0.28246  0.08762  0.42607  1.0000
  H   H61       1.0  0.24240  0.07752  0.44728  1.0000
  C   C40       1.0  0.32945  0.35242  0.37481  1.0000
  H   H62       1.0  0.24611  0.29497  0.64480  1.0000
  H   H63       1.0  0.35535  0.08843  0.39952  1.0000
  H   H64       1.0  0.35515  0.39989  0.38137  1.0000
  H   H65       1.0  0.14602  0.32345  0.58859  1.0000
  C   C41       1.0  0.47465  0.04905  0.35797  1.0000
  H   H66       1.0  0.41800  0.06925  0.36336  1.0000
  H   H67       1.0  0.15727  0.28771  0.63163  1.0000
  C   C42       1.0  0.31356  0.39049  0.44734  1.0000
  H   H68       1.0  0.23813  0.36278  0.37469  1.0000
  H   H69       1.0  0.43146  0.99200  0.35467  1.0000
  H   H70       1.0  0.35440  0.05868  0.45240  1.0000
  H   H71       1.0  0.10359  0.38315  0.64492  1.0000
  N   N3        1.0  0.29656  0.40884  0.38945  1.0000
  S   S20       1.0  0.34249  0.98973  0.46947  1.0000
  C   C43       1.0  0.28473  0.39123  0.41992  1.0000
  H   H72       1.0  0.27676  0.36501  0.41515  1.0000
  H   H73       1.0  0.23730  0.14304  0.35097  1.0000
  C   C44       1.0  0.24585  0.38018  0.35508  1.0000
  H   H74       1.0  0.21984  0.38670  0.34231  1.0000
  H   H75       1.0  0.33424  0.44247  0.41400  1.0000
  H   H76       1.0  0.31326  0.41458  0.46084  1.0000
  C   C45       1.0  0.49841  0.14187  0.41386  1.0000
  C   C46       1.0  0.30892  0.27416  0.41936  1.0000
  C   C47       1.0  0.12911  0.28346  0.62185  1.0000
  H   H77       1.0  0.30642  0.37045  0.46484  1.0000
  N   N4        1.0  0.10041  0.29482  0.64594  1.0000
  H   H78       1.0  0.24151  0.42733  0.37980  1.0000
  H   H79       1.0  0.05639  0.30925  0.61265  1.0000
  N   N5        1.0  0.47357  0.01941  0.38051  1.0000
  H   H80       1.0  0.30342  0.34009  0.36799  1.0000
  C   C48       1.0  0.44701  0.02528  0.40801  1.0000
  H   H81       1.0  0.24730  0.22137  0.44434  1.0000
  H   H82       1.0  0.47928  0.06028  0.43830  1.0000
  H   H83       1.0  0.44192  0.08243  0.32823  1.0000
  H   H84       1.0  0.33390  0.27039  0.43321  1.0000
  H   H85       1.0  0.20957  0.19251  0.45108  1.0000
  H   H86       1.0  0.10078  0.35721  0.61019  1.0000
  C   C49       1.0  0.26358  0.41264  0.36749  1.0000
  H   H87       1.0  0.02193  0.25858  0.61112  1.0000
  H   H88       1.0  0.27071  0.42693  0.34533  1.0000
  H   H89       1.0  0.06193  0.36087  0.63765  1.0000
  H   H90       1.0  0.41805  0.02436  0.39936  1.0000
  Fe  Fe9       1.0  0.35838  0.19268  0.33557  1.0000
  C   C50       1.0  0.45174  0.05830  0.42697  1.0000
  C   C51       1.0  0.30882  0.44360  0.39896  1.0000
  H   H91       1.0  0.44624  0.08068  0.41188  1.0000
  C   C52       1.0  0.05010  0.25689  0.62160  1.0000
  C   C53       1.0  0.12893  0.30047  0.58840  1.0000
  H   H92       1.0  0.06859  0.24711  0.60242  1.0000
  C   C54       1.0  0.05317  0.46949  0.49138  1.0000
  H   H93       1.0  0.28770  0.45598  0.41449  1.0000
  H   H94       1.0  0.03611  0.42314  0.56961  1.0000
  H   H95       1.0  0.34185  0.38546  0.43840  1.0000
  H   H96       1.0  0.10117  0.30662  0.57917  1.0000
  H   H97       1.0  0.12849  0.25584  0.61812  1.0000
  C   C55       1.0  0.46094  0.98915  0.36177  1.0000
  H   H98       1.0  0.49533  0.04081  0.49841  1.0000
  C   C56       1.0  0.31754  0.46785  0.37098  1.0000
  C   C57       1.0  0.34156  0.99205  0.40272  1.0000
  H   H99       1.0  0.04151  0.30008  0.65197  1.0000
  C   C58       1.0  0.43721  0.06065  0.34430  1.0000
  H   H100      1.0  0.32795  0.39754  0.34612  1.0000
  C   C59       1.0  0.09243  0.35907  0.63579  1.0000
  C   C60       1.0  0.49888  0.98973  0.48157  1.0000
  H   H101      1.0  0.21230  0.46916  0.40885  1.0000
  H   H102      1.0  0.33607  0.45639  0.35270  1.0000
  H   H103      1.0  0.04846  0.23883  0.64190  1.0000
  H   H104      1.0  0.09409  0.47827  0.52800  1.0000
  H   H105      1.0  0.46970  0.98539  0.48423  1.0000
  H   H106      1.0  0.42380  0.04109  0.32945  1.0000
  H   H107      1.0  0.10998  0.46475  0.40992  1.0000
  H   H108      1.0  0.47632  0.98663  0.33861  1.0000
  H   H109      1.0  0.00718  0.46730  0.45857  1.0000
  H   H110      1.0  0.50231  0.16930  0.41509  1.0000
  C   C61       1.0  0.00729  0.42900  0.56234  1.0000
  H   H111      1.0  0.00778  0.43851  0.53721  1.0000
  C   C62       1.0  0.01884  0.48002  0.47923  1.0000
  Fe  Fe10      1.0  0.20830  0.26891  0.83021  1.0000
  S   S21       1.0  0.23676  0.31575  0.81205  1.0000
  S   S22       1.0  0.22337  0.22903  0.86843  1.0000
  Fe  Fe11      1.0  0.13612  0.28706  0.79412  1.0000
  S   S23       1.0  0.15876  0.33455  0.77378  1.0000
  S   S24       1.0  0.07841  0.26747  0.78599  1.0000
  Fe  Fe12      1.0  0.20971  0.30439  0.76365  1.0000
  H   H112      1.0  0.34798  0.02307  0.84753  1.0000
  Fe  Fe13      1.0  0.18320  0.34260  0.82325  1.0000
  S   S25       1.0  0.16954  0.39356  0.84508  1.0000
  S   S26       1.0  0.18547  0.25572  0.78125  1.0000
  S   S27       1.0  0.15646  0.29704  0.84420  1.0000
  Fe  Fe14      1.0  0.37526  0.11299  0.96622  1.0000
  H   H113      1.0  0.13768  0.33427  0.65944  1.0000
  S   S28       1.0  0.36468  0.15737  0.93175  1.0000
  H   H114      1.0  0.34478  0.32809  0.95433  1.0000
  H   H115      1.0  0.14172  0.30078  0.70641  1.0000
  C   C63       1.0  0.28356  0.33198  0.95044  1.0000
  H   H116      1.0  0.11110  0.43972  0.93046  1.0000
  H   H117      1.0  0.12915  0.36792  0.94135  1.0000
  Fe  Fe15      1.0  0.36141  0.03829  0.97427  1.0000
  S   S29       1.0  0.39942  0.06709  0.94236  1.0000
  H   H118      1.0  0.16392  0.26899  0.68182  1.0000
  C   C64       1.0  0.08049  0.44052  0.92958  1.0000
  C   C65       1.0  0.26295  0.20779  0.88412  1.0000
  C   C66       1.0  0.25849  0.18592  0.91056  1.0000
  C   C67       1.0  0.28909  0.16980  0.92508  1.0000
  C   C68       1.0  0.32471  0.17535  0.91335  1.0000
  C   C69       1.0  0.32913  0.19701  0.88676  1.0000
  C   C70       1.0  0.29851  0.21296  0.87209  1.0000
  H   H119      1.0  0.23116  0.18172  0.92016  1.0000
  H   H120      1.0  0.28516  0.15348  0.94566  1.0000
  H   H121      1.0  0.35654  0.20156  0.87746  1.0000
  H   H122      1.0  0.30248  0.22948  0.85168  1.0000
  C   C71       1.0  0.18973  0.41485  0.87798  1.0000
  C   C72       1.0  0.22165  0.40335  0.89348  1.0000
  C   C73       1.0  0.23660  0.42178  0.91939  1.0000
  C   C74       1.0  0.13870  0.27549  0.69566  1.0000
  C   C75       1.0  0.22177  0.32832  0.67992  1.0000
  C   C76       1.0  0.17290  0.44463  0.88865  1.0000
  H   H123      1.0  0.23504  0.38068  0.88511  1.0000
  H   H124      1.0  0.26166  0.41327  0.93099  1.0000
  H   H125      1.0  0.17688  0.40098  0.66065  1.0000
  C   C77       1.0  0.20977  0.30995  0.92116  1.0000
  C   C78       1.0  0.03512  0.33310  0.72103  1.0000
  C   C79       1.0  0.05860  0.31817  0.74395  1.0000
  C   C80       1.0  0.05052  0.28644  0.75627  1.0000
  C   C81       1.0  0.07395  0.35655  0.88305  1.0000
  H   H126      1.0  0.04148  0.35767  0.71155  1.0000
  H   H127      1.0  0.08270  0.33136  0.75223  1.0000
  H   H128      1.0  0.07110  0.33900  0.90350  1.0000
  H   H129      1.0  0.04068  0.26372  0.85690  1.0000
  H   H130      1.0  0.07956  0.27653  0.69177  1.0000
  C   C82       1.0  0.01878  0.26984  0.74562  1.0000
  H   H131      1.0  0.32485  0.36264  0.97411  1.0000
  H   H132      1.0  0.01224  0.43001  0.93353  1.0000
  S   S30       1.0  0.23575  0.30315  0.71334  1.0000
  H   H133      1.0  0.34460  0.31925  0.89719  1.0000
  N   N6        1.0  0.29002  0.06650  0.87272  1.0000
  C   C83       1.0  0.27021  0.04316  0.89540  1.0000
  C   C84       1.0  0.29432  0.04927  0.84049  1.0000
  C   C85       1.0  0.26865  0.09866  0.86794  1.0000
  C   C86       1.0  0.32699  0.07488  0.88711  1.0000
  C   C87       1.0  0.25997  0.05784  0.92874  1.0000
  H   H134      1.0  0.33722  0.27577  0.88672  1.0000
  C   C88       1.0  0.22811  0.09491  0.85735  1.0000
  C   C89       1.0  0.35323  0.09514  0.86526  1.0000
  H   H135      1.0  0.24463  0.03324  0.88418  1.0000
  H   H136      1.0  0.28737  0.02060  0.90049  1.0000
  H   H137      1.0  0.30492  0.06693  0.82190  1.0000
  H   H138      1.0  0.26708  0.04099  0.83123  1.0000
  H   H139      1.0  0.26891  0.11410  0.89028  1.0000
  H   H140      1.0  0.28190  0.11458  0.84923  1.0000
  H   H141      1.0  0.32358  0.09001  0.90953  1.0000
  H   H142      1.0  0.34174  0.05167  0.89478  1.0000
  H   H143      1.0  0.24534  0.03836  0.94290  1.0000
  H   H144      1.0  0.28481  0.06439  0.94287  1.0000
  H   H145      1.0  0.11406  0.39431  0.89510  1.0000
  C   C90       1.0  0.10327  0.27221  0.67517  1.0000
  H   H146      1.0  0.29894  0.24804  0.93270  1.0000
  H   H147      1.0  0.07170  0.44959  0.95374  1.0000
  C   C91       1.0  0.21944  0.45143  0.93021  1.0000
  C   C92       1.0  0.23983  0.28797  0.93728  1.0000
  C   C93       1.0  0.18738  0.46264  0.91483  1.0000
  H   H148      1.0  0.36147  0.08112  0.84329  1.0000
  H   H149      1.0  0.37892  0.10049  0.87885  1.0000
  H   H150      1.0  0.34137  0.11978  0.85837  1.0000
  H   H151      1.0  0.08010  0.46268  0.88042  1.0000
  H   H152      1.0  0.27437  0.32809  0.88833  1.0000
  C   C94       1.0  0.19195  0.37779  0.65706  1.0000
  H   H153      1.0  0.19560  0.36691  0.70824  1.0000
  H   H154      1.0  0.20829  0.33544  0.93174  1.0000
  H   H155      1.0  0.32656  0.30812  0.85865  1.0000
  H   H156      1.0  0.33347  0.27710  0.94187  1.0000
  H   H157      1.0  0.22572  0.08265  0.83343  1.0000
  N   N7        1.0  0.27919  0.29925  0.93271  1.0000
  C   C95       1.0  0.20236  0.35842  0.68413  1.0000
  H   H158      1.0  0.14853  0.45390  0.87646  1.0000
  C   C96       1.0  0.08358  0.39251  0.89331  1.0000
  C   C97       1.0  0.32604  0.30165  0.88477  1.0000
  H   H159      1.0  0.05853  0.39633  0.97413  1.0000
  H   H160      1.0  0.07713  0.40834  0.87193  1.0000
  H   H161      1.0  0.09712  0.34620  0.86848  1.0000
  H   H162      1.0  0.04867  0.35636  0.86798  1.0000
  S   S31       1.0  0.49934  0.05142  0.97513  1.0000
  S   S32       1.0  0.23917  0.47451  0.96225  1.0000
  H   H163      1.0  0.24131  0.07985  0.92707  1.0000
  C   C98       1.0  0.07237  0.38504  0.95260  1.0000
  C   C99       1.0  0.10768  0.33027  0.65686  1.0000
  N   N8        1.0  0.06482  0.40618  0.92306  1.0000
  H   H164      1.0  0.32066  0.00772  0.81512  1.0000
  H   H165      1.0  0.01800  0.29933  0.87206  1.0000
  H   H166      1.0  0.30811  0.99731  0.85541  1.0000
  C   C100      1.0  0.31927  0.01771  0.84015  1.0000
  H   H167      1.0  0.21336  0.31168  0.89463  1.0000
  H   H168      1.0  0.27097  0.28416  0.88286  1.0000
  C   C101      1.0  0.01304  0.27339  0.86414  1.0000
  H   H169      1.0  0.04028  0.47381  0.90482  1.0000
  C   C102      1.0  0.28584  0.30370  0.89687  1.0000
  H   H170      1.0  0.10175  0.24536  0.66809  1.0000
  H   H171      1.0  0.23622  0.26198  0.92806  1.0000
  H   H172      1.0  0.23730  0.47927  0.86056  1.0000
  C   C103      1.0  0.11338  0.37978  0.96131  1.0000
  H   H173      1.0  0.13719  0.25769  0.71625  1.0000
  H   H174      1.0  0.21134  0.08131  0.87541  1.0000
  H   H175      1.0  0.01780  0.41812  0.89253  1.0000
  H   H176      1.0  0.32787  0.36314  0.93067  1.0000
  S   S33       1.0  0.32952  0.99386  0.95439  1.0000
  H   H177      1.0  0.23243  0.28687  0.96334  1.0000
  C   C104      1.0  0.07030  0.46838  0.90518  1.0000
  H   H178      1.0  0.02403  0.32476  0.81121  1.0000
  H   H179      1.0  0.01247  0.24520  0.75494  1.0000
  H   H180      1.0  0.00873  0.35627  0.91229  1.0000
  H   H181      1.0  0.26612  0.35171  0.93909  1.0000
  H   H182      1.0  0.39057  0.00203  0.90895  1.0000
  H   H183      1.0  0.21568  0.12034  0.85493  1.0000
  C   C105      1.0  0.32256  0.34697  0.95200  1.0000
  H   H184      1.0  0.06033  0.35970  0.95057  1.0000
  Fe  Fe16      1.0  0.43908  0.06428  0.98372  1.0000
  C   C106      1.0  0.30388  0.27189  0.94591  1.0000
  C   C107      1.0  0.02373  0.40994  0.91774  1.0000
  C   C108      1.0  0.29981  0.26428  0.98224  1.0000
  H   H185      1.0  0.09602  0.33474  0.68134  1.0000
  H   H186      1.0  0.18250  0.29814  0.92520  1.0000
  H   H187      1.0  0.27249  0.33060  0.97551  1.0000
  H   H188      1.0  0.11520  0.36261  0.98238  1.0000
  H   H189      1.0  0.12676  0.40347  0.96879  1.0000
  H   H190      1.0  0.00714  0.36681  0.81180  1.0000
  Fe  Fe17      1.0  0.21080  0.66004  0.26522  1.0000
  S   S34       1.0  0.17787  0.69697  0.29473  1.0000
  S   S35       1.0  0.21508  0.67302  0.21142  1.0000
  H   H191      1.0  0.01090  0.72080  0.29588  1.0000
  N   N9        1.0  0.07863  0.60768  0.17405  1.0000
  H   H192      1.0  0.21086  0.69809  0.06119  1.0000
  C   C109      1.0  0.28647  0.68409  0.06698  1.0000
  H   H193      1.0  0.34734  0.67680  0.06383  1.0000
  H   H194      1.0  0.12930  0.63616  0.17732  1.0000
  H   H195      1.0  0.11231  0.58734  0.25126  1.0000
  S   S36       1.0  0.18067  0.61582  0.28474  1.0000
  S   S37       1.0  0.25638  0.65688  0.30244  1.0000
  S   S38       1.0  0.19925  0.57155  0.09236  1.0000
  C   C110      1.0  0.20983  0.68583  0.03718  1.0000
  C   C111      1.0  0.07823  0.59960  0.20973  1.0000
  H   H196      1.0  0.33133  0.69339  0.10056  1.0000
  C   C112      1.0  0.20913  0.64449  0.17879  1.0000
  C   C113      1.0  0.20990  0.60977  0.18330  1.0000
  C   C114      1.0  0.20676  0.58802  0.15656  1.0000
  C   C115      1.0  0.20219  0.60057  0.12502  1.0000
  C   C116      1.0  0.20008  0.63532  0.12066  1.0000
  C   C117      1.0  0.20401  0.65711  0.14732  1.0000
  H   H197      1.0  0.21385  0.59963  0.20731  1.0000
  H   H198      1.0  0.20828  0.56121  0.16035  1.0000
  H   H199      1.0  0.19512  0.64541  0.09691  1.0000
  H   H200      1.0  0.20283  0.68392  0.14360  1.0000
  C   C118      1.0  0.06124  0.65483  0.28868  1.0000
  H   H201      1.0  0.33209  0.72002  0.06527  1.0000
  H   H202      1.0  0.06017  0.70585  0.22276  1.0000
  C   C119      1.0  0.05053  0.68769  0.24019  1.0000
  C   C120      1.0  0.07390  0.67736  0.26539  1.0000
  H   H203      1.0  0.31351  0.62073  0.07790  1.0000
  H   H204      1.0  0.10138  0.68748  0.26724  1.0000
  Fe  Fe18      1.0  0.19372  0.56997  0.03709  1.0000
  C   C121      1.0  0.10010  0.63965  0.16977  1.0000
  H   H205      1.0  0.28596  0.72728  0.25809  1.0000
  H   H206      1.0  0.27449  0.60047  0.05918  1.0000
  H   H207      1.0  0.29390  0.62599  0.00499  1.0000
  H   H208      1.0  0.02764  0.63592  0.17674  1.0000
  H   H209      1.0  0.21445  0.77441  0.29860  1.0000
  C   C122      1.0  0.32660  0.69421  0.07404  1.0000
  H   H210      1.0  0.08858  0.65972  0.18564  1.0000
  S   S39       1.0  0.16254  0.60592  0.00513  1.0000
  H   H211      1.0  0.23316  0.64444  0.01076  1.0000
  N   N10       1.0  0.27891  0.66890  0.03434  1.0000
  C   C123      1.0  0.07000  0.49053  0.00921  1.0000
  C   C124      1.0  0.03910  0.61355  0.16402  1.0000
  H   H212      1.0  0.07759  0.59751  0.10756  1.0000
  H   H213      1.0  0.25542  0.72983  0.29042  1.0000
  H   H214      1.0  0.13586  0.58117  0.21365  1.0000
  H   H215      1.0  0.07489  0.65976  0.12494  1.0000
  C   C125      1.0  0.30215  0.61116  0.05483  1.0000
  H   H216      1.0  0.27662  0.66766  0.08698  1.0000
  H   H217      1.0  0.25400  0.79503  0.31345  1.0000
  C   C126      1.0  0.02546  0.64193  0.28605  1.0000
  C   C127      1.0  0.32267  0.69866  0.99329  1.0000
  S   S40       1.0  0.24101  0.56461  0.00222  1.0000
  H   H218      1.0  0.33175  0.64438  0.02433  1.0000
  H   H219      1.0  0.22681  0.74642  0.18967  1.0000
  H   H220      1.0  0.06490  0.57502  0.21433  1.0000
  H   H221      1.0  0.12805  0.62303  0.22969  1.0000
  C   C128      1.0  0.30236  0.63815  0.02804  1.0000
  C   C129      1.0  0.11608  0.59770  0.22656  1.0000
  H   H222      1.0  0.34402  0.70333  0.01174  1.0000
  H   H223      1.0  0.11869  0.63753  0.11924  1.0000
  H   H224      1.0  0.11331  0.56700  0.10697  1.0000
  H   H225      1.0  0.06143  0.61833  0.22326  1.0000
  H   H226      1.0  0.32009  0.58992  0.04719  1.0000
  H   H227      1.0  0.23348  0.63944  0.05316  1.0000
  H   H228      1.0  0.11737  0.67822  0.13645  1.0000
  C   C130      1.0  0.08780  0.57483  0.11997  1.0000
  H   H229      1.0  0.26999  0.70743  0.07032  1.0000
  H   H230      1.0  0.09602  0.49663  0.02019  1.0000
  C   C131      1.0  0.23920  0.65781  0.03372  1.0000
  H   H231      1.0  0.08941  0.55467  0.16783  1.0000
  S   S41       1.0  0.16658  0.52372  0.01711  1.0000
  C   C132      1.0  0.10232  0.65407  0.13538  1.0000
  C   C133      1.0  0.09692  0.57893  0.15631  1.0000
  H   H232      1.0  0.12748  0.58054  0.15855  1.0000
  C   C134      1.0  0.23310  0.76757  0.23753  1.0000
  H   H233      1.0  0.26787  0.73248  0.20868  1.0000
  H   H234      1.0  0.03643  0.61989  0.13814  1.0000
  C   C135      1.0  0.28378  0.69462  0.00778  1.0000
  H   H235      1.0  0.34702  0.79497  0.24386  1.0000
  C   C136      1.0  0.23712  0.79164  0.29135  1.0000
  H   H236      1.0  0.06800  0.55407  0.11635  1.0000
  H   H237      1.0  0.32059  0.76100  0.22841  1.0000
  H   H238      1.0  0.21332  0.74819  0.24616  1.0000
  N   N11       1.0  0.25970  0.77645  0.26420  1.0000
  H   H239      1.0  0.31436  0.72514  0.31385  1.0000
  H   H240      1.0  0.21600  0.78949  0.23047  1.0000
  Fe  Fe19      1.0  0.15035  0.65217  0.31618  1.0000
  H   H241      1.0  0.24010  0.84584  0.27989  1.0000
  H   H242      1.0  0.18205  0.67449  0.03511  1.0000
  H   H243      1.0  0.27423  0.82199  0.23925  1.0000
  H   H244      1.0  0.30034  0.81424  0.27467  1.0000
  H   H245      1.0  0.26419  0.77478  0.19236  1.0000
  C   C137      1.0  0.24972  0.75464  0.20558  1.0000
  C   C138      1.0  0.27667  0.74461  0.27738  1.0000
  C   C139      1.0  0.28791  0.80159  0.25327  1.0000
  H   H246      1.0  0.27463  0.71990  0.01606  1.0000
  C   C140      1.0  0.30965  0.74903  0.30063  1.0000
  C   C141      1.0  0.32035  0.78837  0.23236  1.0000
  H   H247      1.0  0.32010  0.80071  0.20830  1.0000
  H   H248      1.0  0.02324  0.56012  0.16124  1.0000
  H   H249      1.0  0.33543  0.75456  0.28740  1.0000
  C   C142      1.0  0.21930  0.82631  0.28499  1.0000
  H   H250      1.0  0.19825  0.82579  0.26565  1.0000
  H   H251      1.0  0.44308  0.92111  0.99363  1.0000
  C   C143      1.0  0.01250  0.58429  0.17058  1.0000
  H   H252      1.0  0.21181  0.70487  0.01775  1.0000
  H   H253      1.0  0.01562  0.62431  0.30391  1.0000
  H   H254      1.0  0.49698  0.93978  0.02600  1.0000
  H   H255      1.0  0.20465  0.83436  0.30731  1.0000
  C   C144      1.0  0.01463  0.67510  0.23773  1.0000
  H   H256      1.0  0.03207  0.51856  0.06724  1.0000
  H   H257      1.0  0.02196  0.56599  0.04224  1.0000
  H   H258      1.0  0.30522  0.76867  0.31910  1.0000
  H   H259      1.0  0.00831  0.48225  0.08055  1.0000
  Fe  Fe20      1.0  0.37788  0.86373  0.46244  1.0000
  S   S42       1.0  0.34550  0.89137  0.50099  1.0000
  S   S43       1.0  0.36331  0.81184  0.44139  1.0000
  Fe  Fe21      1.0  0.44530  0.91117  0.47138  1.0000
  S   S44       1.0  0.41712  0.94020  0.51023  1.0000
  C   C145      1.0  0.29937  0.79475  0.53864  1.0000
  Fe  Fe22      1.0  0.39810  0.89102  0.53023  1.0000
  S   S45       1.0  0.41474  0.87695  0.58186  1.0000
  Fe  Fe23      1.0  0.36820  0.93823  0.47707  1.0000
  H   H260      1.0  0.06852  0.57819  0.39650  1.0000
  S   S46       1.0  0.42956  0.86171  0.49286  1.0000
  S   S47       1.0  0.39725  0.91072  0.43696  1.0000
  C   C146      1.0  0.38817  0.86505  0.61601  1.0000
  H   H261      1.0  0.43628  0.85146  0.64379  1.0000
  S   S48       1.0  0.50431  0.92473  0.45827  1.0000
  H   H262      1.0  0.36450  0.73292  0.54821  1.0000
  H   H263      1.0  0.11943  0.57244  0.47340  1.0000
  C   C147      1.0  0.34966  0.86701  0.61625  1.0000
  H   H264      1.0  0.35740  0.76038  0.59628  1.0000
  H   H265      1.0  0.14589  0.52516  0.50133  1.0000
  H   H266      1.0  0.14727  0.49174  0.41819  1.0000
  H   H267      1.0  0.33528  0.87689  0.59542  1.0000
  C   C148      1.0  0.26806  0.79413  0.39021  1.0000
  C   C149      1.0  0.29579  0.81049  0.40824  1.0000
  C   C150      1.0  0.32744  0.79296  0.41800  1.0000
  C   C151      1.0  0.33082  0.75889  0.40929  1.0000
  C   C152      1.0  0.30313  0.74256  0.39120  1.0000
  H   H268      1.0  0.29259  0.83661  0.41469  1.0000
  H   H269      1.0  0.35512  0.74498  0.41660  1.0000
  H   H270      1.0  0.36059  0.82892  0.55540  1.0000
  C   C153      1.0  0.23682  0.54349  0.37426  1.0000
  C   C154      1.0  0.25130  0.55916  0.40163  1.0000
  C   C155      1.0  0.25321  0.54175  0.43119  1.0000
  C   C156      1.0  0.23969  0.50899  0.43384  1.0000
  H   H271      1.0  0.29203  0.83010  0.57999  1.0000
  C   C157      1.0  0.22250  0.51101  0.37711  1.0000
  H   H272      1.0  0.26603  0.55345  0.45189  1.0000
  C   C158      1.0  0.28618  0.82810  0.55388  1.0000
  S   S49       1.0  0.24663  0.48637  0.47013  1.0000
  H   H273      1.0  0.05989  0.52578  0.55321  1.0000
  C   C159      1.0  0.04832  0.51313  0.53246  1.0000
  H   H274      1.0  0.12198  0.54807  0.36141  1.0000
  H   H275      1.0  0.26289  0.58399  0.39961  1.0000
  C   C160      1.0  0.33353  0.77569  0.58780  1.0000
  H   H276      1.0  0.40705  0.79118  0.58051  1.0000
  C   C161      1.0  0.12103  0.49015  0.40494  1.0000
  C   C162      1.0  0.36552  0.80426  0.54359  1.0000
  C   C163      1.0  0.34132  0.74651  0.53629  1.0000
  H   H277      1.0  0.49264  0.94753  0.38425  1.0000
  C   C164      1.0  0.32974  0.85637  0.64365  1.0000
  H   H278      1.0  0.30197  0.80005  0.51232  1.0000
  S   S50       1.0  0.24107  0.56161  0.33551  1.0000
  H   H279      1.0  0.27643  0.77637  0.53986  1.0000
  H   H280      1.0  0.30632  0.71642  0.38480  1.0000
  H   H281      1.0  0.12640  0.49076  0.37854  1.0000
  H   H282      1.0  0.33680  0.79989  0.60075  1.0000
  H   H283      1.0  0.49876  0.93547  0.56381  1.0000
  H   H284      1.0  0.08700  0.53940  0.47657  1.0000
  H   H285      1.0  0.37543  0.75935  0.49370  1.0000
  H   H286      1.0  0.33752  0.96522  0.40346  1.0000
  Fe  Fe24      1.0  0.22109  0.69091  0.33375  1.0000
  H   H287      1.0  0.36610  0.81007  0.51728  1.0000
  S   S51       1.0  0.23545  0.74117  0.35831  1.0000
  C   C165      1.0  0.34927  0.74651  0.49965  1.0000
  H   H288      1.0  0.08585  0.60114  0.42993  1.0000
  C   C166      1.0  0.13575  0.56870  0.37449  1.0000
  H   H289      1.0  0.01794  0.58853  0.43113  1.0000
  H   H290      1.0  0.16356  0.57174  0.36370  1.0000
  N   N12       1.0  0.33490  0.78036  0.55162  1.0000
  H   H291      1.0  0.42476  0.81173  0.54584  1.0000
  H   H292      1.0  0.04103  0.57473  0.46662  1.0000
  N   N13       1.0  0.10523  0.54953  0.42769  1.0000
  C   C167      1.0  0.07569  0.57594  0.42257  1.0000
  C   C168      1.0  0.13966  0.56167  0.41100  1.0000
  C   C169      1.0  0.11225  0.54730  0.46356  1.0000
  C   C170      1.0  0.09154  0.51656  0.41450  1.0000
  H   H293      1.0  0.35236  0.72022  0.49120  1.0000
  H   H294      1.0  0.33154  0.49031  0.38088  1.0000
  C   C171      1.0  0.22325  0.49412  0.40693  1.0000
  C   C172      1.0  0.03869  0.57022  0.44023  1.0000
  H   H295      1.0  0.30174  0.75547  0.62768  1.0000
  H   H296      1.0  0.21138  0.49868  0.35600  1.0000
  H   H297      1.0  0.16299  0.54395  0.41378  1.0000
  H   H298      1.0  0.14959  0.58524  0.42246  1.0000
  C   C173      1.0  0.40449  0.79276  0.55385  1.0000
  H   H299      1.0  0.16969  0.52767  0.46395  1.0000
  C   C174      1.0  0.46371  0.95526  0.37962  1.0000
  H   H300      1.0  0.07493  0.52101  0.39226  1.0000
  H   H301      1.0  0.45125  0.93543  0.36437  1.0000
  C   C175      1.0  0.27140  0.76005  0.38160  1.0000
  H   H302      1.0  0.25570  0.83005  0.55184  1.0000
  H   H303      1.0  0.41272  0.76870  0.54255  1.0000
  H   H304      1.0  0.32642  0.75773  0.48547  1.0000
  C   C176      1.0  0.01386  0.52355  0.52035  1.0000
  H   H305      1.0  0.13409  0.49627  0.47060  1.0000
  H   H306      1.0  0.29876  0.84984  0.54149  1.0000
  H   H307      1.0  0.27356  0.77398  0.59724  1.0000
  H   H308      1.0  0.12071  0.59256  0.37004  1.0000
  H   H309      1.0  0.07257  0.50447  0.43207  1.0000
  H   H310      1.0  0.31691  0.73018  0.53984  1.0000
  S   S52       1.0  0.19021  0.64848  0.35770  1.0000
  H   H311      1.0  0.24373  0.80803  0.38300  1.0000
  H   H312      1.0  0.29480  0.73326  0.59065  1.0000
  C   C177      1.0  0.14239  0.52261  0.47478  1.0000
  C   C178      1.0  0.29870  0.75855  0.60110  1.0000
  C   C179      1.0  0.40649  0.85299  0.64366  1.0000
  C   C180      1.0  0.06783  0.48618  0.51817  1.0000
  H   H313      1.0  0.49645  0.89216  0.55434  1.0000
  H   H314      1.0  0.44834  0.95547  0.40272  1.0000
  S   S53       1.0  0.08908  0.64334  0.32179  1.0000
  H   H315      1.0  0.29995  0.85782  0.64360  1.0000
  Fe  Fe25      1.0  0.22277  0.61492  0.32448  1.0000
  H   H316      1.0  0.02745  0.54488  0.43580  1.0000
  C   C181      1.0  0.38661  0.84272  0.67119  1.0000
  C   C182      1.0  0.32808  0.56351  0.84884  1.0000
  H   H317      1.0  0.26545  0.60892  0.82744  1.0000
  S   S54       1.0  0.18054  0.55544  0.94403  1.0000
  H   H318      1.0  0.22728  0.58431  0.89021  1.0000
  Fe  Fe26      1.0  0.20897  0.59866  0.96866  1.0000
  S   S55       1.0  0.25154  0.63349  0.94436  1.0000
  H   H319      1.0  0.34240  0.57078  0.82617  1.0000
  C   C183      1.0  0.26969  0.52773  0.89434  1.0000
  N   N14       1.0  0.46864  0.90746  0.92788  1.0000
  C   C184      1.0  0.43070  0.90715  0.94303  1.0000
  Fe  Fe27      1.0  0.36944  0.85350  0.81845  1.0000
  S   S56       1.0  0.38248  0.80416  0.84249  1.0000
  S   S57       1.0  0.38813  0.90471  0.83689  1.0000
  Fe  Fe28      1.0  0.34496  0.81938  0.75513  1.0000
  S   S58       1.0  0.35559  0.76740  0.77470  1.0000
  S   S59       1.0  0.32165  0.83004  0.70475  1.0000
  Fe  Fe29      1.0  0.32905  0.78519  0.82123  1.0000
  S   S60       1.0  0.28215  0.75687  0.84768  1.0000
  Fe  Fe30      1.0  0.40771  0.78988  0.79453  1.0000
  S   S61       1.0  0.46488  0.76670  0.79290  1.0000
  S   S62       1.0  0.31445  0.83613  0.79996  1.0000
  S   S63       1.0  0.39867  0.84018  0.77210  1.0000
  C   C185      1.0  0.37010  0.92947  0.86884  1.0000
  C   C186      1.0  0.33972  0.91958  0.88724  1.0000
  C   C187      1.0  0.32749  0.93963  0.91328  1.0000
  H   H320      1.0  0.48726  0.80420  0.68136  1.0000
  H   H321      1.0  0.48381  0.86446  0.95780  1.0000
  C   C188      1.0  0.38800  0.95955  0.87669  1.0000
  H   H322      1.0  0.32568  0.89649  0.88147  1.0000
  H   H323      1.0  0.27577  0.56417  0.93372  1.0000
  H   H324      1.0  0.23860  0.63332  0.85479  1.0000
  H   H325      1.0  0.45563  0.95951  0.91719  1.0000
  C   C189      1.0  0.25131  0.58370  0.87343  1.0000
  H   H326      1.0  0.33040  0.67648  0.97848  1.0000
  C   C190      1.0  0.25918  0.66763  0.91704  1.0000
  C   C191      1.0  0.23040  0.68686  0.90406  1.0000
  C   C192      1.0  0.23808  0.71384  0.88294  1.0000
  C   C193      1.0  0.27455  0.72208  0.87429  1.0000
  C   C194      1.0  0.30332  0.70267  0.88718  1.0000
  C   C195      1.0  0.29565  0.67574  0.90838  1.0000
  H   H327      1.0  0.20219  0.68115  0.91035  1.0000
  H   H328      1.0  0.21553  0.72857  0.87321  1.0000
  H   H329      1.0  0.33150  0.70851  0.88083  1.0000
  H   H330      1.0  0.31826  0.66107  0.91802  1.0000
  H   H331      1.0  0.47864  0.86548  0.75467  1.0000
  H   H332      1.0  0.34655  0.54657  0.86278  1.0000
  H   H333      1.0  0.44717  0.79029  0.72809  1.0000
  N   N15       1.0  0.26075  0.54799  0.86442  1.0000
  C   C196      1.0  0.02030  0.50341  0.97246  1.0000
  C   C197      1.0  0.47999  0.94357  0.92338  1.0000
  H   H334      1.0  0.28453  0.50412  0.88795  1.0000
  C   C198      1.0  0.29171  0.54582  0.84018  1.0000
  C   C199      1.0  0.46585  0.89031  0.89552  1.0000
  H   H335      1.0  0.44748  0.90510  0.87937  1.0000
  H   H336      1.0  0.20212  0.48688  0.83148  1.0000
  S   S64       1.0  0.07654  0.54949  0.97365  1.0000
  H   H337      1.0  0.21912  0.54632  0.82662  1.0000
  H   H338      1.0  0.20256  0.53574  0.86575  1.0000
  H   H339      1.0  0.49260  0.88954  0.88268  1.0000
  H   H340      1.0  0.26581  0.68882  0.98669  1.0000
  H   H341      1.0  0.28277  0.55470  0.81588  1.0000
  C   C200      1.0  0.48730  0.86701  0.80548  1.0000
  H   H342      1.0  0.46793  0.83749  0.91177  1.0000
  C   C201      1.0  0.49223  0.77450  0.75847  1.0000
  H   H343      1.0  0.32438  0.58731  0.86211  1.0000
  H   H344      1.0  0.42176  0.85319  0.90287  1.0000
  H   H345      1.0  0.24388  0.51964  0.90660  1.0000
  C   C202      1.0  0.45130  0.85410  0.89595  1.0000
  C   C203      1.0  0.47672  0.78677  0.72982  1.0000
  C   C204      1.0  0.37618  0.97924  0.90302  1.0000
  C   C205      1.0  0.34579  0.96941  0.92146  1.0000
  H   H346      1.0  0.24903  0.49132  0.81964  1.0000
  C   C206      1.0  0.49460  0.88936  0.95044  1.0000
  H   H347      1.0  0.30387  0.93184  0.92732  1.0000
  H   H348      1.0  0.27375  0.59584  0.88715  1.0000
  C   C207      1.0  0.29248  0.54492  0.92097  1.0000
  H   H349      1.0  0.40951  0.91532  0.92528  1.0000
  C   C208      1.0  0.49949  0.79462  0.70338  1.0000
  H   H350      1.0  0.45294  0.84364  0.87111  1.0000
  H   H351      1.0  0.49103  0.95394  0.94627  1.0000
  C   C209      1.0  0.22675  0.53298  0.84925  1.0000
  C   C210      1.0  0.34806  0.84420  0.67129  1.0000
  H   H352      1.0  0.41152  0.96743  0.86259  1.0000
  C   C211      1.0  0.24252  0.60757  0.84509  1.0000
  H   H353      1.0  0.47884  0.84181  0.81408  1.0000
  H   H354      1.0  0.32251  0.72045  0.97655  1.0000
  H   H355      1.0  0.21645  0.60105  0.83273  1.0000
  H   H356      1.0  0.42275  0.88131  0.95024  1.0000
  H   H357      1.0  0.40107  0.83330  0.69219  1.0000
  H   H358      1.0  0.46287  0.88397  0.80587  1.0000
  H   H359      1.0  0.30028  0.52594  0.93944  1.0000
  H   H360      1.0  0.29948  0.51918  0.83581  1.0000
  H   H361      1.0  0.48837  0.92439  0.74934  1.0000
  H   H362      1.0  0.08399  0.49196  0.91278  1.0000
  H   H363      1.0  0.31817  0.55626  0.91195  1.0000
  C   C212      1.0  0.50299  0.86379  0.77091  1.0000
  H   H364      1.0  0.49254  0.86778  0.70335  1.0000
  H   H365      1.0  0.39621  0.92677  0.98172  1.0000
  H   H366      1.0  0.17383  0.48532  0.92292  1.0000
  H   H367      1.0  0.50656  0.92935  0.78853  1.0000
  C   C213      1.0  0.22955  0.49552  0.83993  1.0000
  H   H368      1.0  0.49645  0.90290  0.97379  1.0000
  Fe  Fe31      1.0  0.13759  0.55888  0.98355  1.0000
  C   C214      1.0  0.42521  0.92920  0.97338  1.0000
  H   H369      1.0  0.42932  0.95623  0.96838  1.0000
  Fe  Fe32      1.0  0.21040  0.52225  0.97902  1.0000
  H   H370      1.0  0.49642  0.94803  0.87236  1.0000
  H   H371      1.0  0.50613  0.91105  0.69793  1.0000
  C   C215      1.0  0.05465  0.51177  0.98584  1.0000
  H   H372      1.0  0.00809  0.51955  0.95433  1.0000
  H   H373      1.0  0.52993  0.23316  0.24401  1.0000
  H   H374      1.0  0.76418  0.21774  0.30000  1.0000
  Fe  Fe33      1.0  0.86532  0.36056  0.02013  1.0000
  H   H375      1.0  0.70088  0.38641  0.05897  1.0000
  S   S65       1.0  0.83397  0.31368  0.03795  1.0000
  Fe  Fe34      1.0  0.85856  0.43683  0.01604  1.0000
  H   H376      1.0  0.82710  0.27836  0.22496  1.0000
  H   H377      1.0  0.80962  0.24556  0.27145  1.0000
  S   S66       1.0  0.89082  0.40269  0.04871  1.0000
  Fe  Fe35      1.0  0.73024  0.19601  0.17506  1.0000
  S   S67       1.0  0.74207  0.14019  0.17566  1.0000
  S   S68       1.0  0.77366  0.23692  0.16452  1.0000
  Fe  Fe36      1.0  0.65203  0.18497  0.20276  1.0000
  S   S69       1.0  0.65791  0.12907  0.20411  1.0000
  S   S70       1.0  0.59946  0.21183  0.21795  1.0000
  Fe  Fe37      1.0  0.71406  0.13942  0.22460  1.0000
  S   S71       1.0  0.73543  0.10695  0.26607  1.0000
  Fe  Fe38      1.0  0.68491  0.13420  0.15550  1.0000
  S   S72       1.0  0.66644  0.10213  0.11299  1.0000
  S   S73       1.0  0.70679  0.19531  0.22591  1.0000
  S   S74       1.0  0.67438  0.18997  0.15221  1.0000
  C   C216      1.0  0.68937  0.01537  0.06538  1.0000
  H   H378      1.0  0.84151  0.24280  0.20246  1.0000
  H   H379      1.0  0.74479  0.00196  0.13027  1.0000
  C   C217      1.0  0.57274  0.04331  0.14231  1.0000
  C   C218      1.0  0.68670  0.06299  0.10263  1.0000
  C   C219      1.0  0.67630  0.04756  0.07353  1.0000
  H   H380      1.0  0.68104  0.00380  0.04292  1.0000
  C   C220      1.0  0.71411  0.99872  0.08578  1.0000
  C   C221      1.0  0.72533  0.01446  0.11452  1.0000
  C   C222      1.0  0.71140  0.04633  0.12311  1.0000
  H   H381      1.0  0.65817  0.06069  0.05711  1.0000
  C   C223      1.0  0.75957  0.43218  0.06365  1.0000
  H   H382      1.0  0.73380  0.47469  0.04020  1.0000
  H   H383      1.0  0.71976  0.05799  0.14552  1.0000
  H   H384      1.0  0.82741  0.42491  0.09603  1.0000
  H   H385      1.0  0.76803  0.35202  0.02780  1.0000
  C   C224      1.0  0.57057  0.19366  0.24746  1.0000
  C   C225      1.0  0.57959  0.16319  0.26229  1.0000
  C   C226      1.0  0.55503  0.14853  0.28442  1.0000
  C   C227      1.0  0.83881  0.25268  0.22735  1.0000
  H   H386      1.0  0.60548  0.15092  0.25674  1.0000
  C   C228      1.0  0.79796  0.17855  0.27693  1.0000
  C   C229      1.0  0.81751  0.29298  0.07367  1.0000
  C   C230      1.0  0.79097  0.26751  0.07054  1.0000
  C   C231      1.0  0.77701  0.25034  0.09785  1.0000
  C   C232      1.0  0.78955  0.25818  0.12892  1.0000
  C   C233      1.0  0.81608  0.28370  0.13208  1.0000
  C   C234      1.0  0.82997  0.30093  0.10477  1.0000
  H   H387      1.0  0.78116  0.26086  0.04673  1.0000
  H   H388      1.0  0.75680  0.23078  0.09477  1.0000
  H   H389      1.0  0.82621  0.29005  0.15585  1.0000
  H   H390      1.0  0.85067  0.32005  0.10777  1.0000
  H   H391      1.0  0.82431  0.13012  0.19668  1.0000
  H   H392      1.0  0.57190  0.15951  0.17599  1.0000
  N   N16       1.0  0.82413  0.19556  0.25377  1.0000
  H   H393      1.0  0.60157  0.10847  0.05764  1.0000
  C   C235      1.0  0.52115  0.16403  0.29162  1.0000
  H   H394      1.0  0.80712  0.12637  0.23674  1.0000
  C   C236      1.0  0.86344  0.19215  0.26515  1.0000
  H   H395      1.0  0.86035  0.23656  0.29784  1.0000
  H   H396      1.0  0.77618  0.44955  0.07871  1.0000
  H   H397      1.0  0.88332  0.19828  0.24550  1.0000
  H   H398      1.0  0.68424  0.37923  0.11548  1.0000
  H   H399      1.0  0.80795  0.40532  0.13163  1.0000
  C   C237      1.0  0.57340  0.10139  0.04962  1.0000
  H   H400      1.0  0.55580  0.12634  0.20220  1.0000
  C   C238      1.0  0.69498  0.40512  0.11790  1.0000
  H   H401      1.0  0.55306  0.11529  0.06439  1.0000
  H   H402      1.0  0.86995  0.16553  0.27090  1.0000
  H   H403      1.0  0.70240  0.16311  0.30144  1.0000
  H   H404      1.0  0.55152  0.05500  0.03002  1.0000
  H   H405      1.0  0.74708  0.38574  0.13163  1.0000
  H   H406      1.0  0.54559  0.05159  0.15173  1.0000
  C   C239      1.0  0.72497  0.45210  0.05383  1.0000
  H   H407      1.0  0.77614  0.42799  0.04136  1.0000
  H   H408      1.0  0.70671  0.43769  0.03758  1.0000
  H   H409      1.0  0.72122  0.35132  0.01573  1.0000
  C   C240      1.0  0.58782  0.99179  0.07436  1.0000
  H   H410      1.0  0.74595  0.38961  0.01215  1.0000
  H   H411      1.0  0.77207  0.17142  0.26428  1.0000
  H   H412      1.0  0.86649  0.25511  0.23839  1.0000
  C   C241      1.0  0.52198  0.13435  0.15815  1.0000
  H   H413      1.0  0.60728  0.99508  0.09472  1.0000
  H   H414      1.0  0.59609  0.05234  0.04504  1.0000
  C   C242      1.0  0.72913  0.37608  0.06195  1.0000
  C   C243      1.0  0.82761  0.13973  0.22170  1.0000
  C   C244      1.0  0.53701  0.20949  0.25522  1.0000
  N   N17       1.0  0.55442  0.04893  0.08229  1.0000
  H   H415      1.0  0.56223  0.12494  0.29571  1.0000
  C   C245      1.0  0.51680  0.06296  0.09050  1.0000
  H   H416      1.0  0.57442  0.01557  0.14230  1.0000
  C   C246      1.0  0.74236  0.36717  0.02756  1.0000
  H   H417      1.0  0.68741  0.41392  0.14251  1.0000
  H   H418      1.0  0.78679  0.35691  0.09515  1.0000
  H   H419      1.0  0.86981  0.19707  0.31773  1.0000
  H   H420      1.0  0.58216  0.08588  0.11176  1.0000
  C   C247      1.0  0.55881  0.13451  0.17676  1.0000
  H   H421      1.0  0.84348  0.38493  0.10922  1.0000
  H   H422      1.0  0.84092  0.18832  0.20368  1.0000
  Fe  Fe39      1.0  0.93407  0.40519  0.00938  1.0000
  H   H423      1.0  0.57850  0.11691  0.16502  1.0000
  N   N18       1.0  0.75336  0.39951  0.08102  1.0000
  H   H424      1.0  0.70962  0.46124  0.07522  1.0000
  C   C248      1.0  0.81841  0.40088  0.10684  1.0000
  C   C249      1.0  0.82107  0.17804  0.22151  1.0000
  H   H425      1.0  0.52868  0.14208  0.13299  1.0000
  H   H426      1.0  0.74738  0.42959  0.12461  1.0000
  H   H427      1.0  0.78466  0.23276  0.23735  1.0000
  C   C250      1.0  0.58094  0.05819  0.10872  1.0000
  H   H428      1.0  0.68063  0.42155  0.10043  1.0000
  H   H429      1.0  0.72578  0.35199  0.07529  1.0000
  H   H430      1.0  0.79330  0.18244  0.21083  1.0000
  C   C251      1.0  0.79040  0.38254  0.08506  1.0000
  H   H431      1.0  0.51259  0.10798  0.15612  1.0000
  H   H432      1.0  0.88457  0.46806  0.08155  1.0000
  S   S75       1.0  0.83065  0.39512  0.98888  1.0000
  C   C252      1.0  0.72327  0.11291  0.30733  1.0000
  C   C253      1.0  0.56856  0.06297  0.05090  1.0000
  H   H433      1.0  0.60946  0.05078  0.10216  1.0000
  H   H434      1.0  0.53690  0.00035  0.10018  1.0000
  H   H435      1.0  0.80446  0.37916  0.06140  1.0000
  C   C254      1.0  0.73740  0.40544  0.11440  1.0000
  H   H436      1.0  0.90429  0.21825  0.29408  1.0000
  H   H437      1.0  0.60169  0.99813  0.05131  1.0000
  H   H438      1.0  0.85591  0.13291  0.22941  1.0000
  H   H439      1.0  0.80992  0.15451  0.28595  1.0000
  C   C255      1.0  0.81265  0.23158  0.24848  1.0000
  H   H440      1.0  0.59405  0.05227  0.15952  1.0000
  C   C256      1.0  0.55130  0.01142  0.07902  1.0000
  C   C257      1.0  0.87450  0.21209  0.29552  1.0000
  H   H441      1.0  0.51867  0.08898  0.09978  1.0000
  S   S76       1.0  0.99489  0.41581  0.01858  1.0000
  H   H442      1.0  0.52629  0.19653  0.18950  1.0000
  H   H443      1.0  0.53376  0.00506  0.05805  1.0000
  C   C258      1.0  0.78521  0.19864  0.30682  1.0000
  C   C259      1.0  0.51221  0.19460  0.27698  1.0000
  H   H444      1.0  0.56912  0.11017  0.02440  1.0000
  H   H445      1.0  0.51818  0.19862  0.14793  1.0000
  C   C260      1.0  0.70836  0.14320  0.31842  1.0000
  H   H446      1.0  0.80789  0.21071  0.32004  1.0000
  C   C261      1.0  0.83156  0.47428  0.62030  1.0000
  Fe  Fe40      1.0  0.62980  0.07635  0.49957  1.0000
  S   S77       1.0  0.66917  0.05029  0.46632  1.0000
  S   S78       1.0  0.56812  0.06801  0.49528  1.0000
  Fe  Fe41      1.0  0.69249  0.11510  0.53492  1.0000
  S   S79       1.0  0.73583  0.09075  0.50375  1.0000
  S   S80       1.0  0.70123  0.15122  0.57748  1.0000
  Fe  Fe42      1.0  0.69707  0.10029  0.46164  1.0000
  S   S81       1.0  0.70554  0.13213  0.41620  1.0000
  Fe  Fe43      1.0  0.70316  0.04308  0.51162  1.0000
  H   H447      1.0  0.78466  0.44290  0.42720  1.0000
  S   S82       1.0  0.65538  0.12698  0.49298  1.0000
  S   S83       1.0  0.66207  0.06692  0.54488  1.0000
  C   C262      1.0  0.71058  0.12295  0.37437  1.0000
  C   C263      1.0  0.70285  0.14840  0.35178  1.0000
  H   H448      1.0  0.60383  0.09092  0.36839  1.0000
  H   H449      1.0  0.57796  0.14319  0.47767  1.0000
  C   C264      1.0  0.69450  0.98517  0.58543  1.0000
  C   C265      1.0  0.72398  0.09211  0.36317  1.0000
  H   H450      1.0  0.69281  0.17246  0.36018  1.0000
  C   C266      1.0  0.83521  0.47324  0.43010  1.0000
  H   H451      1.0  0.73043  0.07242  0.38024  1.0000
  C   C267      1.0  0.55119  0.02776  0.48559  1.0000
  N   N19       1.0  0.56953  0.13994  0.40988  1.0000
  H   H452      1.0  0.86815  0.47917  0.36831  1.0000
  H   H453      1.0  0.81303  0.14373  0.62864  1.0000
  C   C268      1.0  0.79598  0.22157  0.60885  1.0000
  C   C269      1.0  0.79983  0.20114  0.58124  1.0000
  C   C270      1.0  0.77078  0.18050  0.57051  1.0000
  C   C271      1.0  0.73747  0.17958  0.58756  1.0000
  C   C272      1.0  0.73357  0.20004  0.61514  1.0000
  C   C273      1.0  0.76248  0.22101  0.62564  1.0000
  C   C274      1.0  0.60379  0.16621  0.36161  1.0000
  H   H454      1.0  0.77434  0.16508  0.54923  1.0000
  H   H455      1.0  0.70805  0.19949  0.62866  1.0000
  H   H456      1.0  0.58228  0.06712  0.40070  1.0000
  S   S84       1.0  0.87954  0.33118  0.63806  1.0000
  H   H457      1.0  0.80599  0.46655  0.36992  1.0000
  C   C275      1.0  0.82606  0.42156  0.59199  1.0000
  C   C276      1.0  0.82872  0.43920  0.62111  1.0000
  H   H458      1.0  0.69393  0.09234  0.64379  1.0000
  C   C277      1.0  0.56441  0.16559  0.46714  1.0000
  H   H459      1.0  0.52111  0.03644  0.40757  1.0000
  H   H460      1.0  0.57504  0.02410  0.56624  1.0000
  H   H461      1.0  0.62832  0.13047  0.41305  1.0000
  H   H462      1.0  0.68597  0.01095  0.58292  1.0000
  N   N20       1.0  0.77166  0.08011  0.62304  1.0000
  C   C278      1.0  0.92395  0.44683  0.53121  1.0000
  C   C279      1.0  0.93340  0.42350  0.59735  1.0000
  H   H463      1.0  0.93972  0.41904  0.65029  1.0000
  H   H464      1.0  0.93809  0.38039  0.62913  1.0000
  H   H465      1.0  0.60195  0.10790  0.44128  1.0000
  H   H466      1.0  0.74242  0.06383  0.32157  1.0000
  C   C280      1.0  0.76598  0.11179  0.64239  1.0000
  H   H467      1.0  0.57390  0.18770  0.48109  1.0000
  C   C281      1.0  0.79521  0.06113  0.56671  1.0000
  H   H468      1.0  0.61389  0.18723  0.37661  1.0000
  S   S85       1.0  0.72582  0.99128  0.52451  1.0000
  H   H469      1.0  0.74690  0.12891  0.62938  1.0000
  H   H470      1.0  0.82354  0.39456  0.59232  1.0000
  H   H471      1.0  0.78104  0.47785  0.45503  1.0000
  C   C282      1.0  0.82533  0.43906  0.56240  1.0000
  C   C283      1.0  0.53458  0.12147  0.41760  1.0000
  C   C284      1.0  0.60189  0.11686  0.41587  1.0000
  H   H472      1.0  0.54587  0.17014  0.37148  1.0000
  C   C285      1.0  0.54216  0.00497  0.36994  1.0000
  H   H473      1.0  0.53420  0.16369  0.47081  1.0000
  H   H474      1.0  0.68071  0.05092  0.63306  1.0000
  H   H475      1.0  0.95501  0.47219  0.63945  1.0000
  H   H476      1.0  0.81560  0.04223  0.57504  1.0000
  H   H477      1.0  0.51097  0.99362  0.41269  1.0000
  H   H478      1.0  0.80746  0.44194  0.46532  1.0000
  C   C286      1.0  0.79971  0.45862  0.44487  1.0000
  C   C287      1.0  0.73493  0.06443  0.61508  1.0000
  H   H479      1.0  0.81763  0.10036  0.59558  1.0000
  S   S86       1.0  0.83449  0.24584  0.62186  1.0000
  H   H480      1.0  0.76904  0.04857  0.56026  1.0000
  H   H481      1.0  0.90799  0.47721  0.41672  1.0000
  H   H482      1.0  0.85035  0.45114  0.42012  1.0000
  H   H483      1.0  0.77339  0.10976  0.57926  1.0000
  H   H484      1.0  0.82238  0.42532  0.54003  1.0000
  H   H485      1.0  0.94829  0.43200  0.52376  1.0000
  C   C288      1.0  0.57409  0.17043  0.43113  1.0000
  H   H486      1.0  0.60385  0.99814  0.59087  1.0000
  H   H487      1.0  0.60310  0.17946  0.43038  1.0000
  N   N21       1.0  0.94985  0.45707  0.58918  1.0000
  H   H488      1.0  0.55752  0.19208  0.42217  1.0000
  H   H489      1.0  0.60341  0.00690  0.47077  1.0000
  C   C289      1.0  0.51152  0.01388  0.39439  1.0000
  C   C290      1.0  0.57429  0.00231  0.47384  1.0000
  C   C291      1.0  0.79656  0.05537  0.63999  1.0000
  H   H490      1.0  0.72248  0.07659  0.59337  1.0000
  H   H491      1.0  0.82548  0.06446  0.64126  1.0000
  H   H492      1.0  0.82555  0.20134  0.56800  1.0000
  C   C292      1.0  0.82822  0.47416  0.56164  1.0000
  H   H493      1.0  0.90305  0.42606  0.60067  1.0000
  C   C293      1.0  0.56797  0.15099  0.37508  1.0000
  H   H494      1.0  0.55996  0.12995  0.35896  1.0000
  H   H495      1.0  0.59845  0.17632  0.33704  1.0000
  H   H496      1.0  0.93645  0.40522  0.57738  1.0000
  H   H497      1.0  0.53169  0.09944  0.40147  1.0000
  C   C294      1.0  0.78975  0.08973  0.59152  1.0000
  H   H498      1.0  0.53550  0.11023  0.44223  1.0000
  H   H499      1.0  0.62576  0.14697  0.35912  1.0000
  H   H500      1.0  0.61216  0.00202  0.54783  1.0000
  C   C295      1.0  0.93211  0.47134  0.55906  1.0000
  H   H501      1.0  0.75901  0.23639  0.64695  1.0000
  H   H502      1.0  0.91468  0.46147  0.50984  1.0000
  H   H503      1.0  0.77175  0.18132  0.32412  1.0000
  H   H504      1.0  0.99305  0.40465  0.56306  1.0000
  H   H505      1.0  0.80638  0.07191  0.54400  1.0000
  H   H506      1.0  0.90097  0.42980  0.53755  1.0000
  C   C296      1.0  0.60424  0.08519  0.39456  1.0000
  C   C297      1.0  0.73080  0.08734  0.32987  1.0000
  H   H507      1.0  0.91083  0.47998  0.62237  1.0000
  H   H508      1.0  0.73864  0.03755  0.60859  1.0000
  C   C298      1.0  0.99122  0.45551  0.58561  1.0000
  H   H509      1.0  0.54701  0.02544  0.35238  1.0000
  H   H510      1.0  0.63096  0.07237  0.39946  1.0000
  H   H511      1.0  0.00527  0.45255  0.60937  1.0000
  C   C299      1.0  0.51344  0.02132  0.48932  1.0000
  C   C300      1.0  0.70446  0.06628  0.64106  1.0000
  H   H512      1.0  0.79901  0.03193  0.62557  1.0000
  C   C301      1.0  0.59066  0.00004  0.56681  1.0000
  H   H513      1.0  0.56837  0.00094  0.38334  1.0000
  C   C302      1.0  0.94893  0.40628  0.62786  1.0000
  H   H514      1.0  0.97939  0.40399  0.62747  1.0000
  C   C303      1.0  0.80094  0.13194  0.65045  1.0000
  H   H515      1.0  0.00183  0.47991  0.57677  1.0000
  H   H516      1.0  0.53638  0.98141  0.35676  1.0000
  C   C304      1.0  0.94094  0.48040  0.61690  1.0000
  H   H517      1.0  0.67401  0.98087  0.63417  1.0000
  Fe  Fe44      1.0  0.84839  0.31804  0.72709  1.0000
  S   S87       1.0  0.88407  0.28026  0.70080  1.0000
  S   S88       1.0  0.82958  0.31176  0.77953  1.0000
  C   C305      1.0  0.74143  0.43399  0.75588  1.0000
  H   H518      1.0  0.91372  0.29764  0.90987  1.0000
  H   H519      1.0  0.76176  0.34966  0.74528  1.0000
  H   H520      1.0  0.73539  0.37368  0.83922  1.0000
  Fe  Fe45      1.0  0.91462  0.32514  0.68236  1.0000
  S   S89       1.0  0.97592  0.33494  0.68023  1.0000
  S   S90       1.0  0.80770  0.32295  0.68594  1.0000
  S   S91       1.0  0.88183  0.36190  0.71150  1.0000
  H   H521      1.0  0.97100  0.27174  0.71447  1.0000
  H   H522      1.0  0.68556  0.41133  0.75843  1.0000
  S   S92       1.0  0.88458  0.39918  0.89934  1.0000
  H   H523      1.0  0.98839  0.33843  0.78322  1.0000
  H   H524      1.0  0.71608  0.39923  0.70315  1.0000
  H   H525      1.0  0.70434  0.38579  0.80780  1.0000
  C   C306      1.0  0.84472  0.33635  0.81271  1.0000
  C   C307      1.0  0.86828  0.36358  0.80846  1.0000
  C   C308      1.0  0.87944  0.38277  0.83524  1.0000
  C   C309      1.0  0.86773  0.37479  0.86668  1.0000
  C   C310      1.0  0.84385  0.34776  0.87099  1.0000
  C   C311      1.0  0.83217  0.32884  0.84406  1.0000
  H   H526      1.0  0.87801  0.36986  0.78455  1.0000
  H   H527      1.0  0.89772  0.40377  0.83160  1.0000
  H   H528      1.0  0.83445  0.34139  0.89502  1.0000
  H   H529      1.0  0.81365  0.30800  0.84761  1.0000
  H   H530      1.0  0.78844  0.37781  0.80239  1.0000
  H   H531      1.0  0.77295  0.06368  0.68914  1.0000
  N   N22       1.0  0.76140  0.40129  0.76145  1.0000
  C   C312      1.0  0.80031  0.40489  0.74894  1.0000
  C   C313      1.0  0.74419  0.37263  0.74313  1.0000
  C   C314      1.0  0.55469  0.00448  0.97856  1.0000
  H   H532      1.0  0.90315  0.25711  0.77188  1.0000
  C   C315      1.0  0.73151  0.37417  0.81259  1.0000
  H   H533      1.0  0.81523  0.38043  0.75031  1.0000
  H   H534      1.0  0.93385  0.23527  0.79818  1.0000
  H   H535      1.0  0.82720  0.42633  0.79247  1.0000
  H   H536      1.0  0.76503  0.02247  0.67224  1.0000
  C   C316      1.0  0.78476  0.04360  0.67389  1.0000
  C   C317      1.0  0.70000  0.43489  0.76413  1.0000
  H   H537      1.0  0.81457  0.45698  0.76188  1.0000
  H   H538      1.0  0.82193  0.11661  0.66319  1.0000
  H   H539      1.0  0.68617  0.45420  0.74896  1.0000
  H   H540      1.0  0.75394  0.45425  0.77063  1.0000
  C   C318      1.0  0.82457  0.43106  0.76618  1.0000
  H   H541      1.0  0.72519  0.35588  0.69602  1.0000
  H   H542      1.0  0.93161  0.33413  0.89123  1.0000
  H   H543      1.0  0.76754  0.41678  0.81155  1.0000
  Fe  Fe46      1.0  0.84423  0.36488  0.66851  1.0000
  C   C319      1.0  0.00337  0.31654  0.71048  1.0000
  C   C320      1.0  0.99937  0.37922  0.92479  1.0000
  H   H544      1.0  0.71726  0.36520  0.75337  1.0000
  C   C321      1.0  0.92754  0.29014  0.85924  1.0000
  H   H545      1.0  0.89217  0.25525  0.81365  1.0000
  C   C322      1.0  0.93662  0.29067  0.80070  1.0000
  H   H546      1.0  0.90013  0.29997  0.85168  1.0000
  C   C323      1.0  0.73674  0.37901  0.70690  1.0000
  C   C324      1.0  0.76374  0.39346  0.79717  1.0000
  C   C325      1.0  0.93484  0.30647  0.89242  1.0000
  H   H547      1.0  0.76202  0.38485  0.69309  1.0000
  H   H548      1.0  0.97508  0.46852  0.97194  1.0000
  H   H549      1.0  0.96207  0.29990  0.90257  1.0000
  H   H550      1.0  0.74512  0.44307  0.73061  1.0000
  H   H551      1.0  0.57105  0.02263  0.96556  1.0000
  H   H552      1.0  0.91653  0.31125  0.79592  1.0000
  H   H553      1.0  0.92346  0.26286  0.86357  1.0000
  C   C326      1.0  0.91549  0.25749  0.79645  1.0000
  Fe  Fe47      1.0  0.87887  0.39595  0.95444  1.0000
  N   N23       1.0  0.95564  0.29572  0.83283  1.0000
  H   H554      1.0  0.73157  0.34759  0.80453  1.0000
  H   H555      1.0  0.94563  0.34907  0.83010  1.0000
  H   H556      1.0  0.95659  0.29171  0.78046  1.0000
  C   C327      1.0  0.96916  0.33140  0.83352  1.0000
  H   H557      1.0  0.80049  0.41207  0.72307  1.0000
  H   H558      1.0  0.75187  0.10709  0.66564  1.0000
  H   H559      1.0  0.99758  0.37442  0.95120  1.0000
  H   H560      1.0  0.85286  0.42957  0.75590  1.0000
  C   C328      1.0  0.00139  0.47448  0.98255  1.0000
  H   H561      1.0  0.97556  0.24459  0.83621  1.0000
  H   H562      1.0  0.98080  0.33833  0.85726  1.0000
  S   S93       1.0  0.82689  0.41888  0.65908  1.0000
  H   H563      1.0  0.97078  0.38469  0.91656  1.0000
  Fe  Fe48      1.0  0.84583  0.28835  0.65816  1.0000
  H   H564      1.0  0.80956  0.03492  0.68731  1.0000
  C   C329      1.0  0.99518  0.28488  0.72286  1.0000
  S   S94       1.0  0.90287  0.44140  0.97874  1.0000
  C   C330      1.0  0.98664  0.27048  0.83512  1.0000
  H   H565      1.0  0.79323  0.15301  0.66674  1.0000
  H   H566      1.0  0.71339  0.05647  0.66476  1.0000
  C   C331      1.0  0.99881  0.34032  0.80831  1.0000
  H   H567      1.0  0.69562  0.44129  0.78998  1.0000
  C   C332      1.0  0.51777  0.01189  0.98601  1.0000
  H   H568      1.0  0.00302  0.25830  0.88487  1.0000
  H   H569      1.0  0.00357  0.27009  0.81275  1.0000
  S   S95       1.0  0.91238  0.35939  0.98376  1.0000
  Fe  Fe49      1.0  0.87910  0.61746  0.17228  1.0000
  S   S96       1.0  0.90479  0.66394  0.15193  1.0000
  S   S97       1.0  0.89342  0.56592  0.15190  1.0000
  Fe  Fe50      1.0  0.85431  0.65354  0.23373  1.0000
  S   S98       1.0  0.87820  0.70276  0.21753  1.0000
  S   S99       1.0  0.82544  0.65008  0.28274  1.0000
  Fe  Fe51      1.0  0.85368  0.69165  0.16851  1.0000
  S   S100      1.0  0.83713  0.73745  0.13740  1.0000
  Fe  Fe52      1.0  0.92700  0.67208  0.20177  1.0000
  S   S101      1.0  0.98601  0.68967  0.20632  1.0000
  S   S102      1.0  0.82594  0.64401  0.18577  1.0000
  S   S103      1.0  0.90509  0.62401  0.22134  1.0000
  Fe  Fe53      1.0  0.63037  0.90131  0.01369  1.0000
  C   C333      1.0  0.78067  0.83412  0.16879  1.0000
  Fe  Fe54      1.0  0.69065  0.84970  0.03383  1.0000
  H   H570      1.0  0.91976  0.51312  0.01153  1.0000
  S   S104      1.0  0.70050  0.79836  0.05749  1.0000
  Fe  Fe55      1.0  0.70416  0.92512  0.03908  1.0000
  H   H571      1.0  0.91906  0.58638  0.03482  1.0000
  S   S105      1.0  0.66100  0.89139  0.05982  1.0000
  H   H572      1.0  0.81127  0.85700  0.11439  1.0000
  H   H573      1.0  0.81097  0.83648  0.16589  1.0000
  C   C334      1.0  0.79864  0.75347  0.11519  1.0000
  C   C335      1.0  0.76432  0.73766  0.11465  1.0000
  C   C336      1.0  0.73470  0.75180  0.09697  1.0000
  C   C337      1.0  0.73877  0.78202  0.07979  1.0000
  C   C338      1.0  0.77316  0.79772  0.08014  1.0000
  C   C339      1.0  0.80282  0.78349  0.09765  1.0000
  H   H574      1.0  0.76056  0.71456  0.12789  1.0000
  H   H575      1.0  0.70836  0.73923  0.09675  1.0000
  H   H576      1.0  0.77705  0.82060  0.06663  1.0000
  H   H577      1.0  0.82930  0.79581  0.09765  1.0000
  C   C340      1.0  0.87249  0.54297  0.12036  1.0000
  C   C341      1.0  0.88657  0.51094  0.11323  1.0000
  H   H578      1.0  0.74463  0.76128  0.99752  1.0000
  C   C342      1.0  0.84483  0.50561  0.06766  1.0000
  C   C343      1.0  0.83004  0.53734  0.07520  1.0000
  C   C344      1.0  0.84395  0.55609  0.10137  1.0000
  H   H579      1.0  0.93933  0.54750  0.98845  1.0000
  H   H580      1.0  0.96362  0.61452  0.01527  1.0000
  H   H581      1.0  0.80815  0.54770  0.06045  1.0000
  H   H582      1.0  0.83288  0.58074  0.10663  1.0000
  H   H583      1.0  0.67307  0.87687  0.14405  1.0000
  H   H584      1.0  0.97477  0.64175  0.25862  1.0000
  H   H585      1.0  0.99580  0.57821  0.09309  1.0000
  C   C345      1.0  0.80235  0.76741  0.00511  1.0000
  H   H586      1.0  0.72198  0.89118  0.10407  1.0000
  C   C346      1.0  0.54996  0.95025  0.00492  1.0000
  H   H587      1.0  0.94777  0.50786  0.07209  1.0000
  H   H588      1.0  0.74436  0.85296  0.11124  1.0000
  C   C347      1.0  0.98951  0.73916  0.28852  1.0000
  H   H589      1.0  0.90853  0.50055  0.12789  1.0000
  C   C348      1.0  0.97158  0.51936  0.05938  1.0000
  C   C349      1.0  0.57071  0.97376  0.98787  1.0000
  C   C350      1.0  0.99423  0.56882  0.03114  1.0000
  C   C351      1.0  0.94999  0.72488  0.28964  1.0000
  H   H590      1.0  0.80866  0.90998  0.15159  1.0000
  H   H591      1.0  0.95289  0.61891  0.11294  1.0000
  H   H592      1.0  0.58157  0.96460  0.07306  1.0000
  H   H593      1.0  0.78140  0.92905  0.12115  1.0000
  C   C352      1.0  0.87299  0.49243  0.08695  1.0000
  H   H594      1.0  0.70599  0.91114  0.17508  1.0000
  H   H595      1.0  0.89148  0.54706  0.99886  1.0000
  C   C353      1.0  0.75098  0.94414  0.18424  1.0000
  H   H596      1.0  0.91567  0.60412  0.08906  1.0000
  H   H597      1.0  0.69850  0.83940  0.15612  1.0000
  S   S106      1.0  0.73559  0.88277  0.01532  1.0000
  H   H598      1.0  0.89380  0.61266  0.29452  1.0000
  C   C354      1.0  0.96662  0.57390  0.08597  1.0000
  H   H599      1.0  0.68032  0.84332  0.11640  1.0000
  S   S107      1.0  0.73232  0.95874  0.07575  1.0000
  C   C355      1.0  0.92664  0.55989  0.03945  1.0000
  H   H600      1.0  0.83296  0.89428  0.10033  1.0000
  C   C356      1.0  0.94603  0.60770  0.08917  1.0000
  H   H601      1.0  0.76885  0.82165  0.14743  1.0000
  H   H602      1.0  0.73165  0.96449  0.19159  1.0000
  S   S108      1.0  0.65513  0.85597  0.98922  1.0000
  C   C357      1.0  0.99194  0.60566  0.02024  1.0000
  S   S109      1.0  0.67184  0.93772  0.99429  1.0000
  H   H603      1.0  0.73815  0.86346  0.19241  1.0000
  C   C358      1.0  0.80596  0.88305  0.10664  1.0000
  S   S110      1.0  0.56866  0.91107  0.01654  1.0000
  C   C359      1.0  0.86854  0.73206  0.30949  1.0000
  H   H604      1.0  0.82222  0.78805  0.00902  1.0000
  H   H605      1.0  0.90578  0.55122  0.05716  1.0000
  H   H606      1.0  0.75745  0.80315  0.00623  1.0000
  C   C360      1.0  0.69338  0.85759  0.13637  1.0000
  H   H607      1.0  0.78207  0.88097  0.19320  1.0000
  H   H608      1.0  0.78925  0.88313  0.08413  1.0000
  N   N24       1.0  0.75283  0.89070  0.14860  1.0000
  C   C361      1.0  0.73050  0.91993  0.16143  1.0000
  C   C362      1.0  0.72933  0.87334  0.12373  1.0000
  C   C363      1.0  0.78730  0.90453  0.13304  1.0000
  C   C364      1.0  0.76249  0.86821  0.17668  1.0000
  H   H609      1.0  0.77458  0.95653  0.17220  1.0000
  H   H610      1.0  0.87261  0.74207  0.28479  1.0000
  H   H611      1.0  0.94870  0.70370  0.27210  1.0000
  H   H612      1.0  0.97402  0.50566  0.03615  1.0000
  H   H613      1.0  0.71938  0.93537  0.14114  1.0000
  H   H614      1.0  0.76035  0.93159  0.20669  1.0000
  H   H615      1.0  0.99218  0.76238  0.30300  1.0000
  N   N25       1.0  0.96474  0.55630  0.05370  1.0000
  H   H616      1.0  0.77524  0.81634  0.18887  1.0000
  H   H617      1.0  0.95464  0.55782  0.10531  1.0000
  C   C365      1.0  0.00229  0.65180  0.26046  1.0000
  H   H618      1.0  0.95361  0.62617  0.07054  1.0000
  C   C366      1.0  0.51308  0.95769  0.01248  1.0000
  C   C367      1.0  0.84536  0.63227  0.31805  1.0000
  H   H619      1.0  0.79740  0.75589  0.02915  1.0000
  H   H620      1.0  0.93233  0.74490  0.27910  1.0000
  C   C368      1.0  0.91957  0.54065  0.00774  1.0000
  H   H621      1.0  0.99597  0.74600  0.26311  1.0000
  S   S111      1.0  0.82812  0.48332  0.03376  1.0000
  H   H622      1.0  0.95288  0.66256  0.31580  1.0000
  C   C369      1.0  0.87946  0.61572  0.31725  1.0000
  H   H623      1.0  0.89450  0.68509  0.29753  1.0000
  C   C370      1.0  0.76537  0.78077  0.99157  1.0000
  C   C371      1.0  0.89625  0.70373  0.31753  1.0000
  H   H624      1.0  0.81492  0.74767  0.98978  1.0000
  H   H625      1.0  0.99623  0.55314  0.00914  1.0000
  H   H626      1.0  0.98567  0.58948  0.15858  1.0000
  H   H627      1.0  0.84025  0.72149  0.30991  1.0000
  C   C372      1.0  0.00638  0.51003  0.07902  1.0000
  H   H628      1.0  0.00625  0.58201  0.19675  1.0000
  H   H629      1.0  0.00500  0.51946  0.10419  1.0000
  H   H630      1.0  0.00656  0.60818  0.99674  1.0000
  H   H631      1.0  0.00539  0.62238  0.03808  1.0000
  Fe  Fe56      1.0  0.85355  0.54645  0.51981  1.0000
  S   S112      1.0  0.88229  0.57535  0.55895  1.0000
  C   C373      1.0  0.60267  0.89242  0.60396  1.0000
  Fe  Fe57      1.0  0.88484  0.59089  0.46501  1.0000
  S   S113      1.0  0.91575  0.62225  0.50097  1.0000
  S   S114      1.0  0.89963  0.59222  0.41117  1.0000
  Fe  Fe58      1.0  0.93136  0.57358  0.52515  1.0000
  H   H632      1.0  0.56575  0.93424  0.61249  1.0000
  Fe  Fe59      1.0  0.86335  0.62138  0.53115  1.0000
  S   S115      1.0  0.84022  0.67257  0.54862  1.0000
  S   S116      1.0  0.90318  0.54274  0.48818  1.0000
  S   S117      1.0  0.83180  0.59208  0.49341  1.0000
  H   H633      1.0  0.83872  0.72365  0.63115  1.0000
  C   C374      1.0  0.99938  0.50683  0.49353  1.0000
  C   C375      1.0  0.94012  0.74283  0.34577  1.0000
  H   H634      1.0  0.60827  0.89204  0.50825  1.0000
  H   H635      1.0  0.57765  0.95135  0.45638  1.0000
  N   N26       1.0  0.57988  0.93600  0.56128  1.0000
  C   C376      1.0  0.69832  0.93428  0.61831  1.0000
  C   C377      1.0  0.71570  0.91781  0.59256  1.0000
  C   C378      1.0  0.55134  0.91260  0.54756  1.0000
  C   C379      1.0  0.91745  0.74161  0.37755  1.0000
  S   S118      1.0  0.82659  0.49550  0.52415  1.0000
  H   H636      1.0  0.88510  0.69015  0.33863  1.0000
  H   H637      1.0  0.72421  0.89194  0.59521  1.0000
  C   C380      1.0  0.83187  0.49166  0.59073  1.0000
  C   C381      1.0  0.80732  0.68796  0.57742  1.0000
  C   C382      1.0  0.79640  0.66938  0.60445  1.0000
  C   C383      1.0  0.82734  0.80826  0.62057  1.0000
  H   H638      1.0  0.80662  0.76918  0.65068  1.0000
  C   C384      1.0  0.77104  0.73580  0.59823  1.0000
  C   C385      1.0  0.79407  0.72115  0.57440  1.0000
  H   H639      1.0  0.80638  0.64395  0.60735  1.0000
  C   C386      1.0  0.76134  0.71761  0.62586  1.0000
  H   H640      1.0  0.80223  0.73585  0.55366  1.0000
  C   C387      1.0  0.95158  0.51748  0.61207  1.0000
  H   H641      1.0  0.76168  0.76144  0.59560  1.0000
  C   C388      1.0  0.89520  0.60322  0.34596  1.0000
  C   C389      1.0  0.87733  0.60738  0.37587  1.0000
  C   C390      1.0  0.84311  0.62371  0.37674  1.0000
  C   C391      1.0  0.82719  0.63598  0.34792  1.0000
  C   C392      1.0  0.78882  0.54053  0.43766  1.0000
  H   H642      1.0  0.92170  0.59064  0.34502  1.0000
  H   H643      1.0  0.82909  0.62719  0.39958  1.0000
  H   H644      1.0  0.80087  0.64888  0.34881  1.0000
  H   H645      1.0  0.56145  0.88640  0.54618  1.0000
  H   H646      1.0  0.58894  0.87261  0.58988  1.0000
  H   H647      1.0  0.51762  0.90426  0.59140  1.0000
  C   C393      1.0  0.68757  0.96794  0.61445  1.0000
  S   S119      1.0  0.66803  0.81685  0.64267  1.0000
  H   H648      1.0  0.57110  0.66395  0.64111  1.0000
  C   C394      1.0  0.83095  0.78590  0.65080  1.0000
  C   C395      1.0  0.86476  0.73777  0.62890  1.0000
  H   H649      1.0  0.96307  0.68773  0.38554  1.0000
  C   C396      1.0  0.79306  0.51695  0.35425  1.0000
  C   C397      1.0  0.62728  0.90141  0.52719  1.0000
  H   H650      1.0  0.82906  0.55457  0.40179  1.0000
  H   H651      1.0  0.86694  0.52375  0.36919  1.0000
  H   H652      1.0  0.73804  0.92283  0.54435  1.0000
  H   H653      1.0  0.52539  0.74509  0.60881  1.0000
  H   H654      1.0  0.77362  0.48783  0.39403  1.0000
  C   C398      1.0  0.64671  0.71549  0.63192  1.0000
  H   H655      1.0  0.81692  0.51934  0.33768  1.0000
  H   H656      1.0  0.63304  0.89029  0.60103  1.0000
  H   H657      1.0  0.83382  0.51869  0.59049  1.0000
  C   C399      1.0  0.65728  0.72546  0.59711  1.0000
  C   C400      1.0  0.59838  0.67152  0.63124  1.0000
  N   N27       1.0  0.93578  0.71415  0.32238  1.0000
  C   C401      1.0  0.56368  0.97099  0.56020  1.0000
  C   C402      1.0  0.72357  0.93542  0.56379  1.0000
  H   H658      1.0  0.64654  0.75081  0.59103  1.0000
  H   H659      1.0  0.78213  0.56772  0.43645  1.0000
  H   H660      1.0  0.61142  0.94496  0.60473  1.0000
  C   C403      1.0  0.95789  0.68381  0.33271  1.0000
  C   C404      1.0  0.51421  0.91146  0.56571  1.0000
  H   H661      1.0  0.94339  0.53195  0.63387  1.0000
  H   H662      1.0  0.59588  0.88660  0.62954  1.0000
  H   H663      1.0  0.65586  0.73692  0.64714  1.0000
  H   H664      1.0  0.79121  0.53329  0.46350  1.0000
  H   H665      1.0  0.89111  0.69241  0.61123  1.0000
  C   C405      1.0  0.58210  0.73157  0.61990  1.0000
  H   H666      1.0  0.54520  0.91944  0.52200  1.0000
  H   H667      1.0  0.78537  0.54198  0.36392  1.0000
  H   H668      1.0  0.65459  0.90476  0.51546  1.0000
  H   H669      1.0  0.93628  0.74122  0.39871  1.0000
  H   H670      1.0  0.97327  0.51455  0.48359  1.0000
  C   C406      1.0  0.61414  0.93557  0.54045  1.0000
  N   N28       1.0  0.83097  0.50004  0.40450  1.0000
  H   H671      1.0  0.98793  0.68863  0.33164  1.0000
  H   H672      1.0  0.90330  0.52191  0.42217  1.0000
  H   H673      1.0  0.85221  0.48258  0.45064  1.0000
  H   H674      1.0  0.84750  0.82902  0.62075  1.0000
  H   H675      1.0  0.84749  0.53903  0.43754  1.0000
  H   H676      1.0  0.89879  0.72005  0.38003  1.0000
  H   H677      1.0  0.64815  0.70724  0.57877  1.0000
  H   H678      1.0  0.90065  0.79490  0.62105  1.0000
  H   H679      1.0  0.83005  0.79370  0.59787  1.0000
  H   H680      1.0  0.53203  0.73557  0.65023  1.0000
  C   C407      1.0  0.77376  0.68417  0.62849  1.0000
  C   C408      1.0  0.82542  0.53404  0.41968  1.0000
  H   H681      1.0  0.90026  0.76463  0.37987  1.0000
  H   H682      1.0  0.66482  0.69400  0.63886  1.0000
  H   H683      1.0  0.63091  0.88223  0.54614  1.0000
  H   H684      1.0  0.76469  0.52811  0.42689  1.0000
  H   H685      1.0  0.62927  0.65305  0.58907  1.0000
  H   H686      1.0  0.96965  0.74531  0.35276  1.0000
  H   H687      1.0  0.96591  0.64626  0.37002  1.0000
  H   H688      1.0  0.53056  0.70215  0.62031  1.0000
  C   C409      1.0  0.95127  0.67064  0.36720  1.0000
  C   C410      1.0  0.89634  0.71171  0.63007  1.0000
  C   C411      1.0  0.54026  0.72787  0.62547  1.0000
  S   S120      1.0  0.98951  0.55686  0.53978  1.0000
  H   H689      1.0  0.61808  0.65489  0.64428  1.0000
  H   H690      1.0  0.58262  0.63805  0.59225  1.0000
  C   C412      1.0  0.58915  0.92820  0.59602  1.0000
  H   H691      1.0  0.61008  0.95153  0.51860  1.0000
  C   C413      1.0  0.52191  0.96425  0.46979  1.0000
  H   H692      1.0  0.86456  0.74796  0.60388  1.0000
  N   N29       1.0  0.60663  0.70772  0.63846  1.0000
  H   H693      1.0  0.93697  0.52905  0.59136  1.0000
  H   H694      1.0  0.93297  0.76699  0.33370  1.0000
  H   H695      1.0  0.68779  0.72688  0.59535  1.0000
  H   H696      1.0  0.63782  0.94670  0.55364  1.0000
  H   H697      1.0  0.92596  0.50562  0.38745  1.0000
  H   H698      1.0  0.54085  0.97389  0.57799  1.0000
  C   C414      1.0  0.71340  0.96932  0.56020  1.0000
  H   H699      1.0  0.76652  0.66974  0.64966  1.0000
  C   C415      1.0  0.90261  0.50140  0.40433  1.0000
  H   H700      1.0  0.58950  0.75792  0.62575  1.0000
  H   H701      1.0  0.92345  0.72286  0.62430  1.0000
  C   C416      1.0  0.60059  0.66023  0.59567  1.0000
  C   C417      1.0  0.80029  0.49128  0.38148  1.0000
  C   C418      1.0  0.89953  0.78671  0.64677  1.0000
  H   H702      1.0  0.92516  0.77156  0.64967  1.0000
  H   H703      1.0  0.98172  0.52072  0.60904  1.0000
  H   H704      1.0  0.92195  0.66582  0.37262  1.0000
  H   H705      1.0  0.90508  0.48326  0.56492  1.0000
  H   H706      1.0  0.83336  0.48814  0.64270  1.0000
  H   H707      1.0  0.58994  0.67890  0.57830  1.0000
  C   C419      1.0  0.55965  0.97077  0.46578  1.0000
  H   H708      1.0  0.58642  0.72975  0.59348  1.0000
  C   C420      1.0  0.86624  0.50109  0.38495  1.0000
  H   H709      1.0  0.79941  0.81992  0.62039  1.0000
  H   H710      1.0  0.86905  0.75276  0.32725  1.0000
  H   H711      1.0  0.55099  0.97601  0.53621  1.0000
  H   H712      1.0  0.94912  0.49185  0.54879  1.0000
  H   H713      1.0  0.76947  0.50828  0.33939  1.0000
  H   H714      1.0  0.89761  0.69826  0.65346  1.0000
  C   C421      1.0  0.77285  0.75764  0.93683  1.0000
  S   S121      1.0  0.72972  0.82923  0.70135  1.0000
  H   H715      1.0  0.81075  0.73906  0.69670  1.0000
  Fe  Fe60      1.0  0.62682  0.81035  0.68282  1.0000
  S   S122      1.0  0.64420  0.85549  0.71033  1.0000
  S   S123      1.0  0.56597  0.80358  0.67300  1.0000
  H   H716      1.0  0.53396  0.93592  0.89883  1.0000
  Fe  Fe61      1.0  0.68317  0.82178  0.73716  1.0000
  S   S124      1.0  0.67626  0.81587  0.79199  1.0000
  H   H717      1.0  0.68831  0.78105  0.98293  1.0000
  S   S125      1.0  0.66308  0.77588  0.71112  1.0000
  C   C422      1.0  0.56472  0.88740  0.78374  1.0000
  H   H718      1.0  0.62057  0.66701  0.69671  1.0000
  S   S126      1.0  0.72363  0.89216  0.92134  1.0000
  C   C423      1.0  0.72726  0.80380  0.94866  1.0000
  C   C424      1.0  0.59942  0.71353  0.67400  1.0000
  C   C425      1.0  0.68776  0.83984  0.82685  1.0000
  C   C426      1.0  0.71591  0.86363  0.82681  1.0000
  C   C427      1.0  0.72595  0.87988  0.85580  1.0000
  C   C428      1.0  0.70754  0.87316  0.88503  1.0000
  C   C429      1.0  0.67859  0.85016  0.88485  1.0000
  C   C430      1.0  0.66917  0.83329  0.85605  1.0000
  H   H719      1.0  0.73062  0.86884  0.80466  1.0000
  H   H720      1.0  0.74840  0.89760  0.85562  1.0000
  H   H721      1.0  0.66402  0.84478  0.90703  1.0000
  H   H722      1.0  0.64741  0.81488  0.85641  1.0000
  C   C431      1.0  0.53792  0.79110  0.70568  1.0000
  H   H723      1.0  0.73203  0.74264  0.90023  1.0000
  H   H724      1.0  0.51688  0.97786  0.89889  1.0000
  H   H725      1.0  0.57080  0.70648  0.68072  1.0000
  H   H726      1.0  0.56475  0.95436  0.76632  1.0000
  H   H727      1.0  0.72324  0.82767  0.96217  1.0000
  C   C432      1.0  0.62485  0.69446  0.69776  1.0000
  H   H728      1.0  0.65443  0.70021  0.69409  1.0000
  N   N30       1.0  0.53180  0.88891  0.76143  1.0000
  S   S127      1.0  0.73631  0.73589  0.65886  1.0000
  H   H729      1.0  0.58825  0.90168  0.77342  1.0000
  C   C433      1.0  0.55343  0.77872  0.73425  1.0000
  C   C434      1.0  0.79888  0.82710  0.91497  1.0000
  Fe  Fe62      1.0  0.69855  0.89175  0.97212  1.0000
  H   H730      1.0  0.55515  0.85470  0.72635  1.0000
  C   C435      1.0  0.79355  0.81552  0.95013  1.0000
  H   H731      1.0  0.52949  0.87802  0.67710  1.0000
  H   H732      1.0  0.84339  0.71913  0.72264  1.0000
  H   H733      1.0  0.52392  0.97627  0.75435  1.0000
  H   H734      1.0  0.80310  0.75270  0.93611  1.0000
  H   H735      1.0  0.58301  0.77609  0.73642  1.0000
  H   H736      1.0  0.54280  0.76081  0.78255  1.0000
  H   H737      1.0  0.54738  0.86346  0.95280  1.0000
  Fe  Fe63      1.0  0.70654  0.78519  0.67321  1.0000
  H   H738      1.0  0.77818  0.74152  0.88672  1.0000
  H   H739      1.0  0.58815  0.83828  0.76907  1.0000
  S   S128      1.0  0.69113  0.91500  0.65643  1.0000
  Fe  Fe64      1.0  0.68845  0.86028  0.67243  1.0000
  H   H740      1.0  0.81847  0.84839  0.91468  1.0000
  H   H741      1.0  0.92159  0.81091  0.69040  1.0000
  H   H742      1.0  0.54670  0.94992  0.72572  1.0000
  H   H743      1.0  0.60504  0.85434  0.80636  1.0000
  H   H744      1.0  0.75548  0.78087  0.88934  1.0000
  H   H745      1.0  0.53774  0.87768  0.91362  1.0000
  C   C436      1.0  0.53485  0.88473  0.93928  1.0000
  C   C437      1.0  0.53061  0.77003  0.76038  1.0000
  H   H746      1.0  0.76040  0.73561  0.94918  1.0000
  C   C438      1.0  0.51621  0.88492  0.70041  1.0000
  H   H747      1.0  0.77315  0.83656  0.90382  1.0000
  H   H748      1.0  0.69806  0.75508  0.94808  1.0000
  N   N31       1.0  0.76472  0.78910  0.95594  1.0000
  H   H749      1.0  0.56005  0.83675  0.80523  1.0000
  C   C439      1.0  0.75850  0.75641  0.90157  1.0000
  H   H750      1.0  0.72452  0.81125  0.92309  1.0000
  H   H751      1.0  0.59906  0.96831  0.98172  1.0000
  H   H752      1.0  0.55129  0.90751  0.94441  1.0000
  H   H753      1.0  0.55888  0.89996  0.80720  1.0000
  H   H754      1.0  0.81125  0.80699  0.89991  1.0000
  H   H755      1.0  0.60174  0.74063  0.67987  1.0000
  H   H756      1.0  0.78738  0.83830  0.96488  1.0000
  H   H757      1.0  0.51302  0.83780  0.76728  1.0000
  C   C440      1.0  0.57989  0.85201  0.79123  1.0000
  C   C441      1.0  0.54494  0.88094  0.72769  1.0000
  C   C442      1.0  0.69412  0.78115  0.95657  1.0000
  H   H758      1.0  0.66907  0.79137  0.94456  1.0000
  H   H759      1.0  0.82125  0.80664  0.95790  1.0000
  H   H760      1.0  0.56922  0.89639  0.72103  1.0000
  C   C443      1.0  0.50857  0.95117  0.89678  1.0000
  H   H761      1.0  0.89619  0.73940  0.69123  1.0000
  C   C444      1.0  0.53933  0.95228  0.75161  1.0000
  H   H762      1.0  0.61791  0.70248  0.72277  1.0000
  C   C445      1.0  0.51467  0.92332  0.76321  1.0000
  H   H763      1.0  0.82639  0.80202  0.67239  1.0000
  C   C446      1.0  0.83851  0.72723  0.69732  1.0000
  H   H764      1.0  0.83848  0.70423  0.68229  1.0000
  H   H765      1.0  0.86824  0.77271  0.70527  1.0000
  H   H766      1.0  0.50759  0.87606  0.82328  1.0000
  C   C447      1.0  0.90470  0.81755  0.66890  1.0000
  H   H767      1.0  0.87850  0.82880  0.67738  1.0000
  C   C448      1.0  0.86906  0.75193  0.68730  1.0000
  N   N32       1.0  0.86612  0.76563  0.65347  1.0000
  H   H768      1.0  0.91883  0.83768  0.65520  1.0000
