data_image0
_chemical_formula_structural       FeS2FeS2FeSFeS3H2FeSHSFeS2FeS2FeSFeS3CSNSHSCNHC8H4CHC2HC3H3CHC6H4C6H4CHC2H2C2H7C2HCHCH5CHCH3C3H2CHCHCH2C3HCH6CHSCH3FeH5C2HCHFeC2H5CHCH2CH3CH4NHNC8H16CH5FeCNC8H20NH2CH7CSH5CH3SFeH2CHCSH4CSH2CFeSFeS2FeS2FeSFeS3CHCHFeSFeS2FeS2FeSFeS3C2H2NC3H5CHC6H4C6H5C2H3C2H2C6H7CH7C4H6CHCH2CH4C2HC3H7NHCH5C2H2C2H4CH3NCH2CH2CHCHSH2NHCHCH4CHCH5CH4C2H3C3H3CH4CH2CNCH2CHCHCH2CHC2SC2HCH4CH4CH2CHCHCHSHFeSHSFeS2FeS2FeSFeS3FeS2FeS2FeSFeS3FeSCH2C2H2C3HC2HC2H2C7H4C6H4CH3C2HCH2C6H4C2H5C3NH7CHCH2C2H4NH2CH2NC2H2CH4CHNC8H21NH2CHCH2NHCH3CH2CH2C2HC2H3CSH2C3H4CHCH5CHSH2CH3CH3CHSH2FeCH2CH9C2HFeSFeS2CFeS2FeS2FeSFeS3FeS2FeS2FeSFeS3FeSFeS3HC3HC6H4C3H2C2NH2C6H5CNHC3H2C7H6CH2NHC2HC2H2CH4CH3FeH2CH2CH3SHCHC3HCSH7C2HC2H4C2H7CHCHCHCH20CH2NH4CH2CHC2HC3H2CH3C2H5NH4SCHSCHCHFeH5SFeS2CFeS2FeS2FeSFeS3FeS2FeS2FeSFeS3H2FeSNH2CNC4HC2H3C6H4C6H8C4H2C6H4CHCH2NC7HCH16C2H4CHC2H4C2HCH6CH2NH2C2H5C3H2CHFeHC3SCH2CH3CHCH4CH3CHNH3CH2C2H3NC5SCH7CH4C2H4C2H6CHCH10CH5CSH4CHCH4SH2SCFeSH2FeS2FeS2FeSFeS4H2SHSFeS2FeS2FeSFeS3C3H3C2H2C6H6FeC7H4C2H3CHCH2C6H5NCH2C3H9NH6CH2C3H4C2H4CH2CH3C3NH4CH2CHCH2SHCH8CHCH4CH4C2H2C2H2NCH3C3HCHCHCHCH4C2HCSCH2C3HCFeH3CNCHNCH8CFeCHCH8CHCHC2H8CHNHC4HCNHCSCHCFeSFeS2FeS2FeSFeS3FeSFeSHSFeS2FeS2FeSFeS3HC2H3CSH2C6H7CHC8H4C2H3C2H3C6H4C3H3CHC3H3CH9NCH3CHCHCH2CHC2HCH2CHCHCH3C2H2CH3CHCHC2HCHCHC2HNHCSNHCH3SHNC4H4CH7CH10FeH2CH5NC8H20NCHCHCH3C2HCH3CH2FeH3CH2CH2CHCH2CHCH3FeSFeSCSFeSFeS3FeS2FeS2FeSFeS3FeS2FeS2FeSFeS3HC2HNC3H2C6H4CNH2C3H2C7H5CHCH2C6H4CHC2HNC4HC3H8CH5CH9CH4C2HCHCH3NH2CH15C2HCH7C2H2CH15CH2CNC4H2CH8CHC4H7NC3HC2H10CH2CH3SH6C4H7CHC3HCHCHC2H2CHC4HCH4SCFeS2FeS2FeSFeS3H2FeSH2NSHSFeSFeS2FeS2FeSFeS3C2H2C4H2C6H5C3H3C7H4C6H7CSHC2H2NC7H17NC4H10CNC4HC2H10CHCH3CH2C2NC4H3CH15CH4CH2NH3C2H2C2H8C2H2C4H3CHCHCH2CH3CHSH4CH3CH4CHCHCHFeH6CHC6NH3SCH4SH4CFeCH3CH3C2H4CH2CHSHSFeSHSFeSHSFeS2FeS2FeSFeS3FeS2FeS2FeSFeS3HC2H3C2H2C6H4CH2CHC3H2C6H4FeCH2C7H5C2HC2H3SHCH5C2SHNH2C2H6CH5NHC3HC3HC2H6CH11C2H5C6H3CHCH9N2C8H14CNH4CH6CH2CHFeHCH7C2HCH3CH3FeS2FeS2FeSFeS4HFeSFeSFeS2FeS2FeSFeS3FeSH2SCHCHCHC6H4CH3NC3H3SHCH2NC6H4C6H4C2FeCHC2H3CH5CH5CH2CH4CH4CH2CH2CH2CH8C2H3CH4C2H3C2HCH4C3H6NHC2HCSCNC8H20CH4C2HCH3CH2CH3CH2CNHCHCSHC4H5CH3CH2NHCHFeS2FeS2FeSFeS3FeSHNS2FeS2FeS2FeSFeS3FeSCS3CH4C6H4CH5C3H3C9H4C6H4C3H2C3H2NC8H23C2H3CH4CH5NHNCH3FeCH4C3H8C3H5C2HCH2CH3CHCHNHCHC5HC2H4CH6CHCH3NC6H10CH9CHNC2H5CHSCHFeCHCH5CH4CHC2H2CH5CHC2H4CH2CH3CHC2SHFeSH2FeS2FeS2FeSFeS3FeS2FeS2FeSFeS3HSFeS2C2H2C6H4C3H3C2H2C6H5C2H2C2H3C6H4NCH4CH4C2HNHNC6HCH5CH2C3HCH7FeH2NH5CH2CHCH5NC8H19CH9SHC2HCH2CH4CH2CHNC4HC3H10CH10CHCH2C4HCH5CH3CH3CHCHC4H4SCH4SH4SFeS2FeS2FeSFeS3HSHSFeSFeS2FeS2FeSFeS3C2H2CHCH3C6H4C2H2C6H4C2H3C3HC7H4C2H3NC8H22FeHCH3NCHC3H8CH8NC2H2CSCHCH8C3H3CHCH2CH4CH2CH3CH3C2HC3HC2FeH2CHC2HCH2CNH3NS2HCHFeH2CH3FeH4CH2C2H3CH2FeSHSFeS2FeS2FeSFeS5H2FeSFeS2FeS2FeSFeS3HC2H3CHCHC6H6CHCH2C6H4C3H2CH4C6H4CH6CSC2H3CH2CHC2H3SHC3HCNC7H17NC8H12CH10C2H3C2H8C2H2CNHC2NFeHCH4CH4CH2CSH3C2FeCH4C4HNHCHNCH3C2H2FeH2SH6FeS2HFeSH2SHFeS2FeS2FeSFeS3FeS2FeS2FeSFeS3CHCHCH4C7H4CNH3CH4C6H5CNCH2C6H6CHCNC3HC3H12C2HCH8C2HC3SH4CH5C2HCSCH4CH3CH4CHCH2CHC2H2CH4CSH2CH4CHCNCHC3H2NHC3HCH7CH4CH6CH2NFeHC2HC2H2SH2CHC4HCH4CH3
_chemical_formula_sum              "Fe192 S384 H2304 C1344 N96"
_cell_length_a       66.4695
_cell_length_b       66.5158
_cell_length_c       66.4542
_cell_angle_alpha    87.5566
_cell_angle_beta     87.4512
_cell_angle_gamma    87.6351

_space_group_name_H-M_alt    "P 1"
_space_group_IT_number       1

loop_
  _space_group_symop_operation_xyz
  'x, y, z'

loop_
  _atom_site_type_symbol
  _atom_site_label
  _atom_site_symmetry_multiplicity
  _atom_site_fract_x
  _atom_site_fract_y
  _atom_site_fract_z
  _atom_site_occupancy
  Fe  Fe1       1.0  0.35919  0.08705  0.26378  1.0000
  S   S1        1.0  0.35614  0.07754  0.23177  1.0000
  S   S2        1.0  0.33284  0.07951  0.28645  1.0000
  Fe  Fe2       1.0  0.40401  0.09744  0.25407  1.0000
  S   S3        1.0  0.40330  0.08867  0.22195  1.0000
  S   S4        1.0  0.43249  0.10814  0.26766  1.0000
  Fe  Fe3       1.0  0.37311  0.10551  0.22189  1.0000
  S   S5        1.0  0.36097  0.12920  0.19844  1.0000
  Fe  Fe4       1.0  0.38657  0.06161  0.23470  1.0000
  S   S6        1.0  0.40000  0.02993  0.22882  1.0000
  S   S7        1.0  0.37457  0.11570  0.25382  1.0000
  S   S8        1.0  0.38891  0.06983  0.26689  1.0000
  H   H1        1.0  0.48019  0.05076  0.27456  1.0000
  H   H2        1.0  0.43956  0.06306  0.25522  1.0000
  Fe  Fe5       1.0  0.38952  0.22021  0.10914  1.0000
  S   S9        1.0  0.39543  0.19260  0.13088  1.0000
  H   H3        1.0  0.16447  0.20138  0.45192  1.0000
  S   S10       1.0  0.40669  0.21555  0.07957  1.0000
  Fe  Fe6       1.0  0.24981  0.10078  0.37786  1.0000
  S   S11       1.0  0.22568  0.08177  0.36683  1.0000
  S   S12       1.0  0.27527  0.11508  0.35817  1.0000
  Fe  Fe7       1.0  0.23002  0.10051  0.42153  1.0000
  S   S13       1.0  0.20531  0.08088  0.41306  1.0000
  S   S14       1.0  0.22762  0.11622  0.45161  1.0000
  Fe  Fe8       1.0  0.22957  0.06316  0.39572  1.0000
  S   S15       1.0  0.23914  0.02971  0.39791  1.0000
  Fe  Fe9       1.0  0.20362  0.10147  0.38519  1.0000
  S   S16       1.0  0.17306  0.11455  0.37487  1.0000
  S   S17       1.0  0.25462  0.08173  0.40618  1.0000
  S   S18       1.0  0.22746  0.12162  0.39419  1.0000
  C   C1        1.0  0.36080  0.14680  0.11483  1.0000
  S   S19       1.0  0.07596  0.20540  0.40709  1.0000
  N   N1        1.0  0.29182  0.12067  0.44620  1.0000
  S   S20       1.0  0.13345  0.20340  0.38589  1.0000
  H   H4        1.0  0.32112  0.15383  0.05581  1.0000
  S   S21       1.0  0.02870  0.20485  0.37163  1.0000
  C   C2        1.0  0.00191  0.20810  0.37049  1.0000
  N   N2        1.0  0.14782  0.15360  0.44787  1.0000
  H   H5        1.0  0.46806  0.02019  0.22977  1.0000
  C   C3        1.0  0.29606  0.08399  0.46080  1.0000
  C   C4        1.0  0.45497  0.04884  0.21973  1.0000
  C   C5        1.0  0.16232  0.13938  0.37779  1.0000
  C   C6        1.0  0.14160  0.14312  0.37491  1.0000
  C   C7        1.0  0.13243  0.16249  0.37738  1.0000
  C   C8        1.0  0.14399  0.17857  0.38228  1.0000
  C   C9        1.0  0.16480  0.17488  0.38479  1.0000
  C   C10       1.0  0.17384  0.15541  0.38289  1.0000
  H   H6        1.0  0.13249  0.13088  0.37094  1.0000
  H   H7        1.0  0.11646  0.16502  0.37531  1.0000
  H   H8        1.0  0.17393  0.18716  0.38855  1.0000
  H   H9        1.0  0.18973  0.15284  0.38530  1.0000
  C   C11       1.0  0.22832  0.00686  0.39177  1.0000
  H   H10       1.0  0.34085  0.20478  0.07065  1.0000
  C   C12       1.0  0.36417  0.22025  0.99498  1.0000
  C   C13       1.0  0.20772  0.00534  0.38885  1.0000
  H   H11       1.0  0.29387  0.09300  0.42972  1.0000
  C   C14       1.0  0.23295  0.10625  0.47616  1.0000
  C   C15       1.0  0.48060  0.09766  0.22851  1.0000
  C   C16       1.0  0.12513  0.15650  0.45002  1.0000
  H   H12       1.0  0.17872  0.12022  0.44499  1.0000
  H   H13       1.0  0.30327  0.13327  0.40487  1.0000
  H   H14       1.0  0.44180  0.02294  0.23410  1.0000
  C   C17       1.0  0.33508  0.17544  0.08635  1.0000
  H   H15       1.0  0.32215  0.11478  0.45601  1.0000
  C   C18       1.0  0.31726  0.08981  0.30654  1.0000
  C   C19       1.0  0.30223  0.07789  0.31604  1.0000
  C   C20       1.0  0.28947  0.08521  0.33195  1.0000
  C   C21       1.0  0.29151  0.10465  0.33867  1.0000
  C   C22       1.0  0.30651  0.11660  0.32918  1.0000
  C   C23       1.0  0.31928  0.10927  0.31326  1.0000
  H   H16       1.0  0.30045  0.06283  0.31104  1.0000
  H   H17       1.0  0.27805  0.07577  0.33896  1.0000
  H   H18       1.0  0.30825  0.13169  0.33412  1.0000
  H   H19       1.0  0.33069  0.11868  0.30620  1.0000
  C   C24       1.0  0.37093  0.14661  0.17964  1.0000
  C   C25       1.0  0.35862  0.16309  0.17290  1.0000
  C   C26       1.0  0.36580  0.17737  0.15816  1.0000
  C   C27       1.0  0.38546  0.17534  0.14983  1.0000
  C   C28       1.0  0.39772  0.15877  0.15645  1.0000
  C   C29       1.0  0.39051  0.14447  0.17113  1.0000
  H   H20       1.0  0.34339  0.16488  0.17921  1.0000
  H   H21       1.0  0.35610  0.18993  0.15328  1.0000
  H   H22       1.0  0.41287  0.15684  0.14998  1.0000
  H   H23       1.0  0.39998  0.13160  0.17563  1.0000
  C   C30       1.0  0.38817  0.00644  0.22795  1.0000
  H   H24       1.0  0.32435  0.00627  0.26739  1.0000
  C   C31       1.0  0.36766  0.00513  0.22450  1.0000
  C   C32       1.0  0.15705  0.17278  0.43983  1.0000
  H   H25       1.0  0.35833  0.01876  0.22278  1.0000
  H   H26       1.0  0.15338  0.13032  0.47112  1.0000
  C   C33       1.0  0.45729  0.10478  0.25683  1.0000
  C   C34       1.0  0.46073  0.10013  0.23662  1.0000
  H   H27       1.0  0.47148  0.11097  0.28434  1.0000
  H   H28       1.0  0.44811  0.09833  0.22724  1.0000
  H   H29       1.0  0.35070  0.15793  0.12262  1.0000
  H   H30       1.0  0.12064  0.16779  0.46145  1.0000
  H   H31       1.0  0.46883  0.05757  0.21895  1.0000
  H   H32       1.0  0.39303  0.14953  0.07844  1.0000
  H   H33       1.0  0.43488  0.16048  0.26220  1.0000
  C   C35       1.0  0.15136  0.19153  0.45215  1.0000
  C   C36       1.0  0.15500  0.14687  0.46850  1.0000
  H   H34       1.0  0.99654  0.22898  0.39426  1.0000
  C   C37       1.0  0.07742  0.23812  0.47889  1.0000
  H   H35       1.0  0.43130  0.01315  0.28405  1.0000
  C   C38       1.0  0.28036  0.13232  0.43007  1.0000
  H   H36       1.0  0.14530  0.15364  0.48075  1.0000
  H   H37       1.0  0.17554  0.11826  0.41883  1.0000
  H   H38       1.0  0.23519  0.00826  0.44140  1.0000
  H   H39       1.0  0.00238  0.23819  0.48091  1.0000
  H   H40       1.0  0.14702  0.18792  0.46814  1.0000
  C   C39       1.0  0.33642  0.99612  0.27366  1.0000
  H   H41       1.0  0.32382  0.14944  0.45876  1.0000
  C   C40       1.0  0.32894  0.19368  0.07249  1.0000
  H   H42       1.0  0.35943  0.13216  0.12337  1.0000
  H   H43       1.0  0.14282  0.12396  0.43697  1.0000
  H   H44       1.0  0.26362  0.15292  0.46230  1.0000
  C   C41       1.0  0.15226  0.13719  0.43313  1.0000
  C   C42       1.0  0.11412  0.16318  0.43070  1.0000
  C   C43       1.0  0.35377  0.15845  0.05804  1.0000
  H   H45       1.0  0.47528  0.06340  0.25151  1.0000
  H   H46       1.0  0.40351  0.17044  0.08910  1.0000
  C   C44       1.0  0.31424  0.12297  0.44353  1.0000
  H   H47       1.0  0.19790  0.01871  0.38911  1.0000
  C   C45       1.0  0.39280  0.16615  0.07778  1.0000
  H   H48       1.0  0.44156  0.05894  0.22259  1.0000
  C   C46       1.0  0.17422  0.12898  0.43121  1.0000
  H   H49       1.0  0.36769  0.14955  0.05357  1.0000
  H   H50       1.0  0.33643  0.14513  0.43459  1.0000
  C   C47       1.0  0.01842  0.23979  0.48420  1.0000
  C   C48       1.0  0.17678  0.15178  0.47335  1.0000
  C   C49       1.0  0.37463  0.22637  0.01150  1.0000
  H   H51       1.0  0.37101  0.19007  0.07237  1.0000
  C   C50       1.0  0.37183  0.17632  0.08244  1.0000
  H   H52       1.0  0.21936  0.00751  0.46440  1.0000
  H   H53       1.0  0.33662  0.18138  0.10160  1.0000
  H   H54       1.0  0.36596  0.13305  0.08613  1.0000
  H   H55       1.0  0.32472  0.18919  0.05742  1.0000
  H   H56       1.0  0.31276  0.08306  0.46018  1.0000
  H   H57       1.0  0.35422  0.17230  0.04799  1.0000
  C   C51       1.0  0.35516  0.14439  0.09281  1.0000
  H   H58       1.0  0.32188  0.16564  0.08796  1.0000
  S   S22       1.0  0.06745  0.22903  0.45679  1.0000
  C   C52       1.0  0.33588  0.14609  0.05237  1.0000
  H   H59       1.0  0.29570  0.12245  0.47843  1.0000
  H   H60       1.0  0.27079  0.11830  0.47206  1.0000
  H   H61       1.0  0.26406  0.12900  0.43155  1.0000
  Fe  Fe10      1.0  0.05499  0.22049  0.38478  1.0000
  H   H62       1.0  0.48308  0.09391  0.21288  1.0000
  H   H63       1.0  0.34047  0.13687  0.09353  1.0000
  H   H64       1.0  0.37165  0.18240  0.09780  1.0000
  H   H65       1.0  0.29034  0.08770  0.47619  1.0000
  H   H66       1.0  0.18495  0.14097  0.42720  1.0000
  C   C53       1.0  0.32174  0.14461  0.44321  1.0000
  C   C54       1.0  0.28763  0.09868  0.44430  1.0000
  H   H67       1.0  0.31549  0.20160  0.07942  1.0000
  C   C55       1.0  0.44198  0.00502  0.27364  1.0000
  H   H68       1.0  0.42649  0.04137  0.26168  1.0000
  Fe  Fe11      1.0  0.38045  0.23063  0.06428  1.0000
  C   C56       1.0  0.28758  0.12865  0.40809  1.0000
  C   C57       1.0  0.24332  0.08771  0.47929  1.0000
  H   H69       1.0  0.02155  0.23525  0.32801  1.0000
  H   H70       1.0  0.15236  0.17630  0.42421  1.0000
  H   H71       1.0  0.29100  0.06863  0.45819  1.0000
  H   H72       1.0  0.09771  0.16504  0.43451  1.0000
  H   H73       1.0  0.24683  0.07818  0.46672  1.0000
  C   C58       1.0  0.99261  0.19698  0.35636  1.0000
  H   H74       1.0  0.42535  0.05678  0.29248  1.0000
  C   C59       1.0  0.45600  0.03095  0.23525  1.0000
  H   H75       1.0  0.11831  0.14227  0.45596  1.0000
  H   H76       1.0  0.37667  0.15111  0.11573  1.0000
  C   C60       1.0  0.28432  0.12669  0.46702  1.0000
  H   H77       1.0  0.27107  0.09660  0.44434  1.0000
  H   H78       1.0  0.14822  0.14248  0.41771  1.0000
  H   H79       1.0  0.17374  0.17109  0.43835  1.0000
  C   C61       1.0  0.44110  0.05480  0.28637  1.0000
  H   H80       1.0  0.18829  0.14692  0.46185  1.0000
  H   H81       1.0  0.32060  0.11548  0.42984  1.0000
  H   H82       1.0  0.27488  0.15132  0.48615  1.0000
  H   H83       1.0  0.33690  0.14394  0.03585  1.0000
  N   N3        1.0  0.45894  0.03611  0.25679  1.0000
  H   H84       1.0  0.39870  0.17120  0.06256  1.0000
  N   N4        1.0  0.41445  0.16589  0.22501  1.0000
  C   C62       1.0  0.41559  0.14398  0.21986  1.0000
  C   C63       1.0  0.39961  0.16830  0.24271  1.0000
  C   C64       1.0  0.43467  0.17277  0.23069  1.0000
  C   C65       1.0  0.40788  0.17833  0.20680  1.0000
  C   C66       1.0  0.43227  0.13772  0.20415  1.0000
  C   C67       1.0  0.37715  0.16788  0.23786  1.0000
  C   C68       1.0  0.44450  0.16049  0.24814  1.0000
  C   C69       1.0  0.40545  0.20129  0.20944  1.0000
  H   H85       1.0  0.41774  0.13405  0.23356  1.0000
  H   H86       1.0  0.40106  0.13955  0.21404  1.0000
  H   H87       1.0  0.40172  0.18250  0.25050  1.0000
  H   H88       1.0  0.40223  0.15617  0.25452  1.0000
  H   H89       1.0  0.44557  0.17284  0.21747  1.0000
  H   H90       1.0  0.43345  0.18868  0.23532  1.0000
  H   H91       1.0  0.41889  0.17647  0.19388  1.0000
  H   H92       1.0  0.39368  0.17297  0.20102  1.0000
  H   H93       1.0  0.44760  0.13924  0.20969  1.0000
  H   H94       1.0  0.43085  0.12155  0.20118  1.0000
  H   H95       1.0  0.43090  0.14605  0.18947  1.0000
  H   H96       1.0  0.36785  0.16707  0.25217  1.0000
  H   H97       1.0  0.37208  0.18173  0.22933  1.0000
  H   H98       1.0  0.37388  0.15459  0.22929  1.0000
  H   H99       1.0  0.45890  0.16731  0.25149  1.0000
  H   H100      1.0  0.28969  0.15945  0.46445  1.0000
  C   C70       1.0  0.47397  0.10720  0.26872  1.0000
  H   H101      1.0  0.41961  0.20881  0.20468  1.0000
  H   H102      1.0  0.40117  0.20535  0.22505  1.0000
  H   H103      1.0  0.39311  0.20758  0.19999  1.0000
  H   H104      1.0  0.13911  0.20070  0.44487  1.0000
  H   H105      1.0  0.33632  0.13089  0.05991  1.0000
  Fe  Fe12      1.0  0.10151  0.21856  0.38837  1.0000
  C   C71       1.0  0.44092  0.04862  0.26421  1.0000
  N   N5        1.0  0.22244  0.13442  0.32187  1.0000
  C   C72       1.0  0.23744  0.11757  0.31648  1.0000
  C   C73       1.0  0.20500  0.12505  0.33357  1.0000
  C   C74       1.0  0.23280  0.14805  0.33539  1.0000
  C   C75       1.0  0.21619  0.14556  0.30273  1.0000
  C   C76       1.0  0.25695  0.12387  0.30479  1.0000
  C   C77       1.0  0.19428  0.10869  0.32277  1.0000
  C   C78       1.0  0.22024  0.16619  0.34340  1.0000
  C   C79       1.0  0.19556  0.15729  0.30347  1.0000
  H   H106      1.0  0.24199  0.10870  0.33028  1.0000
  H   H107      1.0  0.23064  0.10667  0.30680  1.0000
  H   H108      1.0  0.19318  0.13632  0.33821  1.0000
  H   H109      1.0  0.21010  0.11817  0.34811  1.0000
  H   H110      1.0  0.23852  0.13923  0.34875  1.0000
  H   H111      1.0  0.24624  0.15463  0.32754  1.0000
  H   H112      1.0  0.22787  0.15633  0.29738  1.0000
  H   H113      1.0  0.21528  0.13469  0.29050  1.0000
  H   H114      1.0  0.25390  0.13283  0.29073  1.0000
  H   H115      1.0  0.26690  0.13211  0.31423  1.0000
  H   H116      1.0  0.26576  0.11007  0.30033  1.0000
  H   H117      1.0  0.17953  0.10592  0.33075  1.0000
  H   H118      1.0  0.19129  0.11314  0.30691  1.0000
  H   H119      1.0  0.20309  0.09414  0.32341  1.0000
  H   H120      1.0  0.22926  0.17382  0.35428  1.0000
  H   H121      1.0  0.20621  0.16181  0.35173  1.0000
  H   H122      1.0  0.21694  0.17750  0.33112  1.0000
  H   H123      1.0  0.19650  0.17083  0.29314  1.0000
  H   H124      1.0  0.19043  0.16277  0.31837  1.0000
  H   H125      1.0  0.18369  0.14820  0.29749  1.0000
  N   N6        1.0  0.35397  0.16360  0.07988  1.0000
  H   H126      1.0  0.45335  0.04292  0.20453  1.0000
  H   H127      1.0  0.43421  0.00196  0.25975  1.0000
  C   C80       1.0  0.46140  0.01667  0.26915  1.0000
  H   H128      1.0  0.17817  0.16811  0.47546  1.0000
  H   H129      1.0  0.00173  0.18717  0.34673  1.0000
  H   H130      1.0  0.27791  0.13796  0.39780  1.0000
  H   H131      1.0  0.28618  0.11285  0.40393  1.0000
  H   H132      1.0  0.11891  0.17798  0.42431  1.0000
  H   H133      1.0  0.35049  0.99790  0.26423  1.0000
  H   H134      1.0  0.35114  0.21113  0.99763  1.0000
  C   C81       1.0  0.27795  0.14898  0.46982  1.0000
  S   S23       1.0  0.08085  0.23120  0.36422  1.0000
  H   H135      1.0  0.44830  0.14478  0.24413  1.0000
  H   H136      1.0  0.47238  0.00612  0.26149  1.0000
  H   H137      1.0  0.44839  0.04336  0.29647  1.0000
  H   H138      1.0  0.46811  0.01914  0.28385  1.0000
  H   H139      1.0  0.02618  0.22474  0.48564  1.0000
  C   C82       1.0  0.47747  0.04812  0.25848  1.0000
  H   H140      1.0  0.11575  0.15177  0.41899  1.0000
  H   H141      1.0  0.48405  0.19567  0.12263  1.0000
  H   H142      1.0  0.31182  0.15576  0.43527  1.0000
  S   S24       1.0  0.36622  0.21910  0.03649  1.0000
  Fe  Fe13      1.0  0.07389  0.23481  0.42281  1.0000
  H   H143      1.0  0.28071  0.14881  0.43162  1.0000
  H   H144      1.0  0.44881  0.06921  0.28743  1.0000
  C   C83       1.0  0.21996  0.00511  0.44799  1.0000
  H   H145      1.0  0.20952  0.01661  0.44101  1.0000
  C   C84       1.0  0.48915  0.21131  0.12240  1.0000
  S   S25       1.0  0.36188  0.23308  0.09350  1.0000
  H   H146      1.0  0.47587  0.22087  0.12733  1.0000
  H   H147      1.0  0.33886  0.00171  0.28876  1.0000
  H   H148      1.0  0.04586  0.23088  0.33757  1.0000
  H   H149      1.0  0.18073  0.14382  0.48777  1.0000
  C   C85       1.0  0.39142  0.23819  0.00779  1.0000
  S   S26       1.0  0.41046  0.22511  0.89144  1.0000
  H   H150      1.0  0.34400  0.01257  0.70523  1.0000
  H   H151      1.0  0.43651  0.17702  0.75997  1.0000
  C   C86       1.0  0.48345  0.12086  0.71723  1.0000
  Fe  Fe14      1.0  0.38328  0.21907  0.87359  1.0000
  S   S27       1.0  0.37776  0.18809  0.86045  1.0000
  Fe  Fe15      1.0  0.24218  0.09320  0.56991  1.0000
  S   S28       1.0  0.20884  0.08997  0.57531  1.0000
  S   S29       1.0  0.25670  0.08744  0.53864  1.0000
  Fe  Fe16      1.0  0.24958  0.09991  0.61521  1.0000
  S   S30       1.0  0.21625  0.09714  0.62264  1.0000
  S   S31       1.0  0.26647  0.10592  0.64418  1.0000
  Fe  Fe17      1.0  0.21803  0.07057  0.60244  1.0000
  S   S32       1.0  0.20511  0.04067  0.61418  1.0000
  Fe  Fe18      1.0  0.21012  0.11686  0.59495  1.0000
  S   S33       1.0  0.19221  0.14753  0.59229  1.0000
  S   S34       1.0  0.25131  0.07247  0.59625  1.0000
  S   S35       1.0  0.24346  0.12092  0.58826  1.0000
  C   C87       1.0  0.43673  0.15773  0.73512  1.0000
  H   H152      1.0  0.34422  0.06223  0.66988  1.0000
  C   C88       1.0  0.11807  0.19719  0.50757  1.0000
  H   H153      1.0  0.45303  0.15504  0.73160  1.0000
  Fe  Fe19      1.0  0.09138  0.22370  0.60502  1.0000
  S   S36       1.0  0.10606  0.19216  0.61207  1.0000
  Fe  Fe20      1.0  0.37541  0.11943  0.75643  1.0000
  S   S37       1.0  0.39232  0.12151  0.72604  1.0000
  S   S38       1.0  0.37574  0.14949  0.77307  1.0000
  Fe  Fe21      1.0  0.36695  0.07446  0.75024  1.0000
  S   S39       1.0  0.38415  0.07439  0.72064  1.0000
  S   S40       1.0  0.35028  0.04568  0.75889  1.0000
  Fe  Fe22      1.0  0.40727  0.09187  0.73549  1.0000
  S   S41       1.0  0.44040  0.08076  0.73559  1.0000
  Fe  Fe23      1.0  0.36728  0.10385  0.71385  1.0000
  S   S42       1.0  0.35416  0.10741  0.68209  1.0000
  S   S43       1.0  0.39101  0.09001  0.76600  1.0000
  S   S44       1.0  0.34941  0.10376  0.74338  1.0000
  C   C89       1.0  0.46350  0.09322  0.73119  1.0000
  C   C90       1.0  0.46466  0.11181  0.72061  1.0000
  H   H154      1.0  0.40675  0.99623  0.74903  1.0000
  H   H155      1.0  0.45119  0.11895  0.71460  1.0000
  N   N7        1.0  0.32056  0.21904  0.83741  1.0000
  C   C91       1.0  0.43919  0.10846  0.78295  1.0000
  C   C92       1.0  0.36128  0.02124  0.75500  1.0000
  C   C93       1.0  0.38211  0.01810  0.75204  1.0000
  H   H156      1.0  0.33285  0.00668  0.75817  1.0000
  H   H157      1.0  0.39179  0.03083  0.75156  1.0000
  H   H158      1.0  0.41531  0.16225  0.75997  1.0000
  H   H159      1.0  0.29953  0.02263  0.71479  1.0000
  H   H160      1.0  0.09189  0.18942  0.56653  1.0000
  C   C94       1.0  0.47684  0.21238  0.84549  1.0000
  H   H161      1.0  0.30604  0.05182  0.74596  1.0000
  C   C95       1.0  0.16812  0.15947  0.59829  1.0000
  C   C96       1.0  0.16585  0.18059  0.59578  1.0000
  C   C97       1.0  0.14716  0.19085  0.60008  1.0000
  C   C98       1.0  0.13029  0.18012  0.60685  1.0000
  C   C99       1.0  0.13265  0.15903  0.60964  1.0000
  C   C100      1.0  0.15137  0.14877  0.60543  1.0000
  H   H162      1.0  0.17871  0.18912  0.59055  1.0000
  H   H163      1.0  0.14583  0.20708  0.59836  1.0000
  H   H164      1.0  0.11983  0.15050  0.61501  1.0000
  H   H165      1.0  0.15276  0.13256  0.60756  1.0000
  C   C101      1.0  0.29109  0.10579  0.65432  1.0000
  C   C102      1.0  0.30888  0.10240  0.64264  1.0000
  C   C103      1.0  0.32791  0.10296  0.65139  1.0000
  C   C104      1.0  0.32957  0.10662  0.67199  1.0000
  C   C105      1.0  0.31177  0.10978  0.68372  1.0000
  C   C106      1.0  0.29275  0.10943  0.67494  1.0000
  H   H166      1.0  0.30802  0.09965  0.62678  1.0000
  H   H167      1.0  0.34148  0.10061  0.64205  1.0000
  H   H168      1.0  0.31268  0.11288  0.69949  1.0000
  H   H169      1.0  0.27920  0.11217  0.68419  1.0000
  H   H170      1.0  0.48532  0.21909  0.83242  1.0000
  C   C107      1.0  0.21198  0.01673  0.60431  1.0000
  C   C108      1.0  0.22495  0.01479  0.58728  1.0000
  H   H171      1.0  0.26067  0.99712  0.61898  1.0000
  H   H172      1.0  0.23113  0.02811  0.57986  1.0000
  H   H173      1.0  0.16630  0.21647  0.53697  1.0000
  C   C109      1.0  0.24567  0.09405  0.51523  1.0000
  C   C110      1.0  0.23449  0.11214  0.51225  1.0000
  H   H174      1.0  0.22790  0.16542  0.61362  1.0000
  H   H175      1.0  0.23128  0.12178  0.52480  1.0000
  C   C111      1.0  0.37831  0.17755  0.83595  1.0000
  C   C112      1.0  0.37429  0.15702  0.83445  1.0000
  C   C113      1.0  0.37373  0.14808  0.81551  1.0000
  C   C114      1.0  0.37689  0.15963  0.79762  1.0000
  C   C115      1.0  0.38108  0.18013  0.79911  1.0000
  C   C116      1.0  0.38194  0.18899  0.81806  1.0000
  H   H176      1.0  0.37148  0.14791  0.84809  1.0000
  H   H177      1.0  0.37054  0.13232  0.81478  1.0000
  H   H178      1.0  0.38366  0.18928  0.78545  1.0000
  H   H179      1.0  0.38520  0.20474  0.81879  1.0000
  H   H180      1.0  0.25864  0.06787  0.50078  1.0000
  H   H181      1.0  0.30981  0.18914  0.84538  1.0000
  H   H182      1.0  0.14616  0.21188  0.50923  1.0000
  C   C117      1.0  0.29993  0.06224  0.71464  1.0000
  H   H183      1.0  0.30692  0.06564  0.67449  1.0000
  H   H184      1.0  0.48067  0.06935  0.74628  1.0000
  H   H185      1.0  0.31168  0.22962  0.80736  1.0000
  H   H186      1.0  0.28386  0.02676  0.68521  1.0000
  H   H187      1.0  0.48151  0.16465  0.74965  1.0000
  H   H188      1.0  0.03909  0.22589  0.52637  1.0000
  H   H189      1.0  0.17855  0.18503  0.53463  1.0000
  C   C118      1.0  0.34897  0.00446  0.75572  1.0000
  C   C119      1.0  0.11843  0.20454  0.55398  1.0000
  C   C120      1.0  0.43468  0.15151  0.79360  1.0000
  C   C121      1.0  0.47553  0.16393  0.76555  1.0000
  H   H190      1.0  0.47043  0.13662  0.78350  1.0000
  H   H191      1.0  0.43311  0.17419  0.81607  1.0000
  H   H192      1.0  0.30125  0.20696  0.81590  1.0000
  H   H193      1.0  0.11576  0.20428  0.49235  1.0000
  H   H194      1.0  0.42394  0.99482  0.69822  1.0000
  H   H195      1.0  0.35315  0.21912  0.83683  1.0000
  C   C122      1.0  0.43273  0.12620  0.76857  1.0000
  H   H196      1.0  0.01929  0.21320  0.51705  1.0000
  C   C123      1.0  0.01754  0.21497  0.54897  1.0000
  H   H197      1.0  0.33637  0.18999  0.84159  1.0000
  H   H198      1.0  0.16439  0.18281  0.51204  1.0000
  C   C124      1.0  0.24997  0.08186  0.49864  1.0000
  H   H199      1.0  0.42832  0.14495  0.73010  1.0000
  H   H200      1.0  0.45594  0.17433  0.80111  1.0000
  H   H201      1.0  0.48422  0.13512  0.70883  1.0000
  H   H202      1.0  0.43710  0.12135  0.75316  1.0000
  C   C125      1.0  0.31532  0.21550  0.81601  1.0000
  C   C126      1.0  0.28547  0.04229  0.67881  1.0000
  H   H203      1.0  0.16948  0.16144  0.52849  1.0000
  C   C127      1.0  0.33505  0.05810  0.70206  1.0000
  C   C128      1.0  0.30603  0.06583  0.73630  1.0000
  C   C129      1.0  0.34951  0.05404  0.68369  1.0000
  H   H204      1.0  0.29752  0.07733  0.70703  1.0000
  H   H205      1.0  0.33371  0.07479  0.70279  1.0000
  H   H206      1.0  0.34313  0.05292  0.71578  1.0000
  H   H207      1.0  0.32086  0.07272  0.73664  1.0000
  H   H208      1.0  0.29484  0.07654  0.74336  1.0000
  H   H209      1.0  0.35198  0.03787  0.68089  1.0000
  H   H210      1.0  0.33362  0.18799  0.80860  1.0000
  N   N8        1.0  0.31442  0.04927  0.70213  1.0000
  H   H211      1.0  0.31688  0.04114  0.67059  1.0000
  C   C130      1.0  0.30684  0.04990  0.68101  1.0000
  H   H212      1.0  0.46698  0.17809  0.76871  1.0000
  H   H213      1.0  0.43365  0.09429  0.77735  1.0000
  H   H214      1.0  0.32101  0.02855  0.72708  1.0000
  H   H215      1.0  0.28484  0.05560  0.71629  1.0000
  H   H216      1.0  0.12247  0.20849  0.56937  1.0000
  C   C131      1.0  0.48134  0.08380  0.73823  1.0000
  C   C132      1.0  0.31493  0.02833  0.71176  1.0000
  H   H217      1.0  0.12451  0.18177  0.50538  1.0000
  H   H218      1.0  0.34636  0.21124  0.80300  1.0000
  C   C133      1.0  0.07876  0.23574  0.51575  1.0000
  C   C134      1.0  0.32804  0.01210  0.70097  1.0000
  H   H219      1.0  0.48882  0.22602  0.87110  1.0000
  H   H220      1.0  0.14891  0.17669  0.55650  1.0000
  H   H221      1.0  0.30704  0.23309  0.86387  1.0000
  H   H222      1.0  0.19869  0.11705  0.66313  1.0000
  C   C135      1.0  0.20404  0.99919  0.61368  1.0000
  H   H223      1.0  0.32238  0.99703  0.70556  1.0000
  H   H224      1.0  0.33761  0.20790  0.87494  1.0000
  H   H225      1.0  0.28965  0.22112  0.84903  1.0000
  N   N9        1.0  0.21538  0.15639  0.65496  1.0000
  C   C136      1.0  0.30333  0.23032  0.84807  1.0000
  H   H226      1.0  0.47174  0.19741  0.84155  1.0000
  H   H227      1.0  0.19305  0.19602  0.64795  1.0000
  C   C137      1.0  0.10588  0.18553  0.55755  1.0000
  H   H228      1.0  0.22592  0.11354  0.66349  1.0000
  H   H229      1.0  0.10132  0.17905  0.54351  1.0000
  C   C138      1.0  0.33995  0.22984  0.83878  1.0000
  H   H230      1.0  0.00571  0.21126  0.60460  1.0000
  C   C139      1.0  0.14589  0.18163  0.54062  1.0000
  H   H231      1.0  0.43233  0.10998  0.79835  1.0000
  S   S45       1.0  0.07082  0.22654  0.57862  1.0000
  H   H232      1.0  0.21095  0.11255  0.68627  1.0000
  H   H233      1.0  0.07481  0.22814  0.52999  1.0000
  N   N10       1.0  0.13701  0.20292  0.53994  1.0000
  H   H234      1.0  0.24718  0.14745  0.65226  1.0000
  C   C140      1.0  0.24016  0.16292  0.62434  1.0000
  H   H235      1.0  0.00446  0.20515  0.54864  1.0000
  C   C141      1.0  0.21234  0.12035  0.67120  1.0000
  H   H236      1.0  0.23162  0.13439  0.63663  1.0000
  H   H237      1.0  0.24583  0.17740  0.62895  1.0000
  H   H238      1.0  0.23385  0.18024  0.66428  1.0000
  H   H239      1.0  0.41808  0.15008  0.79589  1.0000
  C   C142      1.0  0.23382  0.14941  0.64268  1.0000
  H   H240      1.0  0.25294  0.15522  0.61602  1.0000
  C   C143      1.0  0.21434  0.14309  0.67398  1.0000
  H   H241      1.0  0.22808  0.14469  0.68276  1.0000
  H   H242      1.0  0.20981  0.18017  0.67643  1.0000
  H   H243      1.0  0.21477  0.20959  0.65287  1.0000
  H   H244      1.0  0.20154  0.14791  0.68426  1.0000
  H   H245      1.0  0.44164  0.14072  0.80475  1.0000
  C   C144      1.0  0.21774  0.17767  0.66155  1.0000
  H   H246      1.0  0.16577  0.16611  0.64457  1.0000
  H   H247      1.0  0.19671  0.13908  0.63694  1.0000
  H   H248      1.0  0.19717  0.16467  0.62947  1.0000
  H   H249      1.0  0.10296  0.19666  0.51522  1.0000
  C   C145      1.0  0.19689  0.15440  0.64304  1.0000
  C   C146      1.0  0.32549  0.19815  0.87087  1.0000
  H   H250      1.0  0.43231  0.18489  0.79127  1.0000
  H   H251      1.0  0.11413  0.17377  0.56668  1.0000
  H   H252      1.0  0.36250  0.22071  0.96240  1.0000
  C   C147      1.0  0.43950  0.17253  0.80045  1.0000
  C   C148      1.0  0.20978  0.19509  0.64751  1.0000
  C   C149      1.0  0.16568  0.17789  0.52807  1.0000
  H   H253      1.0  0.17776  0.16783  0.66792  1.0000
  H   H254      1.0  0.45579  0.10634  0.78341  1.0000
  H   H255      1.0  0.43165  0.17116  0.72591  1.0000
  C   C150      1.0  0.17662  0.15827  0.65480  1.0000
  H   H256      1.0  0.16978  0.14377  0.65957  1.0000
  H   H257      1.0  0.13513  0.17079  0.53552  1.0000
  H   H258      1.0  0.21528  0.19402  0.63164  1.0000
  H   H259      1.0  0.46303  0.22212  0.84809  1.0000
  C   C151      1.0  0.22956  0.99565  0.57952  1.0000
  H   H260      1.0  0.12475  0.22550  0.51889  1.0000
  H   H261      1.0  0.46843  0.13433  0.75727  1.0000
  C   C152      1.0  0.46400  0.14434  0.76991  1.0000
  N   N11       1.0  0.44130  0.14632  0.77236  1.0000
  C   C153      1.0  0.43202  0.16151  0.75761  1.0000
  H   H262      1.0  0.15789  0.21068  0.56223  1.0000
  H   H263      1.0  0.41594  0.12729  0.76923  1.0000
  C   C154      1.0  0.13214  0.21018  0.51882  1.0000
  H   H264      1.0  0.47876  0.20206  0.87591  1.0000
  C   C155      1.0  0.02250  0.22474  0.52798  1.0000
  H   H265      1.0  0.10802  0.21712  0.54890  1.0000
  C   C156      1.0  0.33166  0.20397  0.80331  1.0000
  H   H266      1.0  0.32699  0.20380  0.78747  1.0000
  H   H267      1.0  0.19392  0.00052  0.62681  1.0000
  C   C157      1.0  0.38756  0.23724  0.97126  1.0000
  H   H268      1.0  0.27372  0.05262  0.68549  1.0000
  C   C158      1.0  0.32294  0.19849  0.84790  1.0000
  C   C159      1.0  0.07238  0.22843  0.49757  1.0000
  S   S46       1.0  0.36200  0.23297  0.89732  1.0000
  C   C160      1.0  0.37055  0.22567  0.97496  1.0000
  C   C161      1.0  0.48867  0.21075  0.86503  1.0000
  H   H269      1.0  0.32992  0.18258  0.87616  1.0000
  C   C162      1.0  0.15266  0.21639  0.54728  1.0000
  H   H270      1.0  0.36445  0.06002  0.68638  1.0000
  H   H271      1.0  0.28245  0.04205  0.66250  1.0000
  H   H272      1.0  0.32722  0.01311  0.68440  1.0000
  H   H273      1.0  0.31121  0.20237  0.87921  1.0000
  C   C163      1.0  0.14604  0.23876  0.54932  1.0000
  H   H274      1.0  0.34118  0.23546  0.85420  1.0000
  H   H275      1.0  0.03080  0.20563  0.55393  1.0000
  H   H276      1.0  0.23932  0.99446  0.56612  1.0000
  H   H277      1.0  0.06334  0.21526  0.49794  1.0000
  C   C164      1.0  0.39056  0.99842  0.75055  1.0000
  H   H278      1.0  0.25203  0.00027  0.64419  1.0000
  H   H279      1.0  0.01486  0.22591  0.56087  1.0000
  C   C165      1.0  0.22841  0.11830  0.49278  1.0000
  H   H280      1.0  0.48902  0.16351  0.77488  1.0000
  C   C166      1.0  0.99229  0.21997  0.60051  1.0000
  H   H281      1.0  0.13226  0.24078  0.55909  1.0000
  C   C167      1.0  0.99353  0.24051  0.59541  1.0000
  H   H282      1.0  0.22057  0.13274  0.49054  1.0000
  S   S47       1.0  0.39313  0.26114  0.06506  1.0000
  H   H283      1.0  0.03761  0.42993  0.21011  1.0000
  Fe  Fe24      1.0  0.37559  0.26354  0.09482  1.0000
  S   S48       1.0  0.35884  0.29456  0.09874  1.0000
  H   H284      1.0  0.36087  0.27039  0.99694  1.0000
  S   S49       1.0  0.40231  0.25094  0.11259  1.0000
  Fe  Fe25      1.0  0.05363  0.39830  0.24566  1.0000
  S   S50       1.0  0.06837  0.39838  0.27560  1.0000
  S   S51       1.0  0.01996  0.40764  0.24671  1.0000
  Fe  Fe26      1.0  0.09463  0.39096  0.22228  1.0000
  S   S52       1.0  0.11153  0.39034  0.25086  1.0000
  S   S53       1.0  0.10732  0.38861  0.18935  1.0000
  Fe  Fe27      1.0  0.08671  0.37130  0.26525  1.0000
  S   S54       1.0  0.09459  0.34223  0.28435  1.0000
  Fe  Fe28      1.0  0.09167  0.41747  0.25921  1.0000
  S   S55       1.0  0.10577  0.44360  0.27421  1.0000
  S   S56       1.0  0.07082  0.37016  0.23589  1.0000
  S   S57       1.0  0.07604  0.41906  0.23004  1.0000
  Fe  Fe29      1.0  0.25234  0.36919  0.09309  1.0000
  S   S58       1.0  0.21878  0.36541  0.09091  1.0000
  S   S59       1.0  0.27040  0.33855  0.09591  1.0000
  Fe  Fe30      1.0  0.24569  0.41593  0.09054  1.0000
  S   S60       1.0  0.21221  0.41453  0.08827  1.0000
  S   S61       1.0  0.26204  0.44574  0.08816  1.0000
  Fe  Fe31      1.0  0.21360  0.39017  0.11304  1.0000
  S   S62       1.0  0.19547  0.38851  0.14378  1.0000
  Fe  Fe32      1.0  0.22014  0.38994  0.06638  1.0000
  S   S63       1.0  0.20360  0.38904  0.03693  1.0000
  S   S64       1.0  0.24721  0.39284  0.11643  1.0000
  S   S65       1.0  0.25361  0.39247  0.06735  1.0000
  Fe  Fe33      1.0  0.07781  0.25958  0.38162  1.0000
  S   S66       1.0  0.07242  0.29166  0.36697  1.0000
  C   C168      1.0  0.05225  0.42769  0.17951  1.0000
  H   H285      1.0  0.13816  0.48730  0.23409  1.0000
  H   H286      1.0  0.25197  0.43301  0.04846  1.0000
  C   C169      1.0  0.11741  0.48003  0.28573  1.0000
  C   C170      1.0  0.09115  0.48275  0.26172  1.0000
  H   H287      1.0  0.12764  0.43372  0.34373  1.0000
  H   H288      1.0  0.14540  0.39336  0.28232  1.0000
  C   C171      1.0  0.08947  0.25489  0.47854  1.0000
  C   C172      1.0  0.00254  0.27518  0.38420  1.0000
  C   C173      1.0  0.21425  0.39012  0.01186  1.0000
  H   H289      1.0  0.34170  0.31308  0.00360  1.0000
  C   C174      1.0  0.23509  0.38984  0.00785  1.0000
  C   C175      1.0  0.20142  0.39185  0.99552  1.0000
  H   H290      1.0  0.24513  0.38811  0.02022  1.0000
  C   C176      1.0  0.25188  0.47065  0.09187  1.0000
  C   C177      1.0  0.26453  0.48709  0.08877  1.0000
  H   H291      1.0  0.06806  0.42612  0.18456  1.0000
  H   H292      1.0  0.22155  0.46212  0.09964  1.0000
  C   C178      1.0  0.12892  0.42344  0.33095  1.0000
  C   C179      1.0  0.08722  0.32801  0.30694  1.0000
  C   C180      1.0  0.09658  0.30891  0.31088  1.0000
  C   C181      1.0  0.09207  0.29744  0.32886  1.0000
  C   C182      1.0  0.07835  0.30505  0.34352  1.0000
  C   C183      1.0  0.06896  0.32416  0.33959  1.0000
  C   C184      1.0  0.07315  0.33544  0.32141  1.0000
  H   H293      1.0  0.10753  0.30292  0.29993  1.0000
  H   H294      1.0  0.09950  0.28285  0.33152  1.0000
  H   H295      1.0  0.05839  0.33033  0.35077  1.0000
  H   H296      1.0  0.06568  0.34998  0.31874  1.0000
  C   C185      1.0  0.13205  0.38885  0.17707  1.0000
  C   C186      1.0  0.13387  0.38870  0.15582  1.0000
  C   C187      1.0  0.15296  0.38875  0.14537  1.0000
  C   C188      1.0  0.17070  0.38883  0.15600  1.0000
  C   C189      1.0  0.16889  0.38889  0.17725  1.0000
  C   C190      1.0  0.14980  0.38899  0.18769  1.0000
  H   H297      1.0  0.12038  0.38853  0.14732  1.0000
  H   H298      1.0  0.15392  0.38864  0.12909  1.0000
  H   H299      1.0  0.18238  0.38898  0.18575  1.0000
  H   H300      1.0  0.14884  0.38910  0.20397  1.0000
  C   C191      1.0  0.99571  0.26666  0.34091  1.0000
  H   H301      1.0  0.03717  0.39782  0.20505  1.0000
  H   H302      1.0  0.19457  0.45175  0.02992  1.0000
  H   H303      1.0  0.00845  0.37412  0.22246  1.0000
  C   C192      1.0  0.32709  0.30579  0.04020  1.0000
  C   C193      1.0  0.10436  0.47057  0.27350  1.0000
  H   H304      1.0  0.33023  0.32192  0.03680  1.0000
  C   C194      1.0  0.34229  0.29662  0.00733  1.0000
  H   H305      1.0  0.36521  0.32713  0.04749  1.0000
  H   H306      1.0  0.09509  0.35726  0.35378  1.0000
  C   C195      1.0  0.33404  0.30637  0.09778  1.0000
  C   C196      1.0  0.33199  0.32759  0.09675  1.0000
  C   C197      1.0  0.31283  0.33770  0.09588  1.0000
  C   C198      1.0  0.29525  0.32676  0.09613  1.0000
  C   C199      1.0  0.29730  0.30553  0.09709  1.0000
  C   C200      1.0  0.31646  0.29542  0.09792  1.0000
  H   H307      1.0  0.34537  0.33633  0.09671  1.0000
  H   H308      1.0  0.31168  0.35399  0.09525  1.0000
  H   H309      1.0  0.28391  0.29680  0.09740  1.0000
  H   H310      1.0  0.31760  0.27915  0.09896  1.0000
  C   C201      1.0  0.06223  0.41313  0.13835  1.0000
  C   C202      1.0  0.47371  0.26099  0.10190  1.0000
  H   H311      1.0  0.02559  0.24751  0.47072  1.0000
  H   H312      1.0  0.45952  0.26416  0.10996  1.0000
  H   H313      1.0  0.11669  0.40279  0.35400  1.0000
  H   H314      1.0  0.33267  0.24712  0.05721  1.0000
  H   H315      1.0  0.18527  0.39198  0.99842  1.0000
  C   C203      1.0  0.99496  0.38256  0.22720  1.0000
  C   C204      1.0  0.20281  0.44720  0.04363  1.0000
  C   C205      1.0  0.14196  0.38696  0.29776  1.0000
  N   N12       1.0  0.34264  0.29227  0.02978  1.0000
  H   H316      1.0  0.14510  0.37045  0.29725  1.0000
  H   H317      1.0  0.04740  0.45259  0.19945  1.0000
  H   H318      1.0  0.24480  0.46647  0.99903  1.0000
  H   H319      1.0  0.08735  0.42413  0.33532  1.0000
  H   H320      1.0  0.23638  0.42441  0.03045  1.0000
  H   H321      1.0  0.02867  0.28979  0.37088  1.0000
  H   H322      1.0  0.15233  0.39355  0.30802  1.0000
  C   C206      1.0  0.02521  0.28705  0.33000  1.0000
  H   H323      1.0  0.11856  0.42986  0.31959  1.0000
  C   C207      1.0  0.47380  0.25304  0.08273  1.0000
  H   H324      1.0  0.11054  0.38206  0.29441  1.0000
  H   H325      1.0  0.13989  0.39460  0.34216  1.0000
  C   C208      1.0  0.11161  0.35923  0.35263  1.0000
  C   C209      1.0  0.37028  0.31786  0.03453  1.0000
  H   H326      1.0  0.05388  0.36317  0.17959  1.0000
  H   H327      1.0  0.13518  0.36347  0.33016  1.0000
  H   H328      1.0  0.22694  0.45653  0.06103  1.0000
  H   H329      1.0  0.02539  0.31622  0.31401  1.0000
  N   N13       1.0  0.01552  0.27437  0.34692  1.0000
  H   H330      1.0  0.04765  0.41835  0.13210  1.0000
  H   H331      1.0  0.02289  0.28057  0.31514  1.0000
  C   C210      1.0  0.03953  0.43887  0.19578  1.0000
  H   H332      1.0  0.26989  0.41462  0.02030  1.0000
  H   H333      1.0  0.03987  0.36262  0.20302  1.0000
  N   N14       1.0  0.23849  0.45707  0.03014  1.0000
  C   C211      1.0  0.23168  0.46211  0.00906  1.0000
  C   C212      1.0  0.11862  0.36674  0.33126  1.0000
  H   H334      1.0  0.20652  0.43085  0.04409  1.0000
  H   H335      1.0  0.00955  0.41361  0.19691  1.0000
  C   C213      1.0  0.33387  0.26375  0.05612  1.0000
  H   H336      1.0  0.32793  0.30393  0.05684  1.0000
  H   H337      1.0  0.02422  0.31795  0.34065  1.0000
  H   H338      1.0  0.09350  0.26248  0.46430  1.0000
  H   H339      1.0  0.11600  0.40717  0.29777  1.0000
  C   C214      1.0  0.36293  0.29618  0.03775  1.0000
  H   H340      1.0  0.08675  0.41949  0.30860  1.0000
  N   N15       1.0  0.24273  0.33923  0.15844  1.0000
  C   C215      1.0  0.26501  0.34202  0.15411  1.0000
  C   C216      1.0  0.23364  0.35907  0.16536  1.0000
  C   C217      1.0  0.23385  0.33453  0.13874  1.0000
  C   C218      1.0  0.24007  0.32222  0.17396  1.0000
  C   C219      1.0  0.27784  0.32297  0.14852  1.0000
  C   C220      1.0  0.24185  0.36690  0.18479  1.0000
  C   C221      1.0  0.21110  0.33097  0.13909  1.0000
  C   C222      1.0  0.21961  0.32162  0.18607  1.0000
  H   H341      1.0  0.26743  0.35369  0.14175  1.0000
  H   H342      1.0  0.27224  0.34763  0.16741  1.0000
  H   H343      1.0  0.21710  0.35870  0.16783  1.0000
  H   H344      1.0  0.23580  0.37105  0.15336  1.0000
  H   H345      1.0  0.23679  0.34689  0.12728  1.0000
  H   H346      1.0  0.24113  0.32078  0.13235  1.0000
  H   H347      1.0  0.24270  0.30746  0.16675  1.0000
  H   H348      1.0  0.25179  0.32276  0.18540  1.0000
  H   H349      1.0  0.27291  0.31597  0.13488  1.0000
  H   H350      1.0  0.29363  0.32732  0.14505  1.0000
  H   H351      1.0  0.27826  0.31157  0.16117  1.0000
  H   H352      1.0  0.24308  0.35509  0.19697  1.0000
  H   H353      1.0  0.25664  0.37383  0.18176  1.0000
  H   H354      1.0  0.23136  0.37906  0.19045  1.0000
  H   H355      1.0  0.20668  0.32897  0.12339  1.0000
  H   H356      1.0  0.20175  0.34392  0.14462  1.0000
  H   H357      1.0  0.20737  0.31690  0.14774  1.0000
  H   H358      1.0  0.21510  0.30573  0.18807  1.0000
  H   H359      1.0  0.20686  0.33006  0.17913  1.0000
  H   H360      1.0  0.22116  0.32690  0.20155  1.0000
  H   H361      1.0  0.38702  0.31738  0.03327  1.0000
  N   N16       1.0  0.11367  0.38860  0.32562  1.0000
  H   H362      1.0  0.08320  0.38181  0.31889  1.0000
  H   H363      1.0  0.04189  0.28696  0.33141  1.0000
  C   C223      1.0  0.23150  0.47453  0.09708  1.0000
  H   H364      1.0  0.08597  0.38847  0.34425  1.0000
  C   C224      1.0  0.11959  0.39169  0.30357  1.0000
  H   H365      1.0  0.02245  0.42337  0.15626  1.0000
  H   H366      1.0  0.30252  0.30801  0.01891  1.0000
  N   N17       1.0  0.04511  0.40749  0.17395  1.0000
  H   H367      1.0  0.02321  0.24627  0.36304  1.0000
  C   C225      1.0  0.12481  0.40171  0.33904  1.0000
  H   H368      1.0  0.08092  0.47571  0.25223  1.0000
  H   H369      1.0  0.11610  0.36918  0.36446  1.0000
  H   H370      1.0  0.02463  0.44407  0.19023  1.0000
  C   C226      1.0  0.02418  0.40937  0.16593  1.0000
  H   H371      1.0  0.11216  0.35669  0.32045  1.0000
  H   H372      1.0  0.11867  0.34404  0.35582  1.0000
  C   C227      1.0  0.05956  0.39957  0.15764  1.0000
  H   H373      1.0  0.06598  0.41361  0.32519  1.0000
  H   H374      1.0  0.99752  0.25951  0.32608  1.0000
  C   C228      1.0  0.30507  0.30310  0.03477  1.0000
  C   C229      1.0  0.08271  0.41363  0.32402  1.0000
  H   H375      1.0  0.26729  0.47067  0.02311  1.0000
  C   C230      1.0  0.00621  0.40920  0.18162  1.0000
  C   C231      1.0  0.01351  0.28588  0.36606  1.0000
  H   H376      1.0  0.35155  0.26066  0.02866  1.0000
  H   H377      1.0  0.47731  0.25459  0.99556  1.0000
  H   H378      1.0  0.14468  0.42446  0.32482  1.0000
  C   C232      1.0  0.04667  0.39295  0.19192  1.0000
  S   S67       1.0  0.10013  0.24787  0.40479  1.0000
  H   H379      1.0  0.37490  0.28545  0.03193  1.0000
  H   H380      1.0  0.26179  0.46654  0.04923  1.0000
  C   C233      1.0  0.09116  0.39207  0.32844  1.0000
  C   C234      1.0  0.33845  0.27031  0.03389  1.0000
  C   C235      1.0  0.25476  0.47123  0.03478  1.0000
  H   H381      1.0  0.19217  0.44988  0.05671  1.0000
  H   H382      1.0  0.02185  0.39671  0.15592  1.0000
  H   H383      1.0  0.32565  0.26567  0.02514  1.0000
  H   H384      1.0  0.32826  0.29113  0.00127  1.0000
  C   C236      1.0  0.26618  0.43104  0.01891  1.0000
  H   H385      1.0  0.00136  0.28545  0.39698  1.0000
  C   C237      1.0  0.04148  0.37104  0.18827  1.0000
  H   H386      1.0  0.05260  0.43842  0.16625  1.0000
  H   H387      1.0  0.07154  0.42618  0.14095  1.0000
  H   H388      1.0  0.00203  0.31194  0.32754  1.0000
  H   H389      1.0  0.05475  0.38487  0.15251  1.0000
  H   H390      1.0  0.12769  0.47098  0.29487  1.0000
  C   C238      1.0  0.22141  0.45984  0.04563  1.0000
  H   H391      1.0  0.06230  0.39243  0.19736  1.0000
  S   S68       1.0  0.05134  0.24895  0.40148  1.0000
  H   H392      1.0  0.07487  0.39651  0.16354  1.0000
  H   H393      1.0  0.30028  0.28744  0.03750  1.0000
  C   C239      1.0  0.24746  0.43597  0.03264  1.0000
  H   H394      1.0  0.36524  0.32558  0.02048  1.0000
  H   H395      1.0  0.39969  0.24300  0.02028  1.0000
  H   H396      1.0  0.36279  0.29318  0.05432  1.0000
  C   C240      1.0  0.02959  0.25639  0.35094  1.0000
  H   H397      1.0  0.99930  0.39424  0.18262  1.0000
  H   H398      1.0  0.07063  0.40435  0.12660  1.0000
  H   H399      1.0  0.04411  0.26124  0.35653  1.0000
  C   C241      1.0  0.03487  0.24300  0.33284  1.0000
  H   H400      1.0  0.34597  0.26747  0.06606  1.0000
  S   S69       1.0  0.45129  0.24825  0.07060  1.0000
  H   H401      1.0  0.21539  0.47564  0.04538  1.0000
  H   H402      1.0  0.29503  0.31278  0.04448  1.0000
  Fe  Fe34      1.0  0.41848  0.24634  0.08248  1.0000
  C   C242      1.0  0.01852  0.30950  0.32817  1.0000
  H   H403      1.0  0.37458  0.29331  0.99789  1.0000
  H   H404      1.0  0.27961  0.43865  0.02372  1.0000
  C   C243      1.0  0.99643  0.39900  0.23944  1.0000
  H   H405      1.0  0.31931  0.27032  0.06199  1.0000
  H   H406      1.0  0.00531  0.30057  0.36388  1.0000
  H   H407      1.0  0.04217  0.25139  0.31993  1.0000
  H   H408      1.0  0.26368  0.43488  0.00281  1.0000
  H   H409      1.0  0.21489  0.43334  0.00805  1.0000
  H   H410      1.0  0.01097  0.26148  0.38962  1.0000
  H   H411      1.0  0.99412  0.41993  0.17635  1.0000
  H   H412      1.0  0.28033  0.48431  0.08475  1.0000
  H   H413      1.0  0.22108  0.47552  0.00907  1.0000
  C   C244      1.0  0.35992  0.28700  0.99469  1.0000
  C   C245      1.0  0.22156  0.44528  0.99817  1.0000
  H   H414      1.0  0.02715  0.37006  0.18057  1.0000
  Fe  Fe35      1.0  0.41116  0.25450  0.87372  1.0000
  S   S70       1.0  0.44101  0.26387  0.85837  1.0000
  Fe  Fe36      1.0  0.36474  0.26221  0.87892  1.0000
  S   S71       1.0  0.33334  0.27730  0.87320  1.0000
  S   S72       1.0  0.39118  0.27170  0.89596  1.0000
  C   C246      1.0  0.01429  0.26026  0.53785  1.0000
  Fe  Fe37      1.0  0.25952  0.38130  0.87747  1.0000
  S   S73       1.0  0.23314  0.36876  0.89545  1.0000
  S   S74       1.0  0.29147  0.36648  0.87298  1.0000
  Fe  Fe38      1.0  0.23816  0.42425  0.87505  1.0000
  S   S75       1.0  0.21102  0.41411  0.89355  1.0000
  S   S76       1.0  0.23851  0.45568  0.85959  1.0000
  Fe  Fe39      1.0  0.23306  0.39679  0.91350  1.0000
  S   S77       1.0  0.24117  0.39702  0.94674  1.0000
  Fe  Fe40      1.0  0.21324  0.38717  0.87371  1.0000
  S   S78       1.0  0.18546  0.37401  0.86003  1.0000
  S   S79       1.0  0.26000  0.40891  0.89593  1.0000
  S   S80       1.0  0.23985  0.39785  0.85462  1.0000
  Fe  Fe41      1.0  0.10186  0.39565  0.76661  1.0000
  S   S81       1.0  0.10772  0.39786  0.73274  1.0000
  S   S82       1.0  0.12999  0.40038  0.78518  1.0000
  Fe  Fe42      1.0  0.05559  0.39354  0.76081  1.0000
  S   S83       1.0  0.05915  0.39601  0.72714  1.0000
  S   S84       1.0  0.02464  0.38968  0.77670  1.0000
  Fe  Fe43      1.0  0.08523  0.37349  0.73032  1.0000
  S   S85       1.0  0.08823  0.34225  0.71593  1.0000
  Fe  Fe44      1.0  0.08111  0.42011  0.73273  1.0000
  S   S86       1.0  0.07990  0.45032  0.71501  1.0000
  S   S87       1.0  0.08086  0.37004  0.76429  1.0000
  S   S88       1.0  0.07600  0.41886  0.76629  1.0000
  Fe  Fe45      1.0  0.08565  0.26886  0.61468  1.0000
  S   S89       1.0  0.09104  0.29830  0.63097  1.0000
  Fe  Fe46      1.0  0.08765  0.25432  0.57022  1.0000
  S   S90       1.0  0.09881  0.26246  0.53796  1.0000
  S   S91       1.0  0.06620  0.27429  0.58794  1.0000
  S   S92       1.0  0.10896  0.25106  0.59581  1.0000
  H   H415      1.0  0.33732  0.42257  0.82593  1.0000
  C   C247      1.0  0.16208  0.37852  0.74104  1.0000
  C   C248      1.0  0.09034  0.25281  0.51545  1.0000
  C   C249      1.0  0.29620  0.37928  0.94594  1.0000
  H   H416      1.0  0.31960  0.47807  0.82106  1.0000
  C   C250      1.0  0.08843  0.33054  0.69204  1.0000
  C   C251      1.0  0.08987  0.34143  0.67357  1.0000
  C   C252      1.0  0.09054  0.33131  0.65519  1.0000
  C   C253      1.0  0.08943  0.31018  0.65484  1.0000
  C   C254      1.0  0.08768  0.29932  0.67334  1.0000
  C   C255      1.0  0.08742  0.30940  0.69172  1.0000
  H   H417      1.0  0.09079  0.35764  0.67338  1.0000
  H   H418      1.0  0.09197  0.33995  0.64107  1.0000
  H   H419      1.0  0.08696  0.28310  0.67346  1.0000
  H   H420      1.0  0.08647  0.30068  0.70582  1.0000
  C   C256      1.0  0.00137  0.39087  0.76439  1.0000
  C   C257      1.0  0.00037  0.39594  0.74381  1.0000
  C   C258      1.0  0.99556  0.34774  0.70866  1.0000
  H   H421      1.0  0.01389  0.39998  0.73520  1.0000
  H   H422      1.0  0.16392  0.39200  0.75003  1.0000
  C   C259      1.0  0.08406  0.47359  0.72611  1.0000
  C   C260      1.0  0.09004  0.47432  0.74597  1.0000
  N   N18       1.0  0.28829  0.34234  0.93795  1.0000
  H   H423      1.0  0.09230  0.46049  0.75487  1.0000
  H   H424      1.0  0.32890  0.42983  0.85840  1.0000
  C   C261      1.0  0.17022  0.38176  0.83916  1.0000
  C   C262      1.0  0.17476  0.39815  0.82602  1.0000
  C   C263      1.0  0.16233  0.40352  0.80970  1.0000
  C   C264      1.0  0.14505  0.39275  0.80621  1.0000
  C   C265      1.0  0.14050  0.37635  0.81933  1.0000
  C   C266      1.0  0.15301  0.37090  0.83558  1.0000
  H   H425      1.0  0.18788  0.40668  0.82843  1.0000
  H   H426      1.0  0.16609  0.41622  0.79973  1.0000
  H   H427      1.0  0.12726  0.36796  0.81711  1.0000
  H   H428      1.0  0.14922  0.35824  0.84559  1.0000
  H   H429      1.0  0.13812  0.32620  0.78590  1.0000
  C   C267      1.0  0.23012  0.39378  0.97150  1.0000
  N   N19       1.0  0.01181  0.24453  0.52253  1.0000
  H   H430      1.0  0.19921  0.39505  0.96306  1.0000
  C   C268      1.0  0.01872  0.31846  0.71178  1.0000
  C   C269      1.0  0.30341  0.45618  0.88800  1.0000
  C   C270      1.0  0.14340  0.34498  0.72306  1.0000
  H   H431      1.0  0.27276  0.33203  0.96552  1.0000
  H   H432      1.0  0.02623  0.34059  0.76945  1.0000
  C   C271      1.0  0.29084  0.43515  0.83689  1.0000
  C   C272      1.0  0.32212  0.30229  0.87299  1.0000
  C   C273      1.0  0.33350  0.31954  0.87299  1.0000
  C   C274      1.0  0.32385  0.33893  0.87263  1.0000
  C   C275      1.0  0.30268  0.34147  0.87254  1.0000
  C   C276      1.0  0.29129  0.32421  0.87261  1.0000
  C   C277      1.0  0.30095  0.30483  0.87268  1.0000
  H   H433      1.0  0.34976  0.31796  0.87311  1.0000
  H   H434      1.0  0.33291  0.35207  0.87256  1.0000
  H   H435      1.0  0.27503  0.32578  0.87241  1.0000
  H   H436      1.0  0.29192  0.29168  0.87259  1.0000
  H   H437      1.0  0.30822  0.34964  0.91236  1.0000
  H   H438      1.0  0.04215  0.33853  0.68279  1.0000
  C   C278      1.0  0.46422  0.26328  0.87072  1.0000
  H   H439      1.0  0.27443  0.43935  0.83826  1.0000
  H   H440      1.0  0.04443  0.25075  0.54843  1.0000
  N   N20       1.0  0.30251  0.44787  0.85021  1.0000
  H   H441      1.0  0.00319  0.32758  0.74692  1.0000
  C   C279      1.0  0.29755  0.46984  0.84538  1.0000
  C   C280      1.0  0.30305  0.47792  0.82389  1.0000
  H   H442      1.0  0.00654  0.25641  0.55252  1.0000
  C   C281      1.0  0.29506  0.44334  0.87169  1.0000
  C   C282      1.0  0.31898  0.32071  0.92475  1.0000
  H   H443      1.0  0.01493  0.26799  0.49896  1.0000
  H   H444      1.0  0.28115  0.47314  0.84809  1.0000
  C   C283      1.0  0.48221  0.26672  0.85932  1.0000
  H   H445      1.0  0.17734  0.37240  0.73701  1.0000
  H   H446      1.0  0.13419  0.37151  0.75580  1.0000
  H   H447      1.0  0.29577  0.46983  0.81213  1.0000
  H   H448      1.0  0.29482  0.43783  0.82071  1.0000
  C   C284      1.0  0.03618  0.26446  0.54266  1.0000
  H   H449      1.0  0.19351  0.31868  0.73903  1.0000
  H   H450      1.0  0.03585  0.27547  0.55480  1.0000
  H   H451      1.0  0.29701  0.47186  0.88727  1.0000
  Fe  Fe47      1.0  0.05029  0.24619  0.59812  1.0000
  H   H452      1.0  0.19650  0.49012  0.87032  1.0000
  H   H453      1.0  0.16361  0.48440  0.85545  1.0000
  C   C285      1.0  0.02111  0.25251  0.50275  1.0000
  H   H454      1.0  0.48163  0.26972  0.84323  1.0000
  H   H455      1.0  0.05133  0.31803  0.71826  1.0000
  C   C286      1.0  0.09593  0.26214  0.49675  1.0000
  H   H456      1.0  0.27370  0.37031  0.92686  1.0000
  H   H457      1.0  0.35723  0.24458  0.81377  1.0000
  H   H458      1.0  0.11396  0.34311  0.74970  1.0000
  S   S93       1.0  0.06908  0.24118  0.62562  1.0000
  H   H459      1.0  0.27867  0.31699  0.92154  1.0000
  C   C287      1.0  0.14079  0.32508  0.71254  1.0000
  H   H460      1.0  0.29205  0.25089  0.82344  1.0000
  C   C288      1.0  0.01180  0.34063  0.74071  1.0000
  C   C289      1.0  0.28073  0.36384  0.94079  1.0000
  C   C290      1.0  0.30279  0.33643  0.97346  1.0000
  H   H461      1.0  0.03764  0.25397  0.50368  1.0000
  C   C291      1.0  0.03127  0.35353  0.71049  1.0000
  S   S94       1.0  0.01637  0.25342  0.59559  1.0000
  H   H462      1.0  0.10506  0.27526  0.49634  1.0000
  H   H463      1.0  0.04475  0.27138  0.52964  1.0000
  H   H464      1.0  0.33111  0.25256  0.81407  1.0000
  H   H465      1.0  0.31989  0.35032  0.93542  1.0000
  H   H466      1.0  0.41101  0.25245  0.98517  1.0000
  H   H467      1.0  0.02724  0.36933  0.71448  1.0000
  H   H468      1.0  0.03811  0.35613  0.75052  1.0000
  C   C292      1.0  0.12568  0.33491  0.77860  1.0000
  C   C293      1.0  0.12752  0.33465  0.75533  1.0000
  H   H469      1.0  0.24540  0.34784  0.93543  1.0000
  C   C294      1.0  0.30892  0.34182  0.92747  1.0000
  C   C295      1.0  0.24295  0.39186  0.98783  1.0000
  H   H470      1.0  0.24952  0.32213  0.94502  1.0000
  H   H471      1.0  0.34947  0.44572  0.82587  1.0000
  H   H472      1.0  0.28432  0.40765  0.85512  1.0000
  H   H473      1.0  0.02371  0.35911  0.67854  1.0000
  C   C296      1.0  0.33441  0.43902  0.82748  1.0000
  C   C297      1.0  0.29705  0.25126  0.83908  1.0000
  H   H474      1.0  0.33318  0.45594  0.85465  1.0000
  H   H475      1.0  0.30533  0.47966  0.85544  1.0000
  H   H476      1.0  0.28649  0.40426  0.82875  1.0000
  H   H477      1.0  0.28984  0.31400  0.95560  1.0000
  H   H478      1.0  0.04895  0.36401  0.68417  1.0000
  H   H479      1.0  0.23226  0.43824  0.98696  1.0000
  H   H480      1.0  0.29868  0.44973  0.90309  1.0000
  C   C298      1.0  0.29299  0.41220  0.84117  1.0000
  H   H481      1.0  0.04359  0.29665  0.70668  1.0000
  C   C299      1.0  0.48383  0.25954  0.90086  1.0000
  H   H482      1.0  0.32581  0.44513  0.81462  1.0000
  C   C300      1.0  0.03079  0.34150  0.75315  1.0000
  H   H483      1.0  0.31061  0.31144  0.91479  1.0000
  C   C301      1.0  0.32497  0.44337  0.84866  1.0000
  H   H484      1.0  0.30507  0.37444  0.95907  1.0000
  H   H485      1.0  0.30641  0.38281  0.93268  1.0000
  H   H486      1.0  0.32127  0.31246  0.93936  1.0000
  H   H487      1.0  0.31756  0.34087  0.96682  1.0000
  H   H488      1.0  0.13877  0.32851  0.69622  1.0000
  H   H489      1.0  0.18388  0.33947  0.72486  1.0000
  H   H490      1.0  0.11142  0.32785  0.78386  1.0000
  H   H491      1.0  0.12471  0.35047  0.78407  1.0000
  H   H492      1.0  0.30628  0.32311  0.98352  1.0000
  H   H493      1.0  0.27446  0.34088  0.90916  1.0000
  H   H494      1.0  0.12708  0.31733  0.71820  1.0000
  H   H495      1.0  0.19306  0.34322  0.74960  1.0000
  H   H496      1.0  0.15441  0.38401  0.72723  1.0000
  H   H497      1.0  0.16044  0.31290  0.74796  1.0000
  H   H498      1.0  0.16624  0.32859  0.76713  1.0000
  H   H499      1.0  0.15595  0.35250  0.71468  1.0000
  H   H500      1.0  0.27833  0.44502  0.87307  1.0000
  H   H501      1.0  0.12578  0.31876  0.75138  1.0000
  H   H502      1.0  0.15542  0.36215  0.76903  1.0000
  H   H503      1.0  0.15423  0.31475  0.71380  1.0000
  C   C302      1.0  0.20928  0.39360  0.97544  1.0000
  H   H504      1.0  0.24268  0.32719  0.91965  1.0000
  H   H505      1.0  0.04193  0.32905  0.75039  1.0000
  N   N21       1.0  0.01479  0.33983  0.71805  1.0000
  H   H506      1.0  0.28397  0.25734  0.84825  1.0000
  H   H507      1.0  0.32009  0.45621  0.88727  1.0000
  H   H508      1.0  0.00664  0.30869  0.71814  1.0000
  H   H509      1.0  0.48427  0.25704  0.91703  1.0000
  C   C303      1.0  0.18461  0.33310  0.74043  1.0000
  H   H510      1.0  0.00245  0.35422  0.74481  1.0000
  H   H511      1.0  0.04562  0.34996  0.71789  1.0000
  C   C304      1.0  0.16386  0.32879  0.75065  1.0000
  H   H512      1.0  0.01769  0.31723  0.69519  1.0000
  C   C305      1.0  0.27409  0.33292  0.92428  1.0000
  C   C306      1.0  0.28792  0.33050  0.95779  1.0000
  H   H513      1.0  0.28797  0.39362  0.94971  1.0000
  C   C307      1.0  0.24531  0.47918  0.86840  1.0000
  C   C308      1.0  0.03651  0.35357  0.68764  1.0000
  C   C309      1.0  0.03867  0.30785  0.71803  1.0000
  H   H514      1.0  0.45146  0.25690  0.90052  1.0000
  H   H515      1.0  0.03680  0.29992  0.73300  1.0000
  C   C310      1.0  0.14912  0.36355  0.75373  1.0000
  H   H516      1.0  0.30886  0.40670  0.84236  1.0000
  H   H517      1.0  0.29884  0.42741  0.87639  1.0000
  H   H518      1.0  0.26857  0.36439  0.95286  1.0000
  C   C311      1.0  0.46517  0.25949  0.89154  1.0000
  C   C312      1.0  0.25175  0.33267  0.93181  1.0000
  H   H519      1.0  0.25409  0.46830  0.89782  1.0000
  H   H520      1.0  0.34712  0.26131  0.83212  1.0000
  H   H521      1.0  0.33416  0.32245  0.91732  1.0000
  H   H522      1.0  0.00689  0.27484  0.53282  1.0000
  H   H523      1.0  0.12991  0.35501  0.72002  1.0000
  N   N22       1.0  0.14649  0.34306  0.74544  1.0000
  H   H524      1.0  0.14368  0.24651  0.53445  1.0000
  H   H525      1.0  0.18452  0.47861  0.83881  1.0000
  H   H526      1.0  0.15813  0.24668  0.55639  1.0000
  H   H527      1.0  0.35750  0.29024  0.97842  1.0000
  S   S95       1.0  0.38497  0.24777  0.85475  1.0000
  C   C313      1.0  0.25294  0.48125  0.88747  1.0000
  H   H528      1.0  0.25909  0.39194  0.98499  1.0000
  S   S96       1.0  0.39687  0.24428  0.94649  1.0000
  C   C314      1.0  0.39784  0.24352  0.98782  1.0000
  H   H529      1.0  0.29612  0.34873  0.98275  1.0000
  C   C315      1.0  0.34369  0.24787  0.82368  1.0000
  H   H530      1.0  0.20908  0.45207  0.98924  1.0000
  Fe  Fe48      1.0  0.38935  0.24178  0.91324  1.0000
  H   H531      1.0  0.30906  0.26218  0.84016  1.0000
  H   H532      1.0  0.99367  0.36434  0.71005  1.0000
  H   H533      1.0  0.99604  0.34527  0.69219  1.0000
  H   H534      1.0  0.04558  0.48267  0.77259  1.0000
  H   H535      1.0  0.05450  0.71726  0.33213  1.0000
  S   S97       1.0  0.43617  0.71634  0.12227  1.0000
  Fe  Fe49      1.0  0.36021  0.72360  0.10619  1.0000
  S   S98       1.0  0.32986  0.70749  0.11131  1.0000
  S   S99       1.0  0.38737  0.71212  0.08817  1.0000
  C   C316      1.0  0.04576  0.65681  0.37829  1.0000
  Fe  Fe50      1.0  0.08994  0.61678  0.26874  1.0000
  S   S100      1.0  0.07372  0.62081  0.23944  1.0000
  S   S101      1.0  0.09344  0.64717  0.28401  1.0000
  Fe  Fe51      1.0  0.09276  0.57009  0.26420  1.0000
  S   S102      1.0  0.07601  0.57204  0.23573  1.0000
  S   S103      1.0  0.10623  0.54005  0.27676  1.0000
  Fe  Fe52      1.0  0.09644  0.59770  0.22673  1.0000
  S   S104      1.0  0.11158  0.59553  0.19480  1.0000
  Fe  Fe53      1.0  0.05517  0.59485  0.25106  1.0000
  S   S105      1.0  0.02106  0.59344  0.25800  1.0000
  S   S106      1.0  0.11370  0.59528  0.25508  1.0000
  S   S107      1.0  0.07089  0.59133  0.28050  1.0000
  Fe  Fe54      1.0  0.25786  0.60861  0.10115  1.0000
  S   S108      1.0  0.22964  0.62821  0.09894  1.0000
  S   S109      1.0  0.28967  0.62159  0.10272  1.0000
  Fe  Fe55      1.0  0.23385  0.56919  0.09874  1.0000
  S   S110      1.0  0.20461  0.58746  0.09614  1.0000
  S   S111      1.0  0.22593  0.53575  0.09913  1.0000
  Fe  Fe56      1.0  0.22209  0.60767  0.07430  1.0000
  S   S112      1.0  0.20956  0.61936  0.04427  1.0000
  Fe  Fe57      1.0  0.21482  0.60574  0.12104  1.0000
  S   S113      1.0  0.19782  0.61403  0.15090  1.0000
  S   S114      1.0  0.25070  0.58874  0.07557  1.0000
  S   S115      1.0  0.24362  0.58700  0.12458  1.0000
  H   H536      1.0  0.17092  0.51380  0.06314  1.0000
  H   H537      1.0  0.21936  0.63866  0.17744  1.0000
  Fe  Fe58      1.0  0.08966  0.72054  0.38177  1.0000
  S   S116      1.0  0.09493  0.68828  0.37028  1.0000
  N   N23       1.0  0.18601  0.55741  0.04274  1.0000
  H   H538      1.0  0.00202  0.69086  0.26051  1.0000
  H   H539      1.0  0.00058  0.69633  0.40536  1.0000
  C   C317      1.0  0.04147  0.63846  0.30323  1.0000
  N   N24       1.0  0.02116  0.65538  0.27414  1.0000
  C   C318      1.0  0.03934  0.64261  0.28035  1.0000
  C   C319      1.0  0.23662  0.51095  0.09623  1.0000
  C   C320      1.0  0.25699  0.50711  0.09095  1.0000
  C   C321      1.0  0.32870  0.72891  0.00876  1.0000
  H   H540      1.0  0.26697  0.51953  0.08868  1.0000
  C   C322      1.0  0.02287  0.67592  0.28252  1.0000
  C   C323      1.0  0.21802  0.61099  0.02014  1.0000
  H   H541      1.0  0.05346  0.64964  0.27484  1.0000
  H   H542      1.0  0.02263  0.71551  0.38359  1.0000
  H   H543      1.0  0.30349  0.71784  0.02624  1.0000
  C   C324      1.0  0.13584  0.60058  0.18313  1.0000
  C   C325      1.0  0.15091  0.60981  0.19309  1.0000
  C   C326      1.0  0.16971  0.61365  0.18304  1.0000
  C   C327      1.0  0.17392  0.60815  0.16296  1.0000
  C   C328      1.0  0.15897  0.59860  0.15313  1.0000
  C   C329      1.0  0.14009  0.59500  0.16309  1.0000
  H   H544      1.0  0.14800  0.61428  0.20844  1.0000
  H   H545      1.0  0.18102  0.62110  0.19087  1.0000
  H   H546      1.0  0.16181  0.59431  0.13772  1.0000
  H   H547      1.0  0.12862  0.58790  0.15514  1.0000
  C   C330      1.0  0.09324  0.65814  0.30830  1.0000
  C   C331      1.0  0.09413  0.64659  0.32639  1.0000
  C   C332      1.0  0.09481  0.65606  0.34504  1.0000
  C   C333      1.0  0.09425  0.67723  0.34608  1.0000
  C   C334      1.0  0.09284  0.68878  0.32803  1.0000
  C   C335      1.0  0.09246  0.67931  0.30935  1.0000
  H   H548      1.0  0.09485  0.63033  0.32598  1.0000
  H   H549      1.0  0.09598  0.64686  0.35879  1.0000
  H   H550      1.0  0.09251  0.70504  0.32840  1.0000
  H   H551      1.0  0.09189  0.68849  0.29554  1.0000
  H   H552      1.0  0.24053  0.58959  0.03107  1.0000
  H   H553      1.0  0.03779  0.68379  0.24394  1.0000
  H   H554      1.0  0.05379  0.66113  0.24388  1.0000
  H   H555      1.0  0.01311  0.72648  0.48343  1.0000
  C   C336      1.0  0.01266  0.70595  0.37532  1.0000
  C   C337      1.0  0.09108  0.50416  0.26248  1.0000
  C   C338      1.0  0.10427  0.51342  0.27496  1.0000
  C   C339      1.0  0.11739  0.50108  0.28642  1.0000
  H   H556      1.0  0.08081  0.51343  0.25354  1.0000
  H   H557      1.0  0.12767  0.50789  0.29605  1.0000
  C   C340      1.0  0.31917  0.68348  0.10812  1.0000
  C   C341      1.0  0.33090  0.66587  0.10469  1.0000
  C   C342      1.0  0.32162  0.64724  0.10292  1.0000
  C   C343      1.0  0.30046  0.64584  0.10419  1.0000
  C   C344      1.0  0.28874  0.66354  0.10713  1.0000
  C   C345      1.0  0.29802  0.68208  0.10933  1.0000
  H   H558      1.0  0.34716  0.66650  0.10379  1.0000
  H   H559      1.0  0.33095  0.63374  0.10068  1.0000
  H   H560      1.0  0.27251  0.66294  0.10786  1.0000
  H   H561      1.0  0.28870  0.69553  0.11188  1.0000
  C   C346      1.0  0.99816  0.60218  0.24723  1.0000
  H   H562      1.0  0.29738  0.70111  0.07007  1.0000
  C   C347      1.0  0.03180  0.67504  0.38389  1.0000
  H   H563      1.0  0.34787  0.68504  0.01780  1.0000
  H   H564      1.0  0.15573  0.56991  0.04903  1.0000
  N   N25       1.0  0.26144  0.63940  0.16636  1.0000
  C   C348      1.0  0.26732  0.61781  0.17231  1.0000
  C   C349      1.0  0.24979  0.64802  0.18424  1.0000
  C   C350      1.0  0.28064  0.65052  0.16220  1.0000
  C   C351      1.0  0.24928  0.63937  0.14771  1.0000
  C   C352      1.0  0.28219  0.60675  0.15766  1.0000
  C   C353      1.0  0.27864  0.67357  0.15893  1.0000
  C   C354      1.0  0.23613  0.65850  0.14244  1.0000
  H   H565      1.0  0.25918  0.64697  0.19776  1.0000
  C   C355      1.0  0.17041  0.56788  0.05629  1.0000
  H   H566      1.0  0.24618  0.66431  0.18210  1.0000
  H   H567      1.0  0.29105  0.64751  0.17478  1.0000
  H   H568      1.0  0.28885  0.64501  0.14840  1.0000
  H   H569      1.0  0.25928  0.63627  0.13423  1.0000
  H   H570      1.0  0.23890  0.62661  0.14875  1.0000
  H   H571      1.0  0.28356  0.59059  0.16254  1.0000
  H   H572      1.0  0.27688  0.60737  0.14212  1.0000
  H   H573      1.0  0.29755  0.61270  0.15765  1.0000
  H   H574      1.0  0.27262  0.68122  0.17254  1.0000
  H   H575      1.0  0.26976  0.67809  0.14569  1.0000
  H   H576      1.0  0.29394  0.67937  0.15557  1.0000
  H   H577      1.0  0.24037  0.66434  0.12699  1.0000
  H   H578      1.0  0.23696  0.67111  0.15253  1.0000
  H   H579      1.0  0.22003  0.65460  0.14216  1.0000
  H   H580      1.0  0.27424  0.61684  0.18732  1.0000
  H   H581      1.0  0.08823  0.71290  0.46810  1.0000
  C   C356      1.0  0.23763  0.58778  0.99894  1.0000
  C   C357      1.0  0.38376  0.73316  0.99648  1.0000
  H   H582      1.0  0.05268  0.70403  0.36572  1.0000
  H   H583      1.0  0.00631  0.71621  0.36342  1.0000
  H   H584      1.0  0.04404  0.65240  0.31116  1.0000
  H   H585      1.0  0.21064  0.57539  0.05069  1.0000
  C   C358      1.0  0.31753  0.73467  0.05934  1.0000
  H   H586      1.0  0.00036  0.64801  0.29923  1.0000
  C   C359      1.0  0.03982  0.71081  0.33701  1.0000
  C   C360      1.0  0.00739  0.69251  0.27583  1.0000
  H   H587      1.0  0.23811  0.54997  0.04898  1.0000
  H   H588      1.0  0.22687  0.55139  0.02511  1.0000
  H   H589      1.0  0.02216  0.64036  0.24581  1.0000
  H   H590      1.0  0.23959  0.49940  0.02316  1.0000
  C   C361      1.0  0.18099  0.53591  0.03959  1.0000
  C   C362      1.0  0.01254  0.67631  0.35302  1.0000
  H   H591      1.0  0.17509  0.58344  0.05907  1.0000
  C   C363      1.0  0.36372  0.68284  0.04537  1.0000
  H   H592      1.0  0.32772  0.68009  0.06276  1.0000
  H   H593      1.0  0.00328  0.55367  0.23112  1.0000
  H   H594      1.0  0.37895  0.68027  0.03813  1.0000
  H   H595      1.0  0.36574  0.69097  0.05926  1.0000
  H   H596      1.0  0.35769  0.66780  0.04934  1.0000
  H   H597      1.0  0.16474  0.53512  0.03636  1.0000
  C   C364      1.0  0.08767  0.72275  0.48068  1.0000
  H   H598      1.0  0.39159  0.71861  0.99788  1.0000
  H   H599      1.0  0.03480  0.70272  0.32401  1.0000
  N   N26       1.0  0.33043  0.70345  0.03911  1.0000
  H   H600      1.0  0.47542  0.70900  0.13852  1.0000
  H   H601      1.0  0.28749  0.69605  0.04566  1.0000
  C   C365      1.0  0.18630  0.56904  0.02266  1.0000
  C   C366      1.0  0.31865  0.71189  0.02155  1.0000
  H   H602      1.0  0.25381  0.60841  0.17392  1.0000
  H   H603      1.0  0.35970  0.70728  0.02390  1.0000
  H   H604      1.0  0.41764  0.73610  0.15870  1.0000
  H   H605      1.0  0.10335  0.53779  0.22925  1.0000
  H   H606      1.0  0.31573  0.69969  0.01118  1.0000
  C   C367      1.0  0.99708  0.60943  0.22722  1.0000
  C   C368      1.0  0.23291  0.59567  0.01799  1.0000
  C   C369      1.0  0.47746  0.71810  0.12475  1.0000
  H   H607      1.0  0.00701  0.53563  0.21202  1.0000
  H   H608      1.0  0.20818  0.49726  0.10329  1.0000
  C   C370      1.0  0.35029  0.69501  0.03047  1.0000
  H   H609      1.0  0.02854  0.63044  0.31035  1.0000
  Fe  Fe59      1.0  0.40655  0.72829  0.10895  1.0000
  H   H610      1.0  0.34776  0.72812  0.04822  1.0000
  C   C371      1.0  0.04319  0.69627  0.35529  1.0000
  C   C372      1.0  0.16544  0.55755  0.07702  1.0000
  C   C373      1.0  0.02142  0.65598  0.25138  1.0000
  S   S117      1.0  0.37958  0.73725  0.12914  1.0000
  C   C374      1.0  0.29778  0.69062  0.05754  1.0000
  H   H611      1.0  0.23188  0.62233  0.19589  1.0000
  H   H612      1.0  0.29164  0.67634  0.06403  1.0000
  C   C375      1.0  0.20851  0.61884  0.00283  1.0000
  H   H613      1.0  0.10710  0.51309  0.21931  1.0000
  H   H614      1.0  0.05507  0.62846  0.30550  1.0000
  H   H615      1.0  0.15874  0.51978  0.24252  1.0000
  C   C376      1.0  0.22966  0.63811  0.19013  1.0000
  H   H616      1.0  0.22202  0.53067  0.04290  1.0000
  C   C377      1.0  0.00263  0.64518  0.28289  1.0000
  H   H617      1.0  0.27412  0.63034  0.00052  1.0000
  H   H618      1.0  0.05282  0.68368  0.34927  1.0000
  H   H619      1.0  0.09427  0.53275  0.20511  1.0000
  H   H620      1.0  0.15358  0.57230  0.01680  1.0000
  C   C378      1.0  0.46054  0.72396  0.11354  1.0000
  H   H621      1.0  0.15581  0.56811  0.08615  1.0000
  H   H622      1.0  0.31892  0.67347  0.03909  1.0000
  H   H623      1.0  0.23961  0.49650  0.05055  1.0000
  C   C379      1.0  0.03865  0.66761  0.24049  1.0000
  H   H624      1.0  0.33976  0.71181  0.06833  1.0000
  N   N27       1.0  0.02467  0.68847  0.36649  1.0000
  H   H625      1.0  0.00447  0.66431  0.36195  1.0000
  H   H626      1.0  0.45061  0.73947  0.00352  1.0000
  H   H627      1.0  0.19466  0.50734  0.05111  1.0000
  C   C380      1.0  0.18522  0.52015  0.05695  1.0000
  H   H628      1.0  0.03827  0.68171  0.27944  1.0000
  H   H629      1.0  0.18934  0.53038  0.02584  1.0000
  C   C381      1.0  0.16799  0.56705  0.00944  1.0000
  C   C382      1.0  0.31949  0.68617  0.04945  1.0000
  H   H630      1.0  0.02272  0.66809  0.34213  1.0000
  H   H631      1.0  0.19964  0.56460  0.01297  1.0000
  H   H632      1.0  0.24978  0.63777  0.99275  1.0000
  N   N28       1.0  0.14452  0.53667  0.21806  1.0000
  C   C383      1.0  0.14202  0.55583  0.22942  1.0000
  C   C384      1.0  0.12682  0.53576  0.20468  1.0000
  C   C385      1.0  0.16372  0.53623  0.20514  1.0000
  C   C386      1.0  0.14542  0.51906  0.23308  1.0000
  C   C387      1.0  0.15946  0.56056  0.24280  1.0000
  S   S118      1.0  0.06211  0.72541  0.40261  1.0000
  C   C388      1.0  0.16639  0.55444  0.19024  1.0000
  H   H633      1.0  0.17885  0.55366  0.08590  1.0000
  H   H634      1.0  0.13949  0.56914  0.21897  1.0000
  H   H635      1.0  0.12823  0.55553  0.23950  1.0000
  H   H636      1.0  0.13010  0.52541  0.19213  1.0000
  H   H637      1.0  0.12365  0.55070  0.19695  1.0000
  H   H638      1.0  0.17719  0.53481  0.21455  1.0000
  H   H639      1.0  0.18047  0.55207  0.18085  1.0000
  C   C389      1.0  0.99625  0.68788  0.34069  1.0000
  H   H640      1.0  0.13251  0.51968  0.24428  1.0000
  H   H641      1.0  0.15619  0.57553  0.24930  1.0000
  H   H642      1.0  0.16076  0.54960  0.25577  1.0000
  H   H643      1.0  0.17407  0.56157  0.23421  1.0000
  C   C390      1.0  0.20647  0.55934  0.05127  1.0000
  C   C391      1.0  0.10684  0.52947  0.21538  1.0000
  H   H644      1.0  0.02139  0.67499  0.29925  1.0000
  H   H645      1.0  0.16791  0.56861  0.19814  1.0000
  H   H646      1.0  0.15384  0.55627  0.17980  1.0000
  H   H647      1.0  0.03992  0.64812  0.36610  1.0000
  C   C392      1.0  0.14692  0.49794  0.22412  1.0000
  C   C393      1.0  0.46340  0.73583  0.09584  1.0000
  H   H648      1.0  0.18766  0.58541  0.02493  1.0000
  H   H649      1.0  0.03959  0.62769  0.27334  1.0000
  H   H650      1.0  0.22182  0.64651  0.20248  1.0000
  H   H651      1.0  0.16677  0.55146  0.00446  1.0000
  H   H652      1.0  0.06120  0.66153  0.37402  1.0000
  H   H653      1.0  0.20641  0.55514  0.06747  1.0000
  C   C394      1.0  0.99502  0.70028  0.39012  1.0000
  H   H654      1.0  0.03993  0.68390  0.39465  1.0000
  C   C395      1.0  0.22410  0.54706  0.04122  1.0000
  H   H655      1.0  0.16475  0.52258  0.19595  1.0000
  H   H656      1.0  0.19318  0.52578  0.06969  1.0000
  H   H657      1.0  0.34163  0.72301  0.99935  1.0000
  H   H658      1.0  0.15653  0.54402  0.07550  1.0000
  H   H659      1.0  0.30241  0.73127  0.05462  1.0000
  H   H660      1.0  0.17020  0.57675  0.99553  1.0000
  H   H661      1.0  0.19686  0.63061  0.00432  1.0000
  H   H662      1.0  0.01069  0.61025  0.21772  1.0000
  H   H663      1.0  0.31624  0.73588  0.07599  1.0000
  H   H664      1.0  0.04720  0.64643  0.39174  1.0000
  C   C396      1.0  0.22394  0.49452  0.09912  1.0000
  H   H665      1.0  0.00736  0.66288  0.24537  1.0000
  H   H666      1.0  0.03726  0.66676  0.22395  1.0000
  H   H667      1.0  0.00462  0.62851  0.28195  1.0000
  H   H668      1.0  0.01881  0.66859  0.39272  1.0000
  H   H669      1.0  0.02947  0.72379  0.34044  1.0000
  C   C397      1.0  0.33475  0.71915  0.05394  1.0000
  S   S119      1.0  0.39044  0.73539  0.03668  1.0000
  H   H670      1.0  0.14057  0.49750  0.20906  1.0000
  H   H671      1.0  0.24888  0.57563  0.99757  1.0000
  H   H672      1.0  0.31771  0.73591  0.99817  1.0000
  H   H673      1.0  0.26197  0.50271  0.03649  1.0000
  C   C398      1.0  0.99538  0.54505  0.22016  1.0000
  H   H674      1.0  0.01461  0.70732  0.27521  1.0000
  C   C399      1.0  0.24828  0.49369  0.03620  1.0000
  H   H675      1.0  0.16287  0.49227  0.22294  1.0000
  H   H676      1.0  0.03973  0.72607  0.47929  1.0000
  H   H677      1.0  0.00203  0.70088  0.33165  1.0000
  H   H678      1.0  0.99422  0.69327  0.28671  1.0000
  S   S120      1.0  0.10955  0.73802  0.40149  1.0000
  H   H679      1.0  0.45061  0.74041  0.08699  1.0000
  H   H680      1.0  0.42490  0.74079  0.99947  1.0000
  S   S121      1.0  0.38673  0.72563  0.92088  1.0000
  C   C400      1.0  0.00751  0.53016  0.76692  1.0000
  Fe  Fe60      1.0  0.36816  0.72006  0.89412  1.0000
  S   S122      1.0  0.35444  0.68865  0.89212  1.0000
  H   H681      1.0  0.03811  0.69917  0.55127  1.0000
  H   H682      1.0  0.30041  0.67711  0.95645  1.0000
  Fe  Fe61      1.0  0.25358  0.61635  0.88928  1.0000
  S   S123      1.0  0.22210  0.61783  0.90424  1.0000
  S   S124      1.0  0.26892  0.64712  0.88523  1.0000
  Fe  Fe62      1.0  0.25312  0.56976  0.88875  1.0000
  S   S125      1.0  0.22257  0.56922  0.90392  1.0000
  S   S126      1.0  0.27022  0.53951  0.88504  1.0000
  Fe  Fe63      1.0  0.21409  0.59471  0.88189  1.0000
  S   S127      1.0  0.18357  0.58935  0.86755  1.0000
  Fe  Fe64      1.0  0.23323  0.59205  0.92455  1.0000
  S   S128      1.0  0.23387  0.58384  0.95843  1.0000
  S   S129      1.0  0.24481  0.59454  0.86584  1.0000
  S   S130      1.0  0.26455  0.59144  0.91034  1.0000
  S   S131      1.0  0.06557  0.72552  0.59401  1.0000
  H   H683      1.0  0.14248  0.53719  0.89086  1.0000
  H   H684      1.0  0.15332  0.50707  0.87740  1.0000
  S   S132      1.0  0.09343  0.71647  0.54160  1.0000
  H   H685      1.0  0.35281  0.71611  0.85710  1.0000
  S   S133      1.0  0.08762  0.71201  0.64960  1.0000
  Fe  Fe65      1.0  0.09111  0.56811  0.74876  1.0000
  S   S134      1.0  0.08619  0.58233  0.77880  1.0000
  S   S135      1.0  0.09467  0.53402  0.75482  1.0000
  Fe  Fe66      1.0  0.09086  0.61010  0.72618  1.0000
  S   S136      1.0  0.08615  0.62647  0.75517  1.0000
  S   S137      1.0  0.09329  0.62386  0.69361  1.0000
  Fe  Fe67      1.0  0.10955  0.60426  0.76834  1.0000
  S   S138      1.0  0.13794  0.61206  0.78520  1.0000
  Fe  Fe68      1.0  0.06327  0.60278  0.76330  1.0000
  S   S139      1.0  0.03248  0.60709  0.77963  1.0000
  S   S140      1.0  0.11558  0.58925  0.73868  1.0000
  S   S141      1.0  0.06685  0.58733  0.73396  1.0000
  C   C401      1.0  0.25316  0.63845  0.94475  1.0000
  C   C402      1.0  0.00872  0.60466  0.76886  1.0000
  C   C403      1.0  0.00683  0.60420  0.74801  1.0000
  H   H686      1.0  0.23325  0.66533  0.93973  1.0000
  H   H687      1.0  0.02008  0.60546  0.73804  1.0000
  H   H688      1.0  0.03756  0.68415  0.61635  1.0000
  C   C404      1.0  0.09054  0.51116  0.74301  1.0000
  C   C405      1.0  0.08454  0.51051  0.72314  1.0000
  H   H689      1.0  0.17855  0.50418  0.79465  1.0000
  H   H690      1.0  0.08250  0.52435  0.71419  1.0000
  C   C406      1.0  0.08950  0.68731  0.66138  1.0000
  C   C407      1.0  0.08829  0.68529  0.68261  1.0000
  C   C408      1.0  0.08930  0.66613  0.69273  1.0000
  C   C409      1.0  0.09169  0.64860  0.68177  1.0000
  C   C410      1.0  0.09298  0.65066  0.66053  1.0000
  C   C411      1.0  0.09186  0.66981  0.65040  1.0000
  H   H691      1.0  0.08648  0.69864  0.69135  1.0000
  H   H692      1.0  0.08833  0.66491  0.70903  1.0000
  H   H693      1.0  0.09487  0.63727  0.65183  1.0000
  H   H694      1.0  0.09284  0.67097  0.63410  1.0000
  H   H695      1.0  0.29058  0.64981  0.97649  1.0000
  H   H696      1.0  0.20035  0.55037  0.84342  1.0000
  Fe  Fe69      1.0  0.40933  0.74048  0.89932  1.0000
  C   C412      1.0  0.21350  0.61119  0.98366  1.0000
  C   C413      1.0  0.17130  0.59578  0.84440  1.0000
  C   C414      1.0  0.15175  0.58898  0.84185  1.0000
  C   C415      1.0  0.14139  0.59359  0.82393  1.0000
  C   C416      1.0  0.15034  0.60525  0.80818  1.0000
  C   C417      1.0  0.16996  0.61185  0.81063  1.0000
  C   C418      1.0  0.18038  0.60712  0.82850  1.0000
  H   H697      1.0  0.14438  0.58037  0.85401  1.0000
  H   H698      1.0  0.12628  0.58854  0.82250  1.0000
  H   H699      1.0  0.17712  0.62090  0.79867  1.0000
  H   H700      1.0  0.19534  0.61252  0.83005  1.0000
  C   C419      1.0  0.25849  0.51702  0.87952  1.0000
  C   C420      1.0  0.25058  0.51492  0.86061  1.0000
  H   H701      1.0  0.15125  0.52369  0.91323  1.0000
  H   H702      1.0  0.25019  0.52766  0.84993  1.0000
  H   H703      1.0  0.22066  0.64322  0.94799  1.0000
  C   C421      1.0  0.22796  0.59543  0.98167  1.0000
  H   H704      1.0  0.02752  0.56699  0.73443  1.0000
  C   C422      1.0  0.03374  0.55174  0.79628  1.0000
  H   H705      1.0  0.03714  0.51299  0.78870  1.0000
  H   H706      1.0  0.30484  0.63874  0.94451  1.0000
  C   C423      1.0  0.33040  0.67747  0.89056  1.0000
  C   C424      1.0  0.31233  0.68890  0.88881  1.0000
  C   C425      1.0  0.29390  0.67935  0.88686  1.0000
  C   C426      1.0  0.29299  0.65817  0.88713  1.0000
  C   C427      1.0  0.31099  0.64671  0.88927  1.0000
  C   C428      1.0  0.32950  0.65629  0.89080  1.0000
  H   H707      1.0  0.31255  0.70511  0.88898  1.0000
  H   H708      1.0  0.28014  0.68846  0.88535  1.0000
  H   H709      1.0  0.31073  0.63045  0.88947  1.0000
  H   H710      1.0  0.34328  0.64719  0.89214  1.0000
  H   H711      1.0  0.25051  0.62335  0.95168  1.0000
  N   N29       1.0  0.34054  0.72758  0.82897  1.0000
  C   C429      1.0  0.17338  0.50796  0.77923  1.0000
  H   H712      1.0  0.26405  0.61764  0.98061  1.0000
  H   H713      1.0  0.30291  0.60225  0.94257  1.0000
  C   C430      1.0  0.13709  0.53600  0.78413  1.0000
  C   C431      1.0  0.14067  0.53689  0.80684  1.0000
  C   C432      1.0  0.25976  0.50005  0.89287  1.0000
  H   H714      1.0  0.13208  0.52072  0.78154  1.0000
  H   H715      1.0  0.12350  0.54588  0.78118  1.0000
  H   H716      1.0  0.12763  0.53038  0.81549  1.0000
  H   H717      1.0  0.15434  0.52806  0.81124  1.0000
  H   H718      1.0  0.14148  0.55261  0.81155  1.0000
  H   H719      1.0  0.09790  0.49325  0.76970  1.0000
  H   H720      1.0  0.37159  0.69359  0.83475  1.0000
  H   H721      1.0  0.23386  0.65642  0.96592  1.0000
  H   H722      1.0  0.16145  0.56711  0.78829  1.0000
  N   N30       1.0  0.15447  0.54210  0.77007  1.0000
  H   H723      1.0  0.04959  0.71221  0.53018  1.0000
  H   H724      1.0  0.14229  0.57280  0.77097  1.0000
  H   H725      1.0  0.03629  0.56709  0.80139  1.0000
  H   H726      1.0  0.19498  0.54501  0.88456  1.0000
  H   H727      1.0  0.16077  0.54547  0.73779  1.0000
  H   H728      1.0  0.00815  0.70518  0.68176  1.0000
  C   C433      1.0  0.15693  0.56431  0.77277  1.0000
  H   H729      1.0  0.00467  0.52253  0.78198  1.0000
  H   H730      1.0  0.30727  0.66944  0.93106  1.0000
  C   C434      1.0  0.02523  0.55196  0.72863  1.0000
  C   C435      1.0  0.14151  0.70445  0.63699  1.0000
  C   C436      1.0  0.27452  0.64887  0.97263  1.0000
  H   H731      1.0  0.99255  0.60357  0.79772  1.0000
  H   H732      1.0  0.16104  0.70751  0.66142  1.0000
  H   H733      1.0  0.01181  0.70846  0.52828  1.0000
  H   H734      1.0  0.36855  0.71969  0.81248  1.0000
  C   C437      1.0  0.09095  0.71479  0.50037  1.0000
  C   C438      1.0  0.23433  0.65182  0.95008  1.0000
  H   H735      1.0  0.00600  0.68847  0.66229  1.0000
  H   H736      1.0  0.02926  0.70933  0.49822  1.0000
  H   H737      1.0  0.18101  0.53754  0.78769  1.0000
  H   H738      1.0  0.04427  0.68162  0.66123  1.0000
  C   C439      1.0  0.15593  0.53023  0.89817  1.0000
  H   H739      1.0  0.37098  0.73726  0.83151  1.0000
  H   H740      1.0  0.23882  0.49455  0.84010  1.0000
  C   C440      1.0  0.01756  0.72089  0.53684  1.0000
  H   H741      1.0  0.05312  0.55365  0.76952  1.0000
  H   H742      1.0  0.27699  0.60296  0.95033  1.0000
  H   H743      1.0  0.22054  0.52481  0.90408  1.0000
  C   C441      1.0  0.14897  0.53958  0.74856  1.0000
  C   C442      1.0  0.03676  0.55168  0.77313  1.0000
  C   C443      1.0  0.29114  0.61102  0.95124  1.0000
  N   N31       1.0  0.01942  0.71692  0.65276  1.0000
  H   H744      1.0  0.15374  0.70582  0.62516  1.0000
  H   H745      1.0  0.33593  0.71213  0.80157  1.0000
  H   H746      1.0  0.12716  0.71036  0.63091  1.0000
  H   H747      1.0  0.00893  0.54954  0.72737  1.0000
  C   C444      1.0  0.03882  0.71412  0.54323  1.0000
  H   H748      1.0  0.14032  0.51871  0.72660  1.0000
  H   H749      1.0  0.17463  0.59020  0.76397  1.0000
  C   C445      1.0  0.17410  0.53098  0.77459  1.0000
  H   H750      1.0  0.18404  0.49987  0.76872  1.0000
  C   C446      1.0  0.01612  0.69963  0.66782  1.0000
  H   H751      1.0  0.20566  0.61698  0.97059  1.0000
  H   H752      1.0  0.04495  0.54146  0.80376  1.0000
  S   S142      1.0  0.11389  0.73216  0.59450  1.0000
  H   H753      1.0  0.18526  0.53324  0.76178  1.0000
  C   C447      1.0  0.03857  0.49485  0.76293  1.0000
  H   H754      1.0  0.03163  0.72333  0.62269  1.0000
  H   H755      1.0  0.01629  0.68117  0.63266  1.0000
  H   H756      1.0  0.13484  0.70967  0.66811  1.0000
  H   H757      1.0  0.45909  0.73224  0.96934  1.0000
  H   H758      1.0  0.03194  0.52086  0.73355  1.0000
  H   H759      1.0  0.29590  0.61076  0.96704  1.0000
  H   H760      1.0  0.29389  0.69266  0.93489  1.0000
  H   H761      1.0  0.16776  0.54923  0.86363  1.0000
  C   C448      1.0  0.09328  0.49297  0.75432  1.0000
  H   H762      1.0  0.31632  0.70918  0.82017  1.0000
  C   C449      1.0  0.04137  0.51531  0.77240  1.0000
  H   H763      1.0  0.18749  0.56694  0.75819  1.0000
  H   H764      1.0  0.26344  0.67782  0.94565  1.0000
  H   H765      1.0  0.42375  0.72046  0.97428  1.0000
  H   H766      1.0  0.09404  0.69879  0.50277  1.0000
  C   C450      1.0  0.46682  0.73637  0.89784  1.0000
  H   H767      1.0  0.27183  0.66598  0.92333  1.0000
  H   H768      1.0  0.25320  0.63620  0.92822  1.0000
  H   H769      1.0  0.04502  0.69681  0.68318  1.0000
  H   H770      1.0  0.17226  0.73631  0.67529  1.0000
  C   C451      1.0  0.03552  0.53477  0.74111  1.0000
  C   C452      1.0  0.34408  0.71076  0.84456  1.0000
  H   H771      1.0  0.20401  0.50578  0.84951  1.0000
  H   H772      1.0  0.16612  0.54241  0.90111  1.0000
  C   C453      1.0  0.16591  0.51349  0.88518  1.0000
  C   C454      1.0  0.28985  0.63268  0.94210  1.0000
  H   H773      1.0  0.13469  0.50982  0.75158  1.0000
  H   H774      1.0  0.28887  0.63164  0.92547  1.0000
  N   N32       1.0  0.27304  0.64639  0.95026  1.0000
  C   C455      1.0  0.19914  0.52936  0.88028  1.0000
  H   H775      1.0  0.01444  0.69755  0.61042  1.0000
  H   H776      1.0  0.15920  0.52997  0.84922  1.0000
  H   H777      1.0  0.26693  0.66339  0.97700  1.0000
  C   C456      1.0  0.17304  0.53551  0.85559  1.0000
  C   C457      1.0  0.17252  0.57489  0.75850  1.0000
  C   C458      1.0  0.17610  0.49124  0.84628  1.0000
  H   H778      1.0  0.03102  0.67456  0.68420  1.0000
  C   C459      1.0  0.02416  0.69246  0.62296  1.0000
  H   H779      1.0  0.02445  0.73565  0.67795  1.0000
  C   C460      1.0  0.29540  0.67681  0.94080  1.0000
  H   H780      1.0  0.16701  0.57720  0.74302  1.0000
  C   C461      1.0  0.03130  0.71063  0.63406  1.0000
  H   H781      1.0  0.21140  0.50182  0.89613  1.0000
  C   C462      1.0  0.19069  0.50185  0.85937  1.0000
  H   H782      1.0  0.43434  0.71708  0.94950  1.0000
  H   H783      1.0  0.02942  0.56572  0.76709  1.0000
  H   H784      1.0  0.17128  0.50075  0.89527  1.0000
  H   H785      1.0  0.04749  0.70761  0.63712  1.0000
  C   C463      1.0  0.27495  0.66680  0.93957  1.0000
  C   C464      1.0  0.42902  0.72865  0.96031  1.0000
  H   H786      1.0  0.45783  0.72218  0.87136  1.0000
  C   C465      1.0  0.03534  0.68769  0.67427  1.0000
  S   S143      1.0  0.39249  0.73219  0.87229  1.0000
  C   C466      1.0  0.35514  0.69149  0.83691  1.0000
  H   H787      1.0  0.17885  0.55426  0.82853  1.0000
  H   H788      1.0  0.15853  0.50141  0.77796  1.0000
  C   C467      1.0  0.18717  0.54281  0.83796  1.0000
  C   C468      1.0  0.14605  0.51795  0.74209  1.0000
  C   C469      1.0  0.26497  0.63259  0.98696  1.0000
  H   H789      1.0  0.37980  0.73101  0.96455  1.0000
  C   C470      1.0  0.32693  0.72038  0.81336  1.0000
  Fe  Fe70      1.0  0.09034  0.73325  0.57093  1.0000
  H   H790      1.0  0.00145  0.73772  0.63419  1.0000
  H   H791      1.0  0.16051  0.50906  0.74133  1.0000
  H   H792      1.0  0.05211  0.53633  0.73884  1.0000
  C   C471      1.0  0.49040  0.72266  0.87233  1.0000
  N   N33       1.0  0.02979  0.53328  0.76335  1.0000
  C   C472      1.0  0.14647  0.71462  0.65655  1.0000
  H   H793      1.0  0.29742  0.49387  0.82240  1.0000
  N   N34       1.0  0.18216  0.52005  0.87010  1.0000
  C   C473      1.0  0.20689  0.51765  0.89914  1.0000
  H   H794      1.0  0.19232  0.53049  0.82804  1.0000
  H   H795      1.0  0.21240  0.53117  0.86964  1.0000
  H   H796      1.0  0.99903  0.56236  0.75792  1.0000
  H   H797      1.0  0.03202  0.55212  0.71304  1.0000
  H   H798      1.0  0.02250  0.49146  0.76179  1.0000
  H   H799      1.0  0.13490  0.54857  0.74529  1.0000
  H   H800      1.0  0.04469  0.72441  0.55397  1.0000
  H   H801      1.0  0.26633  0.50141  0.90734  1.0000
  C   C474      1.0  0.09016  0.72733  0.51696  1.0000
  Fe  Fe71      1.0  0.08848  0.72759  0.61778  1.0000
  C   C475      1.0  0.24417  0.49611  0.85507  1.0000
  H   H802      1.0  0.35336  0.67911  0.84854  1.0000
  C   C476      1.0  0.99949  0.72713  0.64749  1.0000
  H   H803      1.0  0.17001  0.50133  0.83416  1.0000
  H   H804      1.0  0.34896  0.68636  0.82288  1.0000
  H   H805      1.0  0.05783  0.51790  0.77177  1.0000
  H   H806      1.0  0.19563  0.51818  0.91195  1.0000
  H   H807      1.0  0.99352  0.73661  0.66004  1.0000
  H   H808      1.0  0.11565  0.73894  0.66480  1.0000
  H   H809      1.0  0.00216  0.51983  0.75571  1.0000
  H   H810      1.0  0.02098  0.73179  0.58861  1.0000
  C   C477      1.0  0.47041  0.72678  0.87962  1.0000
  H   H811      1.0  0.31639  0.73446  0.86794  1.0000
  C   C478      1.0  0.36085  0.73288  0.81963  1.0000
  H   H812      1.0  0.04695  0.72595  0.66583  1.0000
  C   C479      1.0  0.08135  0.49180  0.71475  1.0000
  C   C480      1.0  0.03147  0.73210  0.66290  1.0000
  H   H813      1.0  0.32956  0.70574  0.85166  1.0000
  H   H814      1.0  0.13971  0.68810  0.64038  1.0000
  H   H815      1.0  0.14393  0.72192  0.69706  1.0000
  H   H816      1.0  0.17347  0.73211  0.63502  1.0000
  H   H817      1.0  0.00803  0.72131  0.55098  1.0000
  H   H818      1.0  0.01830  0.54783  0.80154  1.0000
  H   H819      1.0  0.41621  0.73704  0.95330  1.0000
  H   H820      1.0  0.30184  0.73186  0.84597  1.0000
  C   C481      1.0  0.31358  0.73654  0.80232  1.0000
  H   H821      1.0  0.30612  0.72943  0.78995  1.0000
  N   N35       1.0  0.14745  0.73735  0.65527  1.0000
  H   H822      1.0  0.04653  0.49394  0.74794  1.0000
  C   C482      1.0  0.37714  0.74017  0.97750  1.0000
  C   C483      1.0  0.00682  0.74000  0.59129  1.0000
  C   C484      1.0  0.99328  0.54922  0.76666  1.0000
  C   C485      1.0  0.99127  0.60318  0.78156  1.0000
  H   H823      1.0  0.04569  0.73996  0.51073  1.0000
  C   C486      1.0  0.14496  0.73839  0.69410  1.0000
  N   N36       1.0  0.01561  0.74062  0.52488  1.0000
  H   H824      1.0  0.07683  0.49139  0.69933  1.0000
  C   C487      1.0  0.02752  0.72468  0.49121  1.0000
  S   S144      1.0  0.40609  0.75691  0.09007  1.0000
  C   C488      1.0  0.44553  0.79331  0.11513  1.0000
  H   H825      1.0  0.46667  0.79383  0.15780  1.0000
  C   C489      1.0  0.33397  0.92840  0.26905  1.0000
  Fe  Fe72      1.0  0.37863  0.76573  0.10964  1.0000
  S   S145      1.0  0.37909  0.79804  0.12136  1.0000
  Fe  Fe73      1.0  0.37536  0.91429  0.23036  1.0000
  S   S146      1.0  0.39346  0.91133  0.25793  1.0000
  S   S147      1.0  0.36031  0.94466  0.22123  1.0000
  Fe  Fe74      1.0  0.37782  0.86798  0.22410  1.0000
  S   S148      1.0  0.39541  0.86258  0.25235  1.0000
  S   S149      1.0  0.36854  0.84034  0.20701  1.0000
  Fe  Fe75      1.0  0.37347  0.88536  0.26696  1.0000
  S   S150      1.0  0.35936  0.88585  0.29940  1.0000
  Fe  Fe76      1.0  0.41345  0.88909  0.24087  1.0000
  S   S151      1.0  0.44731  0.89052  0.23271  1.0000
  S   S152      1.0  0.35488  0.88896  0.23964  1.0000
  S   S153      1.0  0.39632  0.89379  0.21226  1.0000
  Fe  Fe77      1.0  0.05584  0.75267  0.38255  1.0000
  S   S154      1.0  0.02524  0.75787  0.36832  1.0000
  Fe  Fe78      1.0  0.10080  0.76544  0.38212  1.0000
  S   S155      1.0  0.12015  0.79256  0.37148  1.0000
  H   H826      1.0  0.43720  0.74618  0.17240  1.0000
  S   S156      1.0  0.07286  0.77294  0.40121  1.0000
  Fe  Fe79      1.0  0.24539  0.89088  0.41793  1.0000
  S   S157      1.0  0.21183  0.89378  0.41589  1.0000
  S   S158      1.0  0.25935  0.89800  0.44753  1.0000
  Fe  Fe80      1.0  0.25249  0.88622  0.37170  1.0000
  S   S159      1.0  0.21888  0.88924  0.36734  1.0000
  S   S160      1.0  0.27026  0.88056  0.34151  1.0000
  Fe  Fe81      1.0  0.21876  0.91458  0.38897  1.0000
  S   S161      1.0  0.20118  0.94473  0.38542  1.0000
  Fe  Fe82      1.0  0.21489  0.86812  0.39457  1.0000
  S   S162      1.0  0.19771  0.83837  0.39854  1.0000
  S   S163      1.0  0.25222  0.91279  0.39174  1.0000
  S   S164      1.0  0.24860  0.86397  0.39822  1.0000
  H   H827      1.0  0.37759  0.89496  0.16939  1.0000
  C   C490      1.0  0.25216  0.88928  0.47235  1.0000
  C   C491      1.0  0.24189  0.87148  0.47612  1.0000
  H   H828      1.0  0.39005  0.94368  0.29252  1.0000
  H   H829      1.0  0.23772  0.86285  0.46361  1.0000
  H   H830      1.0  0.42707  0.82662  0.16575  1.0000
  C   C492      1.0  0.21214  0.96862  0.38661  1.0000
  S   S165      1.0  0.35752  0.75301  0.08778  1.0000
  H   H831      1.0  0.32433  0.91809  0.21252  1.0000
  H   H832      1.0  0.14462  0.84417  0.43924  1.0000
  C   C493      1.0  0.14201  0.80493  0.37897  1.0000
  C   C494      1.0  0.15736  0.79489  0.38970  1.0000
  C   C495      1.0  0.17411  0.80540  0.39555  1.0000
  C   C496      1.0  0.17610  0.82605  0.39048  1.0000
  C   C497      1.0  0.16104  0.83599  0.37929  1.0000
  C   C498      1.0  0.14418  0.82551  0.37361  1.0000
  H   H833      1.0  0.15644  0.77894  0.39328  1.0000
  H   H834      1.0  0.18575  0.79738  0.40390  1.0000
  H   H835      1.0  0.16228  0.85181  0.37512  1.0000
  H   H836      1.0  0.13264  0.83346  0.36506  1.0000
  H   H837      1.0  0.41983  0.80460  0.13257  1.0000
  H   H838      1.0  0.32772  0.93675  0.25581  1.0000
  H   H839      1.0  0.13752  0.78698  0.47021  1.0000
  C   C499      1.0  0.45787  0.77990  0.15880  1.0000
  H   H840      1.0  0.46055  0.94165  0.23233  1.0000
  C   C500      1.0  0.43152  0.81446  0.17682  1.0000
  C   C501      1.0  0.42554  0.76616  0.14770  1.0000
  C   C502      1.0  0.33430  0.88481  0.31058  1.0000
  C   C503      1.0  0.33108  0.88885  0.33117  1.0000
  C   C504      1.0  0.31168  0.88796  0.34083  1.0000
  C   C505      1.0  0.29511  0.88283  0.33007  1.0000
  C   C506      1.0  0.29830  0.87893  0.30944  1.0000
  C   C507      1.0  0.31767  0.87998  0.29974  1.0000
  H   H841      1.0  0.34375  0.89253  0.33980  1.0000
  H   H842      1.0  0.30963  0.89095  0.35668  1.0000
  H   H843      1.0  0.28570  0.87494  0.30089  1.0000
  H   H844      1.0  0.31979  0.87670  0.28398  1.0000
  C   C508      1.0  0.39165  0.96952  0.22847  1.0000
  C   C509      1.0  0.37127  0.96822  0.22450  1.0000
  H   H845      1.0  0.34836  0.87840  0.19601  1.0000
  H   H846      1.0  0.40107  0.95591  0.22984  1.0000
  H   H847      1.0  0.42583  0.78366  0.18436  1.0000
  C   C510      1.0  0.47095  0.88538  0.26647  1.0000
  C   C511      1.0  0.46992  0.88484  0.24550  1.0000
  H   H848      1.0  0.34534  0.92925  0.17655  1.0000
  H   H849      1.0  0.45730  0.88800  0.27563  1.0000
  H   H850      1.0  0.41113  0.75498  0.17629  1.0000
  C   C512      1.0  0.37631  0.80927  0.14548  1.0000
  C   C513      1.0  0.36724  0.79955  0.16245  1.0000
  C   C514      1.0  0.36518  0.80925  0.18104  1.0000
  C   C515      1.0  0.37245  0.82864  0.18320  1.0000
  C   C516      1.0  0.38185  0.83820  0.16632  1.0000
  C   C517      1.0  0.38352  0.82870  0.14761  1.0000
  H   H851      1.0  0.36155  0.78467  0.16119  1.0000
  H   H852      1.0  0.35784  0.80163  0.19390  1.0000
  H   H853      1.0  0.38768  0.85301  0.16761  1.0000
  H   H854      1.0  0.39059  0.83642  0.13467  1.0000
  C   C518      1.0  0.32969  0.97411  0.27409  1.0000
  C   C519      1.0  0.19650  0.94294  0.44549  1.0000
  C   C520      1.0  0.14250  0.76662  0.43469  1.0000
  H   H855      1.0  0.12145  0.83939  0.45192  1.0000
  H   H856      1.0  0.14150  0.75864  0.44969  1.0000
  H   H857      1.0  0.33327  0.96893  0.25858  1.0000
  C   C521      1.0  0.43574  0.79980  0.13540  1.0000
  H   H858      1.0  0.47052  0.94420  0.25695  1.0000
  C   C522      1.0  0.48979  0.88314  0.27554  1.0000
  C   C523      1.0  0.42290  0.75010  0.16496  1.0000
  C   C524      1.0  0.12166  0.79037  0.46603  1.0000
  H   H859      1.0  0.40854  0.79539  0.16766  1.0000
  H   H860      1.0  0.20585  0.96662  0.47845  1.0000
  H   H861      1.0  0.31333  0.94109  0.29101  1.0000
  C   C525      1.0  0.43392  0.76546  0.01572  1.0000
  H   H862      1.0  0.33028  0.91618  0.14607  1.0000
  H   H863      1.0  0.44792  0.81457  0.17915  1.0000
  H   H864      1.0  0.41600  0.98929  0.23221  1.0000
  H   H865      1.0  0.48609  0.76778  0.14531  1.0000
  H   H866      1.0  0.43940  0.77937  0.10976  1.0000
  H   H867      1.0  0.38224  0.92023  0.17550  1.0000
  H   H868      1.0  0.35020  0.92477  0.26617  1.0000
  H   H869      1.0  0.37108  0.91610  0.15229  1.0000
  H   H870      1.0  0.25895  0.94190  0.43144  1.0000
  N   N37       1.0  0.43644  0.78459  0.15289  1.0000
  C   C526      1.0  0.00127  0.75601  0.38103  1.0000
  H   H871      1.0  0.30329  0.96199  0.31510  1.0000
  H   H872      1.0  0.32253  0.85763  0.20011  1.0000
  H   H873      1.0  0.19716  0.98328  0.44855  1.0000
  C   C527      1.0  0.32493  0.86200  0.18387  1.0000
  H   H874      1.0  0.47677  0.76199  0.00345  1.0000
  C   C528      1.0  0.25783  0.90008  0.48881  1.0000
  H   H875      1.0  0.46520  0.76164  0.13147  1.0000
  C   C529      1.0  0.26198  0.95099  0.44455  1.0000
  H   H876      1.0  0.44344  0.81369  0.13885  1.0000
  H   H877      1.0  0.32640  0.91380  0.27054  1.0000
  C   C530      1.0  0.23282  0.97031  0.38888  1.0000
  H   H878      1.0  0.43852  0.75843  0.03037  1.0000
  C   C531      1.0  0.42486  0.79373  0.17060  1.0000
  C   C532      1.0  0.48291  0.74154  0.08935  1.0000
  H   H879      1.0  0.45742  0.96492  0.24473  1.0000
  C   C533      1.0  0.37396  0.94351  0.29779  1.0000
  H   H880      1.0  0.37321  0.94769  0.31378  1.0000
  H   H881      1.0  0.32098  0.87116  0.14436  1.0000
  C   C534      1.0  0.24754  0.96970  0.44559  1.0000
  H   H882      1.0  0.36837  0.97342  0.28557  1.0000
  C   C535      1.0  0.31405  0.97410  0.31648  1.0000
  H   H883      1.0  0.24264  0.95696  0.38900  1.0000
  C   C536      1.0  0.09806  0.81794  0.41920  1.0000
  H   H884      1.0  0.36754  0.77263  0.02457  1.0000
  H   H885      1.0  0.36475  0.95457  0.26838  1.0000
  H   H886      1.0  0.11051  0.77113  0.43241  1.0000
  C   C537      1.0  0.31462  0.90646  0.20708  1.0000
  C   C538      1.0  0.33321  0.90022  0.15135  1.0000
  H   H887      1.0  0.35343  0.87171  0.17086  1.0000
  H   H888      1.0  0.10877  0.83008  0.41572  1.0000
  C   C539      1.0  0.22219  0.96536  0.47397  1.0000
  H   H889      1.0  0.18803  0.87286  0.48713  1.0000
  H   H890      1.0  0.41019  0.77056  0.14249  1.0000
  H   H891      1.0  0.22773  0.93390  0.44641  1.0000
  C   C540      1.0  0.35061  0.91326  0.17929  1.0000
  H   H892      1.0  0.35352  0.91174  0.19565  1.0000
  C   C541      1.0  0.35932  0.98613  0.22258  1.0000
  H   H893      1.0  0.23092  0.93279  0.47805  1.0000
  C   C542      1.0  0.37146  0.91071  0.16831  1.0000
  C   C543      1.0  0.37017  0.76348  0.01156  1.0000
  H   H894      1.0  0.22180  0.94895  0.42510  1.0000
  C   C544      1.0  0.36164  0.95848  0.28439  1.0000
  H   H895      1.0  0.19221  0.94153  0.46177  1.0000
  C   C545      1.0  0.46810  0.95191  0.24207  1.0000
  H   H896      1.0  0.11728  0.81889  0.48218  1.0000
  C   C546      1.0  0.33589  0.96719  0.31055  1.0000
  C   C547      1.0  0.19969  0.98629  0.38629  1.0000
  H   H897      1.0  0.44221  0.80528  0.10344  1.0000
  N   N38       1.0  0.33476  0.89892  0.17395  1.0000
  H   H898      1.0  0.29902  0.91033  0.21274  1.0000
  C   C548      1.0  0.31722  0.88751  0.14238  1.0000
  S   S166      1.0  0.07776  0.75434  0.45335  1.0000
  N   N39       1.0  0.22566  0.96625  0.45137  1.0000
  H   H899      1.0  0.33049  0.84799  0.17652  1.0000
  C   C549      1.0  0.36368  0.77059  0.99247  1.0000
  H   H900      1.0  0.34767  0.89516  0.14373  1.0000
  H   H901      1.0  0.30170  0.89115  0.14823  1.0000
  H   H902      1.0  0.14468  0.83183  0.46392  1.0000
  S   S167      1.0  0.08283  0.74745  0.36132  1.0000
  H   H903      1.0  0.34019  0.95511  0.32187  1.0000
  N   N40       1.0  0.12096  0.79846  0.44445  1.0000
  C   C550      1.0  0.12383  0.78073  0.43100  1.0000
  C   C551      1.0  0.10051  0.80817  0.44048  1.0000
  C   C552      1.0  0.48785  0.88144  0.23386  1.0000
  C   C553      1.0  0.13786  0.81250  0.43931  1.0000
  H   H904      1.0  0.24898  0.97718  0.43031  1.0000
  H   H905      1.0  0.30903  0.98773  0.30757  1.0000
  H   H906      1.0  0.48723  0.88076  0.21767  1.0000
  H   H907      1.0  0.48492  0.75049  0.07547  1.0000
  C   C554      1.0  0.47005  0.76366  0.14687  1.0000
  H   H908      1.0  0.12485  0.78574  0.41490  1.0000
  H   H909      1.0  0.09625  0.82017  0.45107  1.0000
  H   H910      1.0  0.08859  0.79691  0.44310  1.0000
  H   H911      1.0  0.41758  0.76975  0.01697  1.0000
  H   H912      1.0  0.32133  0.74989  0.05314  1.0000
  H   H913      1.0  0.15261  0.80526  0.44325  1.0000
  H   H914      1.0  0.48359  0.96900  0.21851  1.0000
  C   C555      1.0  0.13690  0.83295  0.44944  1.0000
  H   H915      1.0  0.31893  0.89153  0.21398  1.0000
  H   H916      1.0  0.31727  0.89078  0.12584  1.0000
  H   H917      1.0  0.08261  0.82486  0.41828  1.0000
  H   H918      1.0  0.09959  0.80675  0.40735  1.0000
  H   H919      1.0  0.19377  0.92828  0.43892  1.0000
  H   H920      1.0  0.36920  0.92786  0.29673  1.0000
  H   H921      1.0  0.33502  0.92927  0.30130  1.0000
  H   H922      1.0  0.48714  0.94070  0.19896  1.0000
  H   H923      1.0  0.15682  0.77456  0.43279  1.0000
  H   H924      1.0  0.26608  0.91368  0.48607  1.0000
  Fe  Fe83      1.0  0.08109  0.74519  0.42029  1.0000
  H   H925      1.0  0.31114  0.92192  0.17822  1.0000
  H   H926      1.0  0.46217  0.79190  0.11573  1.0000
  C   C556      1.0  0.34131  0.87794  0.18116  1.0000
  H   H927      1.0  0.21294  0.98362  0.42640  1.0000
  H   H928      1.0  0.13971  0.81553  0.42274  1.0000
  H   H929      1.0  0.47009  0.74894  0.15540  1.0000
  H   H930      1.0  0.45803  0.77445  0.17489  1.0000
  H   H931      1.0  0.43297  0.75834  0.13485  1.0000
  N   N41       1.0  0.23462  0.82991  0.33435  1.0000
  C   C557      1.0  0.25451  0.82981  0.32236  1.0000
  C   C558      1.0  0.23930  0.83257  0.35605  1.0000
  C   C559      1.0  0.22207  0.84794  0.32696  1.0000
  C   C560      1.0  0.22437  0.81050  0.33116  1.0000
  C   C561      1.0  0.25338  0.82960  0.29922  1.0000
  C   C562      1.0  0.25364  0.81633  0.36548  1.0000
  C   C563      1.0  0.20087  0.85095  0.33698  1.0000
  C   C564      1.0  0.20866  0.80352  0.34767  1.0000
  H   H932      1.0  0.26329  0.84308  0.32570  1.0000
  H   H933      1.0  0.26417  0.81641  0.32674  1.0000
  H   H934      1.0  0.22560  0.83330  0.36600  1.0000
  H   H935      1.0  0.24620  0.84736  0.35764  1.0000
  H   H936      1.0  0.23027  0.86205  0.32862  1.0000
  H   H937      1.0  0.21940  0.84717  0.31063  1.0000
  H   H938      1.0  0.21679  0.81141  0.31652  1.0000
  H   H939      1.0  0.23584  0.79785  0.33003  1.0000
  H   H940      1.0  0.24354  0.81782  0.29438  1.0000
  H   H941      1.0  0.24841  0.84458  0.29281  1.0000
  H   H942      1.0  0.26875  0.82639  0.29255  1.0000
  H   H943      1.0  0.26950  0.81865  0.36024  1.0000
  H   H944      1.0  0.25299  0.81769  0.38212  1.0000
  H   H945      1.0  0.24948  0.80086  0.36237  1.0000
  H   H946      1.0  0.19409  0.86551  0.33125  1.0000
  H   H947      1.0  0.20101  0.85184  0.35356  1.0000
  H   H948      1.0  0.19071  0.83909  0.33289  1.0000
  H   H949      1.0  0.19622  0.79630  0.34042  1.0000
  H   H950      1.0  0.20150  0.81554  0.35675  1.0000
  H   H951      1.0  0.21534  0.79164  0.35788  1.0000
  N   N42       1.0  0.33931  0.95988  0.28944  1.0000
  C   C565      1.0  0.38046  0.74478  0.01359  1.0000
  H   H952      1.0  0.11401  0.77573  0.46781  1.0000
  C   C566      1.0  0.99905  0.75539  0.40206  1.0000
  H   H953      1.0  0.18647  0.95423  0.43772  1.0000
  C   C567      1.0  0.21319  0.98397  0.44307  1.0000
  H   H954      1.0  0.31022  0.86624  0.17757  1.0000
  H   H955      1.0  0.26139  0.94132  0.45845  1.0000
  H   H956      1.0  0.49047  0.88395  0.29171  1.0000
  C   C568      1.0  0.32999  0.93962  0.28872  1.0000
  C   C569      1.0  0.31511  0.90628  0.18386  1.0000
  H   H957      1.0  0.30224  0.89744  0.17993  1.0000
  C   C570      1.0  0.21889  0.94766  0.44172  1.0000
  H   H958      1.0  0.44252  0.77931  0.01353  1.0000
  H   H959      1.0  0.31329  0.97818  0.33255  1.0000
  H   H960      1.0  0.42356  0.81823  0.19134  1.0000
  C   C571      1.0  0.08328  0.74335  0.47744  1.0000
  H   H961      1.0  0.01221  0.75607  0.41100  1.0000
  H   H962      1.0  0.27770  0.95592  0.44221  1.0000
  Fe  Fe84      1.0  0.38516  0.74164  0.07026  1.0000
  H   H963      1.0  0.14325  0.75480  0.42335  1.0000
  H   H964      1.0  0.09501  0.80411  0.48174  1.0000
  H   H965      1.0  0.48366  0.92100  0.21702  1.0000
  C   C572      1.0  0.11167  0.80349  0.48256  1.0000
  H   H966      1.0  0.34586  0.97972  0.31336  1.0000
  H   H967      1.0  0.31292  0.97408  0.27540  1.0000
  C   C573      1.0  0.40008  0.98851  0.22989  1.0000
  H   H968      1.0  0.34356  0.98534  0.21942  1.0000
  H   H969      1.0  0.22833  0.97879  0.48058  1.0000
  C   C574      1.0  0.48789  0.95966  0.23207  1.0000
  H   H970      1.0  0.18369  0.98519  0.38447  1.0000
  C   C575      1.0  0.43827  0.75030  0.99893  1.0000
  H   H971      1.0  0.24736  0.94978  0.48934  1.0000
  H   H972      1.0  0.25401  0.98020  0.45597  1.0000
  C   C576      1.0  0.24081  0.98928  0.39143  1.0000
  H   H973      1.0  0.44589  0.99024  0.28119  1.0000
  C   C577      1.0  0.23155  0.94711  0.48575  1.0000
  H   H974      1.0  0.35604  0.78523  0.99096  1.0000
  H   H975      1.0  0.25678  0.99030  0.39352  1.0000
  H   H976      1.0  0.33368  0.74101  0.01812  1.0000
  Fe  Fe85      1.0  0.37070  0.75581  0.92123  1.0000
  S   S168      1.0  0.35997  0.76907  0.95131  1.0000
  Fe  Fe86      1.0  0.37604  0.76264  0.87474  1.0000
  S   S169      1.0  0.37262  0.77952  0.84367  1.0000
  C   C578      1.0  0.37832  0.98162  0.75144  1.0000
  S   S170      1.0  0.39393  0.77120  0.90085  1.0000
  Fe  Fe87      1.0  0.06132  0.75892  0.59580  1.0000
  S   S171      1.0  0.02948  0.77318  0.59793  1.0000
  Fe  Fe88      1.0  0.10747  0.76572  0.59623  1.0000
  S   S172      1.0  0.13733  0.78261  0.59636  1.0000
  S   S173      1.0  0.08500  0.76672  0.57150  1.0000
  S   S174      1.0  0.08315  0.76115  0.62060  1.0000
  Fe  Fe89      1.0  0.25277  0.88875  0.60934  1.0000
  S   S175      1.0  0.22391  0.90549  0.61894  1.0000
  S   S176      1.0  0.28356  0.88700  0.62451  1.0000
  Fe  Fe90      1.0  0.23667  0.88206  0.56657  1.0000
  S   S177      1.0  0.20763  0.89902  0.57374  1.0000
  S   S178      1.0  0.23928  0.86489  0.53742  1.0000
  Fe  Fe91      1.0  0.22617  0.92149  0.58831  1.0000
  S   S179      1.0  0.22747  0.95459  0.57769  1.0000
  Fe  Fe92      1.0  0.20777  0.88108  0.60331  1.0000
  S   S180      1.0  0.17786  0.86638  0.61356  1.0000
  S   S181      1.0  0.25537  0.90540  0.57911  1.0000
  S   S182      1.0  0.23654  0.86347  0.59579  1.0000
  Fe  Fe93      1.0  0.40183  0.88878  0.73020  1.0000
  S   S183      1.0  0.40029  0.90161  0.76070  1.0000
  S   S184      1.0  0.43291  0.88096  0.71551  1.0000
  Fe  Fe94      1.0  0.35557  0.89410  0.72597  1.0000
  S   S185      1.0  0.35207  0.90764  0.75683  1.0000
  S   S186      1.0  0.32531  0.89283  0.70987  1.0000
  Fe  Fe95      1.0  0.37925  0.92546  0.74741  1.0000
  S   S187      1.0  0.39021  0.95717  0.75151  1.0000
  Fe  Fe96      1.0  0.37350  0.88236  0.76751  1.0000
  S   S188      1.0  0.37043  0.86821  0.79993  1.0000
  S   S189      1.0  0.38175  0.91335  0.71633  1.0000
  S   S190      1.0  0.37590  0.86801  0.73726  1.0000
  H   H977      1.0  0.16546  0.86027  0.49412  1.0000
  C   C579      1.0  0.27979  0.96002  0.59704  1.0000
  C   C580      1.0  0.29750  0.88387  0.55078  1.0000
  H   H978      1.0  0.34778  0.97199  0.75456  1.0000
  N   N43       1.0  0.30210  0.84785  0.56703  1.0000
  C   C581      1.0  0.45652  0.88712  0.72498  1.0000
  C   C582      1.0  0.47442  0.88321  0.71340  1.0000
  C   C583      1.0  0.45781  0.89663  0.74325  1.0000
  H   H979      1.0  0.47367  0.87581  0.69928  1.0000
  H   H980      1.0  0.44432  0.89956  0.75247  1.0000
  C   C584      1.0  0.29471  0.88835  0.64854  1.0000
  C   C585      1.0  0.31589  0.88838  0.64926  1.0000
  C   C586      1.0  0.32553  0.88973  0.66773  1.0000
  C   C587      1.0  0.31413  0.89099  0.68592  1.0000
  C   C588      1.0  0.29293  0.89099  0.68517  1.0000
  C   C589      1.0  0.28329  0.88972  0.66669  1.0000
  H   H981      1.0  0.32499  0.88735  0.63541  1.0000
  H   H982      1.0  0.34179  0.88968  0.66792  1.0000
  H   H983      1.0  0.28388  0.89189  0.69907  1.0000
  H   H984      1.0  0.26703  0.88960  0.66658  1.0000
  C   C590      1.0  0.31238  0.74155  0.85316  1.0000
  N   N44       1.0  0.44206  0.75927  0.97796  1.0000
  H   H985      1.0  0.01361  0.75506  0.55366  1.0000
  H   H986      1.0  0.20232  0.96672  0.61319  1.0000
  C   C591      1.0  0.44410  0.94994  0.74651  1.0000
  C   C592      1.0  0.24347  0.87523  0.51257  1.0000
  C   C593      1.0  0.25308  0.89338  0.50880  1.0000
  H   H987      1.0  0.31395  0.84660  0.61674  1.0000
  H   H988      1.0  0.25743  0.90196  0.52126  1.0000
  C   C594      1.0  0.48356  0.95455  0.71003  1.0000
  C   C595      1.0  0.14811  0.80607  0.60150  1.0000
  C   C596      1.0  0.16911  0.80795  0.59855  1.0000
  C   C597      1.0  0.17845  0.82609  0.60231  1.0000
  C   C598      1.0  0.16693  0.84285  0.60891  1.0000
  C   C599      1.0  0.14594  0.84093  0.61199  1.0000
  C   C600      1.0  0.13659  0.82275  0.60829  1.0000
  H   H989      1.0  0.17827  0.79524  0.59332  1.0000
  H   H990      1.0  0.19461  0.82709  0.60020  1.0000
  H   H991      1.0  0.13681  0.85366  0.61724  1.0000
  H   H992      1.0  0.12046  0.82169  0.61071  1.0000
  H   H993      1.0  0.43610  0.79127  0.94734  1.0000
  C   C601      1.0  0.30006  0.85501  0.58830  1.0000
  H   H994      1.0  0.24171  0.98119  0.63055  1.0000
  C   C602      1.0  0.00675  0.76031  0.59601  1.0000
  H   H995      1.0  0.42114  0.98559  0.67330  1.0000
  H   H996      1.0  0.19523  0.84781  0.51357  1.0000
  C   C603      1.0  0.37284  0.80443  0.83196  1.0000
  C   C604      1.0  0.37367  0.80661  0.81072  1.0000
  C   C605      1.0  0.37323  0.82584  0.80067  1.0000
  C   C606      1.0  0.37177  0.84335  0.81170  1.0000
  C   C607      1.0  0.37102  0.84120  0.83295  1.0000
  C   C608      1.0  0.37165  0.82196  0.84300  1.0000
  H   H997      1.0  0.37475  0.79333  0.80188  1.0000
  H   H998      1.0  0.37384  0.82708  0.78437  1.0000
  H   H999      1.0  0.36987  0.85453  0.84174  1.0000
  H   H1000     1.0  0.37094  0.82071  0.85930  1.0000
  C   C609      1.0  0.36739  0.75912  0.97526  1.0000
  H   H1001     1.0  0.32811  0.75843  0.82944  1.0000
  C   C610      1.0  0.29401  0.82719  0.56500  1.0000
  C   C611      1.0  0.27322  0.97454  0.64084  1.0000
  H   H1002     1.0  0.47223  0.76532  0.85175  1.0000
  N   N45       1.0  0.37570  0.93624  0.81666  1.0000
  C   C612      1.0  0.36589  0.95328  0.80436  1.0000
  C   C613      1.0  0.36484  0.91742  0.81283  1.0000
  C   C614      1.0  0.39748  0.93397  0.80924  1.0000
  C   C615      1.0  0.37403  0.94164  0.83851  1.0000
  H   H1003     1.0  0.46803  0.93561  0.69122  1.0000
  C   C616      1.0  0.34216  0.91772  0.81877  1.0000
  C   C617      1.0  0.40871  0.91365  0.81402  1.0000
  C   C618      1.0  0.38040  0.92535  0.85449  1.0000
  H   H1004     1.0  0.36467  0.94900  0.78841  1.0000
  H   H1005     1.0  0.35017  0.95661  0.81006  1.0000
  H   H1006     1.0  0.37157  0.90398  0.82072  1.0000
  H   H1007     1.0  0.36656  0.91398  0.79659  1.0000
  H   H1008     1.0  0.39869  0.93605  0.79247  1.0000
  H   H1009     1.0  0.40654  0.94595  0.81516  1.0000
  H   H1010     1.0  0.38346  0.95466  0.84098  1.0000
  H   H1011     1.0  0.35851  0.94732  0.84285  1.0000
  C   C619      1.0  0.33160  0.74547  0.83993  1.0000
  H   H1012     1.0  0.34276  0.75116  0.85008  1.0000
  H   H1013     1.0  0.16751  0.82893  0.52529  1.0000
  H   H1014     1.0  0.33913  0.92113  0.83482  1.0000
  H   H1015     1.0  0.33336  0.92828  0.80886  1.0000
  H   H1016     1.0  0.33648  0.90247  0.81667  1.0000
  C   C620      1.0  0.42359  0.77167  0.97212  1.0000
  H   H1017     1.0  0.42474  0.91473  0.80875  1.0000
  H   H1018     1.0  0.13148  0.84163  0.55173  1.0000
  H   H1019     1.0  0.39652  0.92648  0.85785  1.0000
  H   H1020     1.0  0.37763  0.90976  0.85065  1.0000
  H   H1021     1.0  0.37124  0.92765  0.86867  1.0000
  H   H1022     1.0  0.18833  0.81842  0.55188  1.0000
  H   H1023     1.0  0.20914  0.83053  0.53816  1.0000
  H   H1024     1.0  0.26150  0.83305  0.56084  1.0000
  H   H1025     1.0  0.13294  0.77621  0.66451  1.0000
  C   C621      1.0  0.48384  0.77580  0.85589  1.0000
  H   H1026     1.0  0.41604  0.91668  0.68664  1.0000
  H   H1027     1.0  0.44147  0.92171  0.67969  1.0000
  H   H1028     1.0  0.31299  0.82550  0.60131  1.0000
  H   H1029     1.0  0.33499  0.81755  0.56953  1.0000
  C   C622      1.0  0.23768  0.94660  0.65133  1.0000
  C   C623      1.0  0.99431  0.74280  0.51781  1.0000
  H   H1030     1.0  0.30137  0.74274  0.81245  1.0000
  C   C624      1.0  0.46517  0.94204  0.70630  1.0000
  H   H1031     1.0  0.23038  0.94666  0.63667  1.0000
  C   C625      1.0  0.01897  0.75828  0.53785  1.0000
  H   H1032     1.0  0.43341  0.93754  0.74751  1.0000
  H   H1033     1.0  0.40937  0.78895  0.94778  1.0000
  H   H1034     1.0  0.42136  0.94026  0.67419  1.0000
  N   N46       1.0  0.44485  0.95298  0.70763  1.0000
  H   H1035     1.0  0.29404  0.95109  0.59426  1.0000
  H   H1036     1.0  0.11502  0.79637  0.49754  1.0000
  C   C626      1.0  0.44152  0.96342  0.72725  1.0000
  H   H1037     1.0  0.47726  0.91041  0.76341  1.0000
  H   H1038     1.0  0.28315  0.97576  0.59999  1.0000
  H   H1039     1.0  0.40987  0.76283  0.97452  1.0000
  H   H1040     1.0  0.28581  0.89350  0.54319  1.0000
  H   H1041     1.0  0.27313  0.97561  0.65753  1.0000
  H   H1042     1.0  0.48594  0.96647  0.69809  1.0000
  H   H1043     1.0  0.40265  0.90122  0.80576  1.0000
  H   H1044     1.0  0.04201  0.75048  0.63624  1.0000
  H   H1045     1.0  0.44781  0.96215  0.67577  1.0000
  H   H1046     1.0  0.30014  0.89070  0.56532  1.0000
  H   H1047     1.0  0.14863  0.84760  0.52123  1.0000
  H   H1048     1.0  0.30315  0.95811  0.66405  1.0000
  H   H1049     1.0  0.26815  0.83018  0.58698  1.0000
  H   H1050     1.0  0.37689  0.75380  0.79956  1.0000
  H   H1051     1.0  0.48430  0.74934  0.98048  1.0000
  C   C627      1.0  0.20881  0.97999  0.60601  1.0000
  C   C628      1.0  0.45987  0.77269  0.97689  1.0000
  H   H1052     1.0  0.30436  0.75614  0.85634  1.0000
  C   C629      1.0  0.04061  0.76573  0.53849  1.0000
  H   H1053     1.0  0.18213  0.76429  0.64750  1.0000
  H   H1054     1.0  0.02808  0.75602  0.49809  1.0000
  H   H1055     1.0  0.45597  0.78748  0.98357  1.0000
  H   H1056     1.0  0.23086  0.85004  0.49884  1.0000
  H   H1057     1.0  0.23507  0.96134  0.65839  1.0000
  H   H1058     1.0  0.48680  0.95085  0.79807  1.0000
  H   H1059     1.0  0.45550  0.97996  0.69208  1.0000
  C   C630      1.0  0.03432  0.75243  0.65118  1.0000
  C   C631      1.0  0.42707  0.92881  0.68537  1.0000
  H   H1060     1.0  0.35385  0.83468  0.56168  1.0000
  H   H1061     1.0  0.22268  0.94458  0.50015  1.0000
  C   C632      1.0  0.12298  0.76904  0.65433  1.0000
  H   H1062     1.0  0.46441  0.77659  0.96090  1.0000
  H   H1063     1.0  0.28883  0.85631  0.53831  1.0000
  H   H1064     1.0  0.17943  0.85089  0.56866  1.0000
  H   H1065     1.0  0.10748  0.77251  0.66051  1.0000
  H   H1066     1.0  0.12448  0.77636  0.63904  1.0000
  H   H1067     1.0  0.29058  0.83547  0.61421  1.0000
  H   H1068     1.0  0.20849  0.82821  0.56484  1.0000
  H   H1069     1.0  0.19897  0.86298  0.55537  1.0000
  H   H1070     1.0  0.07896  0.77177  0.49175  1.0000
  H   H1071     1.0  0.32031  0.93867  0.65522  1.0000
  H   H1072     1.0  0.22981  0.93536  0.66136  1.0000
  H   H1073     1.0  0.42522  0.76871  0.93901  1.0000
  H   H1074     1.0  0.42599  0.97031  0.72843  1.0000
  H   H1075     1.0  0.40860  0.90947  0.83026  1.0000
  H   H1076     1.0  0.32992  0.86317  0.56020  1.0000
  C   C633      1.0  0.27163  0.82498  0.57157  1.0000
  H   H1077     1.0  0.27418  0.86398  0.55982  1.0000
  H   H1078     1.0  0.48672  0.77208  0.87195  1.0000
  C   C634      1.0  0.28994  0.86225  0.55366  1.0000
  N   N47       1.0  0.17376  0.85795  0.53705  1.0000
  C   C635      1.0  0.18708  0.86184  0.51837  1.0000
  C   C636      1.0  0.18751  0.85154  0.55380  1.0000
  C   C637      1.0  0.16247  0.87753  0.54177  1.0000
  C   C638      1.0  0.15943  0.84186  0.53264  1.0000
  H   H1079     1.0  0.48087  0.74958  0.92249  1.0000
  H   H1080     1.0  0.34112  0.83801  0.58540  1.0000
  C   C639      1.0  0.15379  0.87992  0.56350  1.0000
  H   H1081     1.0  0.44063  0.95916  0.75987  1.0000
  H   H1082     1.0  0.19899  0.87248  0.52150  1.0000
  H   H1083     1.0  0.48256  0.96120  0.72502  1.0000
  H   H1084     1.0  0.42095  0.78462  0.98211  1.0000
  H   H1085     1.0  0.28735  0.98151  0.63485  1.0000
  H   H1086     1.0  0.17249  0.89050  0.53884  1.0000
  H   H1087     1.0  0.14966  0.88031  0.53165  1.0000
  H   H1088     1.0  0.15905  0.77652  0.63878  1.0000
  C   C640      1.0  0.14631  0.83333  0.55051  1.0000
  H   H1089     1.0  0.15931  0.75986  0.67406  1.0000
  C   C641      1.0  0.17013  0.76392  0.63644  1.0000
  C   C642      1.0  0.47659  0.90273  0.74946  1.0000
  C   C643      1.0  0.42390  0.78053  0.95028  1.0000
  C   C644      1.0  0.19883  0.83096  0.55171  1.0000
  H   H1090     1.0  0.46566  0.92883  0.71703  1.0000
  H   H1091     1.0  0.16594  0.88209  0.57402  1.0000
  H   H1092     1.0  0.14462  0.86730  0.56926  1.0000
  H   H1093     1.0  0.14389  0.89378  0.56399  1.0000
  H   H1094     1.0  0.31127  0.88442  0.54074  1.0000
  H   H1095     1.0  0.15346  0.83334  0.56516  1.0000
  H   H1096     1.0  0.17748  0.76676  0.62130  1.0000
  N   N48       1.0  0.27336  0.95274  0.63525  1.0000
  C   C645      1.0  0.29465  0.94393  0.63619  1.0000
  C   C646      1.0  0.26667  0.95013  0.61416  1.0000
  C   C647      1.0  0.26028  0.94049  0.64986  1.0000
  H   H1097     1.0  0.00985  0.77187  0.53279  1.0000
  C   C648      1.0  0.30408  0.94326  0.65705  1.0000
  C   C649      1.0  0.42888  0.93768  0.70628  1.0000
  H   H1098     1.0  0.16910  0.88564  0.50211  1.0000
  H   H1099     1.0  0.04529  0.77349  0.52402  1.0000
  H   H1100     1.0  0.29556  0.92829  0.63074  1.0000
  H   H1101     1.0  0.30512  0.95260  0.62596  1.0000
  H   H1102     1.0  0.25109  0.95599  0.61219  1.0000
  H   H1103     1.0  0.26619  0.93382  0.61107  1.0000
  H   H1104     1.0  0.26152  0.92428  0.64613  1.0000
  H   H1105     1.0  0.26537  0.94119  0.66551  1.0000
  H   H1106     1.0  0.32465  0.84461  0.54278  1.0000
  H   H1107     1.0  0.14362  0.81721  0.54826  1.0000
  C   C650      1.0  0.44382  0.96867  0.69065  1.0000
  H   H1108     1.0  0.45217  0.74827  0.94878  1.0000
  H   H1109     1.0  0.29729  0.93173  0.66749  1.0000
  C   C651      1.0  0.33892  0.83355  0.56979  1.0000
  H   H1110     1.0  0.04410  0.76182  0.65976  1.0000
  H   H1111     1.0  0.35284  0.76372  0.80764  1.0000
  H   H1112     1.0  0.12965  0.74570  0.69449  1.0000
  S   S191      1.0  0.35093  0.74991  0.89528  1.0000
  H   H1113     1.0  0.26798  0.80883  0.57159  1.0000
  H   H1114     1.0  0.28435  0.86082  0.59157  1.0000
  H   H1115     1.0  0.41035  0.97259  0.69458  1.0000
  H   H1116     1.0  0.45972  0.94369  0.74772  1.0000
  H   H1117     1.0  0.41374  0.94383  0.71125  1.0000
  H   H1118     1.0  0.30966  0.86811  0.59001  1.0000
  C   C652      1.0  0.32373  0.84798  0.55911  1.0000
  C   C653      1.0  0.30472  0.83946  0.60568  1.0000
  C   C654      1.0  0.16052  0.74317  0.63689  1.0000
  C   C655      1.0  0.17646  0.87064  0.49956  1.0000
  H   H1119     1.0  0.01989  0.76116  0.64934  1.0000
  H   H1120     1.0  0.45154  0.97634  0.72793  1.0000
  H   H1121     1.0  0.39150  0.97258  0.79576  1.0000
  H   H1122     1.0  0.43164  0.92465  0.71698  1.0000
  H   H1123     1.0  0.30255  0.81537  0.57360  1.0000
  H   H1124     1.0  0.29584  0.82265  0.54903  1.0000
  H   H1125     1.0  0.08588  0.75787  0.52611  1.0000
  C   C656      1.0  0.35739  0.98475  0.75368  1.0000
  H   H1126     1.0  0.35523  0.74448  0.78885  1.0000
  C   C657      1.0  0.42368  0.98107  0.68930  1.0000
  C   C658      1.0  0.37649  0.97357  0.80374  1.0000
  C   C659      1.0  0.22149  0.97815  0.58875  1.0000
  H   H1127     1.0  0.04104  0.77693  0.55040  1.0000
  C   C660      1.0  0.25585  0.98860  0.63300  1.0000
  H   H1128     1.0  0.37785  0.97953  0.81890  1.0000
  C   C661      1.0  0.47902  0.76387  0.98684  1.0000
  H   H1129     1.0  0.27155  0.96031  0.58283  1.0000
  C   C662      1.0  0.08626  0.74799  0.51359  1.0000
  C   C663      1.0  0.15687  0.74349  0.67420  1.0000
  H   H1130     1.0  0.36729  0.98499  0.79513  1.0000
  H   H1131     1.0  0.47706  0.79120  0.85393  1.0000
  C   C664      1.0  0.08255  0.75587  0.49402  1.0000
  H   H1132     1.0  0.05187  0.75364  0.54212  1.0000
  C   C665      1.0  0.44659  0.74236  0.96382  1.0000
  C   C666      1.0  0.23796  0.86429  0.49613  1.0000
  C   C667      1.0  0.12626  0.74600  0.65342  1.0000
  C   C668      1.0  0.36102  0.74972  0.80302  1.0000
  H   H1133     1.0  0.32213  0.74915  0.79543  1.0000
  C   C669      1.0  0.48341  0.74213  0.90841  1.0000
  H   H1134     1.0  0.99255  0.75641  0.50753  1.0000
  H   H1135     1.0  0.15188  0.74267  0.62291  1.0000
  H   H1136     1.0  0.15300  0.74420  0.70683  1.0000
  H   H1137     1.0  0.12023  0.74198  0.63887  1.0000
  S   S192      1.0  0.44216  0.74108  0.90860  1.0000
  C   C670      1.0  0.02976  0.74120  0.50647  1.0000
  Fe  Fe97      1.0  0.59404  0.10059  0.26098  1.0000
  S   S193      1.0  0.61410  0.09827  0.23318  1.0000
  S   S194      1.0  0.60733  0.10233  0.29250  1.0000
  Fe  Fe98      1.0  0.55521  0.09701  0.23642  1.0000
  S   S195      1.0  0.57396  0.09411  0.20739  1.0000
  S   S196      1.0  0.52182  0.09439  0.22966  1.0000
  Fe  Fe99      1.0  0.59420  0.07303  0.22569  1.0000
  S   S197      1.0  0.60872  0.04253  0.21740  1.0000
  Fe  Fe100     1.0  0.59163  0.11969  0.21766  1.0000
  S   S198      1.0  0.59935  0.15052  0.20225  1.0000
  S   S199      1.0  0.57479  0.07463  0.25397  1.0000
  S   S200      1.0  0.57225  0.12329  0.24619  1.0000
  H   H1138     1.0  0.67104  0.17482  0.29646  1.0000
  H   H1139     1.0  0.64016  0.16312  0.23120  1.0000
  Fe  Fe101     1.0  0.59284  0.22218  0.09846  1.0000
  S   S201      1.0  0.59458  0.18980  0.11227  1.0000
  H   H1140     1.0  0.55188  0.20295  0.11324  1.0000
  H   H1141     1.0  0.59784  0.20168  0.25032  1.0000
  N   N49       1.0  0.65891  0.21809  0.13325  1.0000
  S   S202      1.0  0.88273  0.20986  0.39858  1.0000
  H   H1142     1.0  0.66020  0.05446  0.31426  1.0000
  S   S203      1.0  0.93269  0.20983  0.36381  1.0000
  Fe  Fe102     1.0  0.85786  0.22288  0.37971  1.0000
  S   S204      1.0  0.82979  0.20646  0.37007  1.0000
  Fe  Fe103     1.0  0.71205  0.10274  0.35840  1.0000
  S   S205      1.0  0.74264  0.08616  0.35586  1.0000
  S   S206      1.0  0.69543  0.10836  0.32847  1.0000
  Fe  Fe104     1.0  0.71534  0.10519  0.40469  1.0000
  S   S207      1.0  0.74516  0.08863  0.40439  1.0000
  S   S208      1.0  0.70068  0.11497  0.43471  1.0000
  Fe  Fe105     1.0  0.75341  0.10885  0.37732  1.0000
  S   S209      1.0  0.78510  0.12193  0.37957  1.0000
  Fe  Fe106     1.0  0.73179  0.06775  0.38324  1.0000
  S   S210      1.0  0.73052  0.03442  0.39328  1.0000
  S   S211      1.0  0.72363  0.12640  0.37838  1.0000
  S   S212      1.0  0.70113  0.08346  0.38495  1.0000
  C   C671      1.0  0.73675  0.01043  0.38337  1.0000
  C   C672      1.0  0.74747  0.00795  0.36497  1.0000
  H   H1143     1.0  0.78574  0.14149  0.44076  1.0000
  H   H1144     1.0  0.75210  0.02106  0.35603  1.0000
  C   C673      1.0  0.53960  0.20595  0.14955  1.0000
  C   C674      1.0  0.73001  0.10083  0.46092  1.0000
  C   C675      1.0  0.71013  0.10804  0.45881  1.0000
  C   C676      1.0  0.69508  0.04056  0.48770  1.0000
  H   H1145     1.0  0.73987  0.09912  0.44770  1.0000
  H   H1146     1.0  0.68242  0.11658  0.47492  1.0000
  C   C677      1.0  0.81747  0.18291  0.37340  1.0000
  C   C678      1.0  0.82546  0.16644  0.38470  1.0000
  C   C679      1.0  0.81540  0.14801  0.38632  1.0000
  C   C680      1.0  0.79695  0.14577  0.37706  1.0000
  C   C681      1.0  0.78882  0.16233  0.36599  1.0000
  C   C682      1.0  0.79906  0.18065  0.36412  1.0000
  H   H1147     1.0  0.83941  0.16788  0.39218  1.0000
  H   H1148     1.0  0.82189  0.13540  0.39494  1.0000
  H   H1149     1.0  0.77480  0.16096  0.35860  1.0000
  H   H1150     1.0  0.79266  0.19319  0.35530  1.0000
  H   H1151     1.0  0.70011  0.99835  0.45961  1.0000
  C   C683      1.0  0.53541  0.20673  0.11300  1.0000
  C   C684      1.0  0.97164  0.19810  0.35463  1.0000
  C   C685      1.0  0.95924  0.21034  0.36701  1.0000
  H   H1152     1.0  0.96495  0.18916  0.34366  1.0000
  H   H1153     1.0  0.65948  0.16591  0.26518  1.0000
  H   H1154     1.0  0.59702  0.21573  0.01536  1.0000
  C   C686      1.0  0.64571  0.21842  0.11529  1.0000
  C   C687      1.0  0.59648  0.16123  0.17727  1.0000
  C   C688      1.0  0.59425  0.14943  0.16062  1.0000
  C   C689      1.0  0.59355  0.15847  0.14098  1.0000
  C   C690      1.0  0.59465  0.17946  0.13761  1.0000
  C   C691      1.0  0.59630  0.19136  0.15431  1.0000
  C   C692      1.0  0.59745  0.18228  0.17392  1.0000
  H   H1155     1.0  0.59358  0.13325  0.16280  1.0000
  H   H1156     1.0  0.59228  0.14904  0.12826  1.0000
  H   H1157     1.0  0.59700  0.20753  0.15209  1.0000
  H   H1158     1.0  0.59913  0.19163  0.18661  1.0000
  C   C693      1.0  0.63218  0.10284  0.30211  1.0000
  C   C694      1.0  0.63438  0.10216  0.32314  1.0000
  C   C695      1.0  0.65353  0.10321  0.33151  1.0000
  C   C696      1.0  0.67089  0.10537  0.31897  1.0000
  C   C697      1.0  0.66869  0.10593  0.29793  1.0000
  C   C698      1.0  0.64961  0.10438  0.28956  1.0000
  H   H1159     1.0  0.62113  0.10094  0.33311  1.0000
  H   H1160     1.0  0.65481  0.10283  0.34770  1.0000
  H   H1161     1.0  0.68194  0.10747  0.28802  1.0000
  H   H1162     1.0  0.64850  0.10452  0.27338  1.0000
  H   H1163     1.0  0.64341  0.17423  0.16014  1.0000
  H   H1164     1.0  0.68939  0.21082  0.14206  1.0000
  H   H1165     1.0  0.91580  0.18543  0.33178  1.0000
  C   C699      1.0  0.70346  0.03749  0.44401  1.0000
  S   S213      1.0  0.88259  0.22974  0.44920  1.0000
  H   H1166     1.0  0.76786  0.05871  0.45023  1.0000
  C   C700      1.0  0.59804  0.01871  0.22321  1.0000
  C   C701      1.0  0.72884  0.01421  0.45919  1.0000
  H   H1167     1.0  0.57037  0.03052  0.23693  1.0000
  H   H1168     1.0  0.55629  0.99687  0.24456  1.0000
  N   N50       1.0  0.88877  0.15987  0.35355  1.0000
  C   C702      1.0  0.90216  0.15677  0.37136  1.0000
  C   C703      1.0  0.90177  0.15572  0.33488  1.0000
  C   C704      1.0  0.87250  0.14465  0.35591  1.0000
  C   C705      1.0  0.87985  0.18113  0.35350  1.0000
  C   C706      1.0  0.89139  0.15612  0.39243  1.0000
  C   C707      1.0  0.85679  0.14521  0.33955  1.0000
  C   C708      1.0  0.87246  0.19032  0.33317  1.0000
  H   H1169     1.0  0.91146  0.14248  0.37026  1.0000
  H   H1170     1.0  0.91319  0.16895  0.37153  1.0000
  H   H1171     1.0  0.89313  0.15706  0.32102  1.0000
  H   H1172     1.0  0.90771  0.13979  0.33543  1.0000
  H   H1173     1.0  0.87938  0.12908  0.35692  1.0000
  H   H1174     1.0  0.86338  0.14658  0.37017  1.0000
  H   H1175     1.0  0.86708  0.18230  0.36484  1.0000
  H   H1176     1.0  0.89122  0.19159  0.35831  1.0000
  H   H1177     1.0  0.87909  0.16776  0.39386  1.0000
  H   H1178     1.0  0.88520  0.14108  0.39607  1.0000
  H   H1179     1.0  0.90243  0.15878  0.40403  1.0000
  H   H1180     1.0  0.84704  0.15916  0.34010  1.0000
  H   H1181     1.0  0.84653  0.13256  0.34275  1.0000
  H   H1182     1.0  0.86359  0.14321  0.32423  1.0000
  H   H1183     1.0  0.85844  0.19960  0.33609  1.0000
  H   H1184     1.0  0.86885  0.17948  0.32191  1.0000
  H   H1185     1.0  0.88349  0.20101  0.32635  1.0000
  N   N51       1.0  0.62739  0.16303  0.27207  1.0000
  C   C709      1.0  0.62499  0.14697  0.25707  1.0000
  C   C710      1.0  0.61443  0.15860  0.29084  1.0000
  C   C711      1.0  0.59167  0.15731  0.28826  1.0000
  C   C712      1.0  0.60516  0.18647  0.24879  1.0000
  H   H1186     1.0  0.65363  0.14586  0.28268  1.0000
  H   H1187     1.0  0.60960  0.14709  0.25139  1.0000
  H   H1188     1.0  0.62697  0.13178  0.26447  1.0000
  H   H1189     1.0  0.61966  0.14415  0.29838  1.0000
  H   H1190     1.0  0.61580  0.17035  0.30207  1.0000
  H   H1191     1.0  0.64843  0.16877  0.31026  1.0000
  H   H1192     1.0  0.58813  0.14576  0.27763  1.0000
  H   H1193     1.0  0.58462  0.17217  0.28399  1.0000
  H   H1194     1.0  0.58446  0.15255  0.30301  1.0000
  H   H1195     1.0  0.59308  0.17561  0.25129  1.0000
  C   C713      1.0  0.92007  0.16918  0.33128  1.0000
  N   N52       1.0  0.74814  0.16123  0.43313  1.0000
  C   C714      1.0  0.66648  0.05069  0.29906  1.0000
  C   C715      1.0  0.75730  0.14217  0.42448  1.0000
  C   C716      1.0  0.73143  0.16922  0.41998  1.0000
  C   C717      1.0  0.76338  0.17702  0.43583  1.0000
  H   H1196     1.0  0.68489  0.05402  0.48511  1.0000
  C   C718      1.0  0.77397  0.13126  0.43674  1.0000
  C   C719      1.0  0.73749  0.17596  0.39815  1.0000
  H   H1197     1.0  0.72805  0.14314  0.45216  1.0000
  H   H1198     1.0  0.53214  0.23763  0.15683  1.0000
  H   H1199     1.0  0.65208  0.00254  0.26381  1.0000
  H   H1200     1.0  0.76384  0.14480  0.40909  1.0000
  H   H1201     1.0  0.74540  0.13113  0.42263  1.0000
  H   H1202     1.0  0.71973  0.15771  0.41919  1.0000
  H   H1203     1.0  0.72358  0.18267  0.42647  1.0000
  H   H1204     1.0  0.70569  0.21671  0.10678  1.0000
  H   H1205     1.0  0.78322  0.19571  0.41653  1.0000
  H   H1206     1.0  0.54815  0.16434  0.14836  1.0000
  C   C720      1.0  0.75796  0.04751  0.45806  1.0000
  H   H1207     1.0  0.66103  0.06661  0.25369  1.0000
  C   C721      1.0  0.69171  0.22486  0.11225  1.0000
  H   H1208     1.0  0.65674  0.18734  0.10623  1.0000
  H   H1209     1.0  0.76766  0.12351  0.45057  1.0000
  H   H1210     1.0  0.73316  0.06383  0.44516  1.0000
  C   C722      1.0  0.59954  0.04800  0.30011  1.0000
  H   H1211     1.0  0.66409  0.17493  0.14220  1.0000
  H   H1212     1.0  0.73557  0.18596  0.46585  1.0000
  C   C723      1.0  0.96836  0.22183  0.38117  1.0000
  C   C724      1.0  0.53692  0.20717  0.01804  1.0000
  N   N53       1.0  0.63449  0.03784  0.28393  1.0000
  C   C725      1.0  0.62243  0.04472  0.30239  1.0000
  C   C726      1.0  0.65571  0.03306  0.29038  1.0000
  C   C727      1.0  0.62534  0.01891  0.27735  1.0000
  C   C728      1.0  0.63324  0.05430  0.26757  1.0000
  H   H1213     1.0  0.64743  0.23281  0.10629  1.0000
  H   H1214     1.0  0.84541  0.20832  0.47584  1.0000
  H   H1215     1.0  0.53338  0.20087  0.16470  1.0000
  C   C729      1.0  0.65039  0.05466  0.25101  1.0000
  H   H1216     1.0  0.62453  0.03383  0.31543  1.0000
  H   H1217     1.0  0.62769  0.05935  0.30727  1.0000
  H   H1218     1.0  0.66570  0.02746  0.27792  1.0000
  H   H1219     1.0  0.65581  0.02050  0.30203  1.0000
  H   H1220     1.0  0.51016  0.17470  0.12505  1.0000
  H   H1221     1.0  0.60988  0.02223  0.27192  1.0000
  H   H1222     1.0  0.61870  0.05392  0.25988  1.0000
  H   H1223     1.0  0.63303  0.06930  0.27434  1.0000
  H   H1224     1.0  0.74143  0.04244  0.43177  1.0000
  H   H1225     1.0  0.66590  0.06432  0.28896  1.0000
  H   H1226     1.0  0.59285  0.05534  0.31370  1.0000
  H   H1227     1.0  0.77134  0.17365  0.45007  1.0000
  H   H1228     1.0  0.49679  0.03768  0.23271  1.0000
  H   H1229     1.0  0.63652  0.01683  0.24582  1.0000
  H   H1230     1.0  0.50655  0.10600  0.27008  1.0000
  C   C730      1.0  0.50581  0.23984  0.00359  1.0000
  H   H1231     1.0  0.49324  0.21676  0.10682  1.0000
  H   H1232     1.0  0.64383  0.05904  0.23630  1.0000
  H   H1233     1.0  0.65885  0.04026  0.24877  1.0000
  H   H1234     1.0  0.77671  0.17392  0.40435  1.0000
  C   C731      1.0  0.59559  0.22478  0.00156  1.0000
  H   H1235     1.0  0.72358  0.18007  0.38999  1.0000
  H   H1236     1.0  0.63444  0.13771  0.22692  1.0000
  N   N54       1.0  0.52544  0.20143  0.13327  1.0000
  H   H1237     1.0  0.62367  0.00203  0.21043  1.0000
  H   H1238     1.0  0.54960  0.16813  0.12123  1.0000
  H   H1239     1.0  0.52137  0.20179  0.01797  1.0000
  C   C732      1.0  0.57906  0.01705  0.23297  1.0000
  C   C733      1.0  0.52092  0.17941  0.13598  1.0000
  H   H1240     1.0  0.75563  0.19205  0.43757  1.0000
  H   H1241     1.0  0.63617  0.18962  0.25461  1.0000
  C   C734      1.0  0.73787  0.04774  0.44722  1.0000
  C   C735      1.0  0.78019  0.17947  0.41910  1.0000
  H   H1242     1.0  0.74550  0.16394  0.38956  1.0000
  H   H1243     1.0  0.59616  0.05820  0.28704  1.0000
  H   H1244     1.0  0.61095  0.18606  0.23285  1.0000
  H   H1245     1.0  0.55426  0.19749  0.14736  1.0000
  H   H1246     1.0  0.74646  0.18968  0.39769  1.0000
  H   H1247     1.0  0.53427  0.14909  0.13301  1.0000
  H   H1248     1.0  0.52704  0.20772  0.08162  1.0000
  H   H1249     1.0  0.93184  0.16548  0.34235  1.0000
  C   C736      1.0  0.64909  0.16166  0.27812  1.0000
  C   C737      1.0  0.62272  0.18399  0.26339  1.0000
  H   H1250     1.0  0.61958  0.19469  0.27569  1.0000
  H   H1251     1.0  0.65500  0.14221  0.24215  1.0000
  C   C738      1.0  0.65438  0.17493  0.29548  1.0000
  C   C739      1.0  0.53943  0.16462  0.13447  1.0000
  C   C740      1.0  0.49725  0.03882  0.24928  1.0000
  C   C741      1.0  0.63960  0.14780  0.23837  1.0000
  H   H1252     1.0  0.92714  0.16654  0.31612  1.0000
  H   H1253     1.0  0.64902  0.19081  0.29309  1.0000
  H   H1254     1.0  0.79465  0.17225  0.42392  1.0000
  C   C742      1.0  0.98968  0.22068  0.38293  1.0000
  H   H1255     1.0  0.78148  0.11938  0.42745  1.0000
  C   C743      1.0  0.73864  0.15544  0.45353  1.0000
  H   H1256     1.0  0.50010  0.21148  0.15241  1.0000
  C   C744      1.0  0.49388  0.10448  0.26066  1.0000
  H   H1257     1.0  0.53417  0.22328  0.10983  1.0000
  H   H1258     1.0  0.62950  0.21823  0.12034  1.0000
  C   C745      1.0  0.52783  0.19645  0.09442  1.0000
  H   H1259     1.0  0.53892  0.18454  0.08939  1.0000
  H   H1260     1.0  0.55728  0.22906  0.16166  1.0000
  H   H1261     1.0  0.50119  0.02390  0.25642  1.0000
  C   C746      1.0  0.68046  0.21144  0.12822  1.0000
  H   H1262     1.0  0.50269  0.22398  0.00056  1.0000
  S   S214      1.0  0.56704  0.23166  0.07862  1.0000
  H   H1263     1.0  0.75020  0.14941  0.46404  1.0000
  H   H1264     1.0  0.72293  0.16668  0.48038  1.0000
  H   H1265     1.0  0.69048  0.02912  0.45037  1.0000
  H   H1266     1.0  0.73416  0.00900  0.44402  1.0000
  C   C747      1.0  0.60902  0.00095  0.21808  1.0000
  H   H1267     1.0  0.68264  0.04632  0.30085  1.0000
  H   H1268     1.0  0.65858  0.20705  0.08664  1.0000
  H   H1269     1.0  0.68176  0.19590  0.12290  1.0000
  C   C748      1.0  0.73727  0.09595  0.48019  1.0000
  H   H1270     1.0  0.68260  0.22884  0.09898  1.0000
  H   H1271     1.0  0.63481  0.20971  0.15463  1.0000
  H   H1272     1.0  0.76620  0.03271  0.45719  1.0000
  H   H1273     1.0  0.54399  0.19991  0.03149  1.0000
  C   C749      1.0  0.49730  0.09955  0.24050  1.0000
  H   H1274     1.0  0.51274  0.19015  0.09627  1.0000
  C   C750      1.0  0.71630  0.04421  0.47805  1.0000
  H   H1275     1.0  0.63507  0.19732  0.09431  1.0000
  C   C751      1.0  0.69775  0.11073  0.47632  1.0000
  H   H1276     1.0  0.69802  0.99681  0.32550  1.0000
  Fe  Fe107     1.0  0.90462  0.22607  0.37750  1.0000
  H   H1277     1.0  0.75592  0.05187  0.47396  1.0000
  H   H1278     1.0  0.63826  0.17975  0.13454  1.0000
  H   H1279     1.0  0.50972  0.04891  0.25191  1.0000
  H   H1280     1.0  0.55072  0.23462  0.13627  1.0000
  H   H1281     1.0  0.65941  0.20585  0.16395  1.0000
  H   H1282     1.0  0.54588  0.20180  0.00469  1.0000
  C   C752      1.0  0.63657  0.00772  0.26016  1.0000
  H   H1283     1.0  0.51318  0.17639  0.15097  1.0000
  C   C753      1.0  0.71402  0.99871  0.46816  1.0000
  C   C754      1.0  0.64968  0.20147  0.10013  1.0000
  C   C755      1.0  0.54503  0.22816  0.15094  1.0000
  C   C756      1.0  0.64925  0.18221  0.14617  1.0000
  C   C757      1.0  0.65050  0.20474  0.15024  1.0000
  C   C758      1.0  0.57110  0.99791  0.23728  1.0000
  N   N55       1.0  0.72117  0.03586  0.45753  1.0000
  H   H1284     1.0  0.59192  0.03358  0.29899  1.0000
  H   H1285     1.0  0.72267  0.99489  0.40908  1.0000
  H   H1286     1.0  0.75265  0.09027  0.48158  1.0000
  S   S215      1.0  0.87999  0.23704  0.35683  1.0000
  C   C759      1.0  0.73097  0.99320  0.39485  1.0000
  H   H1287     1.0  0.95900  0.23123  0.39099  1.0000
  H   H1288     1.0  0.70742  0.03024  0.42949  1.0000
  H   H1289     1.0  0.62365  0.00787  0.29036  1.0000
  H   H1290     1.0  0.74211  0.01261  0.46881  1.0000
  S   S216      1.0  0.61544  0.23702  0.07662  1.0000
  H   H1291     1.0  0.68785  0.02698  0.48302  1.0000
  H   H1292     1.0  0.62833  0.99396  0.25742  1.0000
  H   H1293     1.0  0.70547  0.06681  0.42753  1.0000
  H   H1294     1.0  0.50941  0.23043  0.13510  1.0000
  C   C760      1.0  0.50633  0.21411  0.13671  1.0000
  Fe  Fe108     1.0  0.88010  0.23859  0.41555  1.0000
  C   C761      1.0  0.69536  0.05908  0.43883  1.0000
  H   H1295     1.0  0.71747  0.06086  0.47713  1.0000
  H   H1296     1.0  0.68055  0.05845  0.43182  1.0000
  H   H1297     1.0  0.81963  0.21029  0.48451  1.0000
  C   C762      1.0  0.53730  0.23026  0.01963  1.0000
  H   H1298     1.0  0.69319  0.06835  0.45227  1.0000
  H   H1299     1.0  0.55335  0.23387  0.02114  1.0000
  H   H1300     1.0  0.71046  0.00109  0.48433  1.0000
  C   C763      1.0  0.72675  0.17231  0.46473  1.0000
  C   C764      1.0  0.83524  0.21267  0.48881  1.0000
  H   H1301     1.0  0.89213  0.21539  0.48884  1.0000
  H   H1302     1.0  0.71216  0.17623  0.45776  1.0000
  H   H1303     1.0  0.52956  0.23372  0.03435  1.0000
  H   H1304     1.0  0.67015  0.23984  0.15311  1.0000
  C   C765      1.0  0.65934  0.23919  0.14083  1.0000
  H   H1305     1.0  0.69641  0.23892  0.11882  1.0000
  H   H1306     1.0  0.72760  0.03852  0.48903  1.0000
  C   C766      1.0  0.88521  0.23030  0.49026  1.0000
  H   H1307     1.0  0.62178  0.18387  0.72562  1.0000
  S   S217      1.0  0.56547  0.22074  0.89432  1.0000
  H   H1308     1.0  0.53463  0.16360  0.86104  1.0000
  S   S218      1.0  0.59884  0.21527  0.94108  1.0000
  Fe  Fe109     1.0  0.58443  0.22561  0.86560  1.0000
  S   S219      1.0  0.57964  0.20827  0.83665  1.0000
  H   H1309     1.0  0.62149  0.12771  0.75785  1.0000
  S   S220      1.0  0.87818  0.21778  0.57169  1.0000
  Fe  Fe110     1.0  0.85553  0.22217  0.59763  1.0000
  S   S221      1.0  0.82514  0.20606  0.60085  1.0000
  H   H1310     1.0  0.52043  0.21867  0.90142  1.0000
  S   S222      1.0  0.93249  0.20969  0.59632  1.0000
  Fe  Fe111     1.0  0.73291  0.06449  0.59296  1.0000
  S   S223      1.0  0.70595  0.07578  0.57613  1.0000
  S   S224      1.0  0.73236  0.03238  0.60707  1.0000
  Fe  Fe112     1.0  0.75158  0.10727  0.59047  1.0000
  S   S225      1.0  0.72491  0.12082  0.57403  1.0000
  S   S226      1.0  0.78264  0.12092  0.59504  1.0000
  Fe  Fe113     1.0  0.70549  0.10218  0.59661  1.0000
  S   S227      1.0  0.67424  0.11063  0.61154  1.0000
  Fe  Fe114     1.0  0.72742  0.09308  0.55531  1.0000
  S   S228      1.0  0.73463  0.09012  0.52130  1.0000
  S   S229      1.0  0.73207  0.09042  0.61399  1.0000
  S   S230      1.0  0.75451  0.08000  0.57125  1.0000
  Fe  Fe115     1.0  0.58437  0.11003  0.76274  1.0000
  S   S231      1.0  0.58138  0.12897  0.73418  1.0000
  S   S232      1.0  0.59201  0.12336  0.79303  1.0000
  Fe  Fe116     1.0  0.57834  0.07043  0.74041  1.0000
  S   S233      1.0  0.57468  0.08783  0.71081  1.0000
  S   S234      1.0  0.57444  0.03714  0.73439  1.0000
  Fe  Fe117     1.0  0.60132  0.10529  0.71859  1.0000
  S   S235      1.0  0.63199  0.10929  0.70106  1.0000
  Fe  Fe118     1.0  0.55506  0.10945  0.72898  1.0000
  S   S236      1.0  0.52467  0.12326  0.71944  1.0000
  S   S237      1.0  0.60573  0.08710  0.74765  1.0000
  S   S238      1.0  0.55729  0.09139  0.75812  1.0000
  H   H1311     1.0  0.62116  0.06145  0.65819  1.0000
  C   C767      1.0  0.58383  0.01318  0.74341  1.0000
  C   C768      1.0  0.59151  0.00990  0.76259  1.0000
  H   H1312     1.0  0.57625  0.99897  0.71635  1.0000
  H   H1313     1.0  0.59293  0.02249  0.77214  1.0000
  H   H1314     1.0  0.59209  0.04014  0.66316  1.0000
  C   C769      1.0  0.50010  0.09282  0.73484  1.0000
  C   C770      1.0  0.70500  0.10576  0.49567  1.0000
  H   H1315     1.0  0.60418  0.15924  0.76222  1.0000
  H   H1316     1.0  0.64802  0.06879  0.69268  1.0000
  C   C771      1.0  0.66287  0.10932  0.63662  1.0000
  C   C772      1.0  0.64166  0.11042  0.63920  1.0000
  C   C773      1.0  0.63192  0.11014  0.65863  1.0000
  C   C774      1.0  0.64326  0.10918  0.67594  1.0000
  C   C775      1.0  0.66447  0.10809  0.67339  1.0000
  C   C776      1.0  0.67419  0.10795  0.65397  1.0000
  H   H1317     1.0  0.63266  0.11164  0.62600  1.0000
  H   H1318     1.0  0.61565  0.11113  0.66014  1.0000
  H   H1319     1.0  0.67351  0.10736  0.68656  1.0000
  H   H1320     1.0  0.69047  0.10725  0.65239  1.0000
  C   C777      1.0  0.72480  0.09819  0.49770  1.0000
  H   H1321     1.0  0.51137  0.23658  0.83564  1.0000
  H   H1322     1.0  0.63192  0.13514  0.73425  1.0000
  C   C778      1.0  0.51411  0.19179  0.88441  1.0000
  H   H1323     1.0  0.69521  0.10760  0.50897  1.0000
  C   C779      1.0  0.83890  0.19167  0.54367  1.0000
  C   C780      1.0  0.73935  0.00809  0.59819  1.0000
  C   C781      1.0  0.61691  0.16756  0.75483  1.0000
  H   H1324     1.0  0.94387  0.21509  0.64200  1.0000
  H   H1325     1.0  0.66001  0.04493  0.69562  1.0000
  C   C782      1.0  0.81376  0.18220  0.59866  1.0000
  C   C783      1.0  0.79255  0.18149  0.59912  1.0000
  C   C784      1.0  0.78277  0.16312  0.59755  1.0000
  C   C785      1.0  0.79403  0.14496  0.59581  1.0000
  C   C786      1.0  0.81526  0.14568  0.59525  1.0000
  C   C787      1.0  0.82504  0.16410  0.59651  1.0000
  H   H1326     1.0  0.78356  0.19530  0.60082  1.0000
  H   H1327     1.0  0.76648  0.16298  0.59812  1.0000
  H   H1328     1.0  0.82424  0.13183  0.59393  1.0000
  H   H1329     1.0  0.84132  0.16422  0.59621  1.0000
  Fe  Fe119     1.0  0.90167  0.22581  0.59339  1.0000
  C   C788      1.0  0.97354  0.21071  0.60054  1.0000
  H   H1330     1.0  0.97269  0.19484  0.60464  1.0000
  H   H1331     1.0  0.65419  0.14593  0.78360  1.0000
  C   C789      1.0  0.95587  0.22184  0.59547  1.0000
  C   C790      1.0  0.58323  0.18441  0.82497  1.0000
  C   C791      1.0  0.57508  0.18201  0.80600  1.0000
  C   C792      1.0  0.57726  0.16350  0.79617  1.0000
  C   C793      1.0  0.58784  0.14700  0.80505  1.0000
  C   C794      1.0  0.59597  0.14941  0.82402  1.0000
  C   C795      1.0  0.59364  0.16787  0.83393  1.0000
  H   H1332     1.0  0.56691  0.19458  0.79887  1.0000
  H   H1333     1.0  0.57074  0.16202  0.78171  1.0000
  H   H1334     1.0  0.60417  0.13686  0.83115  1.0000
  H   H1335     1.0  0.59999  0.16930  0.84849  1.0000
  H   H1336     1.0  0.67583  0.06262  0.66752  1.0000
  C   C796      1.0  0.59791  0.21572  0.98269  1.0000
  C   C797      1.0  0.75315  0.00520  0.58194  1.0000
  H   H1337     1.0  0.62795  0.14370  0.78786  1.0000
  C   C798      1.0  0.65902  0.16375  0.72558  1.0000
  C   C799      1.0  0.65316  0.12043  0.75391  1.0000
  H   H1338     1.0  0.65171  0.10695  0.74482  1.0000
  H   H1339     1.0  0.66764  0.12721  0.74922  1.0000
  H   H1340     1.0  0.65351  0.11498  0.76992  1.0000
  S   S239      1.0  0.61204  0.23337  0.88231  1.0000
  H   H1341     1.0  0.54401  0.18260  0.84302  1.0000
  C   C800      1.0  0.66090  0.05636  0.66521  1.0000
  H   H1342     1.0  0.61668  0.18238  0.76195  1.0000
  H   H1343     1.0  0.70867  0.00461  0.52263  1.0000
  H   H1344     1.0  0.66382  0.04183  0.65785  1.0000
  H   H1345     1.0  0.52763  0.21618  0.82572  1.0000
  H   H1346     1.0  0.58609  0.04973  0.68793  1.0000
  C   C801      1.0  0.58206  0.99660  0.73126  1.0000
  C   C802      1.0  0.63442  0.03614  0.72395  1.0000
  S   S240      1.0  0.87945  0.22765  0.62009  1.0000
  H   H1347     1.0  0.64892  0.99756  0.67178  1.0000
  N   N56       1.0  0.50978  0.20125  0.86389  1.0000
  H   H1348     1.0  0.51367  0.08530  0.74026  1.0000
  H   H1349     1.0  0.69622  0.03906  0.50434  1.0000
  C   C803      1.0  0.53136  0.17272  0.84713  1.0000
  C   C804      1.0  0.59339  0.05310  0.67291  1.0000
  H   H1350     1.0  0.80809  0.22635  0.55821  1.0000
  H   H1351     1.0  0.63699  0.99945  0.69662  1.0000
  H   H1352     1.0  0.76931  0.04927  0.66249  1.0000
  H   H1353     1.0  0.51425  0.19694  0.91655  1.0000
  H   H1354     1.0  0.66823  0.16230  0.75607  1.0000
  H   H1355     1.0  0.84744  0.16194  0.55594  1.0000
  C   C805      1.0  0.79290  0.19511  0.54240  1.0000
  H   H1356     1.0  0.65196  0.18341  0.75033  1.0000
  H   H1357     1.0  0.53465  0.02248  0.76628  1.0000
  H   H1358     1.0  0.84815  0.16318  0.52912  1.0000
  H   H1359     1.0  0.80836  0.18072  0.51725  1.0000
  H   H1360     1.0  0.85729  0.20242  0.50999  1.0000
  N   N57       1.0  0.62915  0.04456  0.68570  1.0000
  H   H1361     1.0  0.53802  0.23737  0.83618  1.0000
  C   C806      1.0  0.64952  0.05377  0.68587  1.0000
  C   C807      1.0  0.62005  0.04208  0.70690  1.0000
  C   C808      1.0  0.63005  0.02478  0.67539  1.0000
  H   H1362     1.0  0.60121  0.19968  0.98213  1.0000
  C   C809      1.0  0.51103  0.18471  0.84898  1.0000
  C   C810      1.0  0.52548  0.00920  0.76404  1.0000
  C   C811      1.0  0.64446  0.00809  0.68389  1.0000
  H   H1363     1.0  0.49920  0.17363  0.85291  1.0000
  C   C812      1.0  0.61551  0.05913  0.67407  1.0000
  C   C813      1.0  0.51054  0.20565  0.90247  1.0000
  H   H1364     1.0  0.61217  0.05634  0.71170  1.0000
  H   H1365     1.0  0.75928  0.01811  0.57374  1.0000
  H   H1366     1.0  0.74772  0.04426  0.64884  1.0000
  H   H1367     1.0  0.61496  0.01807  0.67624  1.0000
  H   H1368     1.0  0.63337  0.02683  0.65887  1.0000
  H   H1369     1.0  0.75445  0.06966  0.65080  1.0000
  C   C814      1.0  0.71896  0.99903  0.53452  1.0000
  H   H1370     1.0  0.69416  0.99486  0.55522  1.0000
  H   H1371     1.0  0.64385  0.02244  0.72092  1.0000
  H   H1372     1.0  0.79995  0.20560  0.51223  1.0000
  H   H1373     1.0  0.72101  0.99309  0.62133  1.0000
  H   H1374     1.0  0.62526  0.03292  0.73805  1.0000
  H   H1375     1.0  0.64407  0.04879  0.72706  1.0000
  H   H1376     1.0  0.53011  0.18618  0.88500  1.0000
  H   H1377     1.0  0.49463  0.21119  0.90440  1.0000
  H   H1378     1.0  0.65882  0.01368  0.68872  1.0000
  H   H1379     1.0  0.84078  0.18375  0.50328  1.0000
  H   H1380     1.0  0.67215  0.15303  0.72351  1.0000
  C   C815      1.0  0.63940  0.15360  0.78046  1.0000
  C   C816      1.0  0.63860  0.17320  0.79218  1.0000
  H   H1381     1.0  0.80021  0.19211  0.55686  1.0000
  H   H1382     1.0  0.61132  0.15926  0.72357  1.0000
  H   H1383     1.0  0.92675  0.21809  0.66409  1.0000
  H   H1384     1.0  0.54074  0.21016  0.86084  1.0000
  H   H1385     1.0  0.98759  0.22735  0.51186  1.0000
  C   C817      1.0  0.53777  0.23561  0.98292  1.0000
  C   C818      1.0  0.52531  0.21685  0.85898  1.0000
  C   C819      1.0  0.80766  0.19589  0.52380  1.0000
  C   C820      1.0  0.83956  0.16853  0.54265  1.0000
  C   C821      1.0  0.88223  0.23831  0.50952  1.0000
  C   C822      1.0  0.61154  0.17267  0.73284  1.0000
  H   H1386     1.0  0.58456  0.06593  0.66595  1.0000
  H   H1387     1.0  0.59609  0.17972  0.73278  1.0000
  H   H1388     1.0  0.51129  0.01114  0.77327  1.0000
  C   C823      1.0  0.65414  0.16691  0.74830  1.0000
  H   H1389     1.0  0.64410  0.16977  0.80755  1.0000
  C   C824      1.0  0.84113  0.19968  0.50765  1.0000
  H   H1390     1.0  0.66381  0.17821  0.71825  1.0000
  H   H1391     1.0  0.60827  0.03064  0.70755  1.0000
  H   H1392     1.0  0.64649  0.15881  0.71686  1.0000
  H   H1393     1.0  0.53078  0.16199  0.83482  1.0000
  H   H1394     1.0  0.78274  0.18238  0.54126  1.0000
  H   H1395     1.0  0.82423  0.16247  0.54351  1.0000
  H   H1396     1.0  0.83198  0.19503  0.55866  1.0000
  H   H1397     1.0  0.88688  0.22959  0.52274  1.0000
  H   H1398     1.0  0.72409  0.01253  0.54186  1.0000
  N   N58       1.0  0.63655  0.15590  0.75800  1.0000
  N   N59       1.0  0.79314  0.06257  0.62706  1.0000
  C   C825      1.0  0.79827  0.06608  0.60483  1.0000
  C   C826      1.0  0.79109  0.08295  0.63626  1.0000
  C   C827      1.0  0.77329  0.05222  0.62909  1.0000
  C   C828      1.0  0.80983  0.04942  0.63586  1.0000
  C   C829      1.0  0.79767  0.04754  0.59163  1.0000
  C   C830      1.0  0.81028  0.09531  0.63519  1.0000
  C   C831      1.0  0.76082  0.05410  0.64912  1.0000
  C   C832      1.0  0.80904  0.04549  0.65891  1.0000
  H   H1399     1.0  0.78783  0.07782  0.59820  1.0000
  H   H1400     1.0  0.81361  0.07204  0.60226  1.0000
  H   H1401     1.0  0.78605  0.08197  0.65235  1.0000
  H   H1402     1.0  0.77896  0.09231  0.62890  1.0000
  H   H1403     1.0  0.76309  0.05832  0.61729  1.0000
  H   H1404     1.0  0.77544  0.03583  0.62637  1.0000
  H   H1405     1.0  0.81016  0.03424  0.62941  1.0000
  H   H1406     1.0  0.82495  0.05512  0.63125  1.0000
  H   H1407     1.0  0.80864  0.03539  0.59616  1.0000
  H   H1408     1.0  0.78235  0.04151  0.59150  1.0000
  H   H1409     1.0  0.80179  0.05222  0.57577  1.0000
  H   H1410     1.0  0.80691  0.10968  0.64284  1.0000
  H   H1411     1.0  0.82286  0.08736  0.64301  1.0000
  H   H1412     1.0  0.81510  0.09961  0.61946  1.0000
  C   C833      1.0  0.50130  0.11140  0.72425  1.0000
  N   N60       1.0  0.82847  0.20317  0.52677  1.0000
  H   H1413     1.0  0.84281  0.23183  0.52639  1.0000
  H   H1414     1.0  0.80016  0.03207  0.66321  1.0000
  H   H1415     1.0  0.80310  0.05845  0.66749  1.0000
  H   H1416     1.0  0.82463  0.04264  0.66402  1.0000
  C   C834      1.0  0.63486  0.13499  0.75047  1.0000
  H   H1417     1.0  0.64821  0.18487  0.78490  1.0000
  H   H1418     1.0  0.62287  0.17927  0.79441  1.0000
  H   H1419     1.0  0.52377  0.22921  0.86972  1.0000
  H   H1420     1.0  0.96398  0.22411  0.66654  1.0000
  H   H1421     1.0  0.61517  0.07427  0.68072  1.0000
  H   H1422     1.0  0.98046  0.23067  0.55055  1.0000
  C   C835      1.0  0.52522  0.22709  0.83782  1.0000
  H   H1423     1.0  0.85470  0.19645  0.54433  1.0000
  H   H1424     1.0  0.91750  0.21419  0.64003  1.0000
  C   C836      1.0  0.59600  0.22725  0.96454  1.0000
  H   H1425     1.0  0.52210  0.00971  0.74785  1.0000
  Fe  Fe120     1.0  0.59185  0.23103  0.91081  1.0000
  H   H1426     1.0  0.78348  0.20926  0.54327  1.0000
  C   C837      1.0  0.92932  0.22180  0.64782  1.0000
  H   H1427     1.0  0.65309  0.06728  0.65486  1.0000
  H   H1428     1.0  0.81711  0.23370  0.52005  1.0000
  H   H1429     1.0  0.96030  0.23683  0.53437  1.0000
  H   H1430     1.0  0.50786  0.19065  0.83354  1.0000
  H   H1431     1.0  0.54209  0.99203  0.78613  1.0000
  H   H1432     1.0  0.83467  0.22822  0.56196  1.0000
  H   H1433     1.0  0.50477  0.17839  0.88766  1.0000
  C   C838      1.0  0.82781  0.22551  0.53023  1.0000
  C   C839      1.0  0.82232  0.23230  0.55173  1.0000
  H   H1434     1.0  0.53070  0.22170  0.97840  1.0000
  C   C840      1.0  0.73161  0.99106  0.60867  1.0000
  H   H1435     1.0  0.55399  0.23129  0.98477  1.0000
  H   H1436     1.0  0.98381  0.22623  0.64793  1.0000
  H   H1437     1.0  0.73249  0.99155  0.52755  1.0000
  C   C841      1.0  0.97398  0.23499  0.65866  1.0000
  H   H1438     1.0  0.98433  0.24080  0.66953  1.0000
  H   H1439     1.0  0.83735  0.22894  0.49069  1.0000
  H   H1440     1.0  0.93979  0.24078  0.68159  1.0000
  Fe  Fe121     1.0  0.73338  0.38063  0.06613  1.0000
  S   S241      1.0  0.70627  0.39879  0.07703  1.0000
  S   S242      1.0  0.73221  0.36578  0.03583  1.0000
  Fe  Fe122     1.0  0.75329  0.38184  0.10780  1.0000
  S   S243      1.0  0.72662  0.39933  0.12137  1.0000
  S   S244      1.0  0.78336  0.37191  0.12211  1.0000
  Fe  Fe123     1.0  0.70730  0.37820  0.10489  1.0000
  S   S245      1.0  0.67750  0.36408  0.11592  1.0000
  Fe  Fe124     1.0  0.72779  0.41806  0.09216  1.0000
  S   S246      1.0  0.73207  0.45165  0.08535  1.0000
  S   S247      1.0  0.73390  0.35952  0.09357  1.0000
  S   S248      1.0  0.75500  0.40107  0.07907  1.0000
  S   S249      1.0  0.58513  0.27726  0.07695  1.0000
  H   H1441     1.0  0.99065  0.25404  0.35128  1.0000
  Fe  Fe125     1.0  0.56441  0.25878  0.09745  1.0000
  S   S250      1.0  0.53338  0.26749  0.11116  1.0000
  Fe  Fe126     1.0  0.61071  0.26458  0.09533  1.0000
  S   S251      1.0  0.64149  0.27781  0.10106  1.0000
  Fe  Fe127     1.0  0.85771  0.39551  0.21831  1.0000
  S   S252      1.0  0.84905  0.39831  0.25131  1.0000
  S   S253      1.0  0.82956  0.39995  0.19880  1.0000
  Fe  Fe128     1.0  0.90317  0.39179  0.22873  1.0000
  S   S254      1.0  0.89656  0.39515  0.26189  1.0000
  S   S255      1.0  0.93482  0.38180  0.21703  1.0000
  Fe  Fe129     1.0  0.87195  0.37338  0.25854  1.0000
  S   S256      1.0  0.86642  0.34298  0.27581  1.0000
  Fe  Fe130     1.0  0.87433  0.41985  0.25178  1.0000
  S   S257      1.0  0.86686  0.44912  0.26784  1.0000
  S   S258      1.0  0.87914  0.36922  0.22540  1.0000
  S   S259      1.0  0.88243  0.41794  0.21868  1.0000
  Fe  Fe131     1.0  0.87785  0.26448  0.37550  1.0000
  S   S260      1.0  0.87851  0.29727  0.36221  1.0000
  H   H1442     1.0  0.92607  0.29204  0.28638  1.0000
  H   H1443     1.0  0.92753  0.32355  0.30941  1.0000
  S   S261      1.0  0.90358  0.25393  0.39528  1.0000
  C   C842      1.0  0.49241  0.24918  0.07239  1.0000
  H   H1444     1.0  0.71360  0.32509  0.02599  1.0000
  C   C843      1.0  0.87042  0.26063  0.47486  1.0000
  H   H1445     1.0  0.86575  0.26928  0.46160  1.0000
  C   C844      1.0  0.76214  0.44750  0.13672  1.0000
  H   H1446     1.0  0.79544  0.44284  0.15352  1.0000
  C   C845      1.0  0.87029  0.33064  0.29994  1.0000
  C   C846      1.0  0.87614  0.34082  0.31660  1.0000
  C   C847      1.0  0.87871  0.33033  0.33537  1.0000
  C   C848      1.0  0.87559  0.30949  0.33785  1.0000
  C   C849      1.0  0.87006  0.29927  0.32107  1.0000
  C   C850      1.0  0.86736  0.30978  0.30234  1.0000
  H   H1447     1.0  0.87827  0.35686  0.31519  1.0000
  H   H1448     1.0  0.88287  0.33849  0.34820  1.0000
  H   H1449     1.0  0.86755  0.28330  0.32263  1.0000
  H   H1450     1.0  0.86285  0.30165  0.28964  1.0000
  C   C851      1.0  0.87486  0.47365  0.26050  1.0000
  H   H1451     1.0  0.68089  0.36356  0.07090  1.0000
  H   H1452     1.0  0.83458  0.32415  0.08039  1.0000
  H   H1453     1.0  0.89541  0.46431  0.23648  1.0000
  N   N61       1.0  0.66971  0.33697  0.03976  1.0000
  C   C852      1.0  0.97599  0.37739  0.22062  1.0000
  C   C853      1.0  0.95823  0.38829  0.22653  1.0000
  C   C854      1.0  0.95963  0.40421  0.23941  1.0000
  H   H1454     1.0  0.97507  0.36497  0.21075  1.0000
  H   H1455     1.0  0.94615  0.41274  0.24411  1.0000
  H   H1456     1.0  0.82269  0.35491  0.02755  1.0000
  S   S262      1.0  0.58730  0.25795  0.02548  1.0000
  H   H1457     1.0  0.52848  0.28973  0.02494  1.0000
  C   C855      1.0  0.51064  0.26166  0.09996  1.0000
  H   H1458     1.0  0.80696  0.33488  0.03410  1.0000
  H   H1459     1.0  0.66120  0.36304  0.02073  1.0000
  N   N62       1.0  0.77245  0.46521  0.14467  1.0000
  C   C856      1.0  0.66769  0.34022  0.11081  1.0000
  C   C857      1.0  0.68016  0.32369  0.10531  1.0000
  C   C858      1.0  0.67183  0.30486  0.10235  1.0000
  C   C859      1.0  0.65087  0.30228  0.10434  1.0000
  C   C860      1.0  0.63835  0.31892  0.10938  1.0000
  C   C861      1.0  0.64673  0.33763  0.11284  1.0000
  H   H1460     1.0  0.69629  0.32531  0.10384  1.0000
  H   H1461     1.0  0.68174  0.29216  0.09853  1.0000
  H   H1462     1.0  0.62223  0.31728  0.11112  1.0000
  H   H1463     1.0  0.63689  0.35022  0.11718  1.0000
  C   C862      1.0  0.79603  0.38026  0.14333  1.0000
  C   C863      1.0  0.81544  0.37211  0.14730  1.0000
  C   C864      1.0  0.82603  0.37807  0.16395  1.0000
  C   C865      1.0  0.81736  0.39234  0.17696  1.0000
  C   C866      1.0  0.79790  0.40044  0.17304  1.0000
  C   C867      1.0  0.78731  0.39446  0.15640  1.0000
  H   H1464     1.0  0.82238  0.36106  0.13743  1.0000
  H   H1465     1.0  0.84089  0.37159  0.16672  1.0000
  H   H1466     1.0  0.79086  0.41127  0.18309  1.0000
  H   H1467     1.0  0.77228  0.40057  0.15384  1.0000
  C   C868      1.0  0.86682  0.49030  0.27103  1.0000
  C   C869      1.0  0.72576  0.47475  0.09708  1.0000
  Fe  Fe132     1.0  0.58919  0.24921  0.05902  1.0000
  C   C870      1.0  0.79425  0.45882  0.14769  1.0000
  H   H1468     1.0  0.70770  0.46231  0.12188  1.0000
  C   C871      1.0  0.73832  0.37634  0.01143  1.0000
  C   C872      1.0  0.80645  0.38248  0.05197  1.0000
  H   H1469     1.0  0.70675  0.43715  0.00300  1.0000
  H   H1470     1.0  0.80067  0.46736  0.17834  1.0000
  H   H1471     1.0  0.75691  0.39943  0.02129  1.0000
  C   C873      1.0  0.77268  0.43754  0.11827  1.0000
  H   H1472     1.0  0.77942  0.47871  0.11504  1.0000
  H   H1473     1.0  0.79707  0.38995  0.08335  1.0000
  H   H1474     1.0  0.80754  0.41013  0.06835  1.0000
  H   H1475     1.0  0.96316  0.37558  0.28932  1.0000
  H   H1476     1.0  0.75867  0.33565  0.06167  1.0000
  C   C874      1.0  0.91840  0.33792  0.25130  1.0000
  H   H1477     1.0  0.66424  0.29679  0.05627  1.0000
  H   H1478     1.0  0.73295  0.43522  0.99621  1.0000
  H   H1479     1.0  0.83258  0.32444  0.05377  1.0000
  H   H1480     1.0  0.94038  0.36833  0.31814  1.0000
  H   H1481     1.0  0.72159  0.35463  0.99663  1.0000
  C   C875      1.0  0.65098  0.30426  0.04916  1.0000
  H   H1482     1.0  0.68602  0.32055  0.06342  1.0000
  H   H1483     1.0  0.91138  0.32379  0.28946  1.0000
  C   C876      1.0  0.93778  0.30349  0.28664  1.0000
  H   H1484     1.0  0.97757  0.28869  0.32317  1.0000
  H   H1485     1.0  0.76032  0.43539  0.14869  1.0000
  H   H1486     1.0  0.69824  0.34142  0.05305  1.0000
  H   H1487     1.0  0.76962  0.48177  0.17240  1.0000
  C   C877      1.0  0.71397  0.47583  0.11502  1.0000
  H   H1488     1.0  0.95031  0.33279  0.25483  1.0000
  H   H1489     1.0  0.73004  0.46642  0.15750  1.0000
  H   H1490     1.0  0.79278  0.37554  0.01452  1.0000
  H   H1491     1.0  0.90896  0.35923  0.28721  1.0000
  C   C878      1.0  0.59145  0.24554  0.00241  1.0000
  H   H1492     1.0  0.91519  0.37818  0.31634  1.0000
  H   H1493     1.0  0.49181  0.27188  0.12506  1.0000
  C   C879      1.0  0.70324  0.31564  0.03554  1.0000
  H   H1494     1.0  0.94509  0.30396  0.27137  1.0000
  H   H1495     1.0  0.82209  0.46574  0.16138  1.0000
  C   C880      1.0  0.92506  0.36061  0.29070  1.0000
  H   H1496     1.0  0.66441  0.31225  0.02030  1.0000
  H   H1497     1.0  0.74661  0.45187  0.13214  1.0000
  C   C881      1.0  0.51072  0.25333  0.08099  1.0000
  H   H1498     1.0  0.94917  0.29826  0.29763  1.0000
  H   H1499     1.0  0.96361  0.27447  0.34241  1.0000
  H   H1500     1.0  0.77396  0.44814  0.10498  1.0000
  H   H1501     1.0  0.65599  0.37366  0.07504  1.0000
  H   H1502     1.0  0.77765  0.32793  0.07918  1.0000
  H   H1503     1.0  0.68723  0.36115  0.02585  1.0000
  H   H1504     1.0  0.81466  0.35455  0.08445  1.0000
  H   H1505     1.0  0.64276  0.32712  0.02668  1.0000
  C   C882      1.0  0.73119  0.36732  0.99451  1.0000
  C   C883      1.0  0.77513  0.33515  0.06406  1.0000
  H   H1506     1.0  0.77654  0.35507  0.02232  1.0000
  H   H1507     1.0  0.81098  0.31918  0.07054  1.0000
  H   H1508     1.0  0.91441  0.32204  0.25446  1.0000
  C   C884      1.0  0.68896  0.32886  0.04880  1.0000
  H   H1509     1.0  0.69541  0.30552  0.02602  1.0000
  H   H1510     1.0  0.80305  0.45927  0.13301  1.0000
  H   H1511     1.0  0.78169  0.32538  0.05228  1.0000
  H   H1512     1.0  0.54989  0.26590  0.00447  1.0000
  C   C885      1.0  0.80881  0.39361  0.07164  1.0000
  C   C886      1.0  0.65743  0.34787  0.05592  1.0000
  H   H1513     1.0  0.91916  0.35221  0.32303  1.0000
  H   H1514     1.0  0.50889  0.27213  0.02802  1.0000
  H   H1515     1.0  0.96770  0.32943  0.28507  1.0000
  C   C887      1.0  0.87931  0.24134  0.47281  1.0000
  C   C888      1.0  0.75117  0.39243  0.00843  1.0000
  H   H1516     1.0  0.52486  0.25041  0.07280  1.0000
  C   C889      1.0  0.80725  0.35152  0.03369  1.0000
  H   H1517     1.0  0.69059  0.33183  0.00105  1.0000
  H   H1518     1.0  0.53346  0.26661  0.03846  1.0000
  H   H1519     1.0  0.78096  0.36219  0.07849  1.0000
  H   H1520     1.0  0.49262  0.24304  0.05758  1.0000
  C   C890      1.0  0.95865  0.34264  0.29074  1.0000
  C   C891      1.0  0.67415  0.35201  0.02256  1.0000
  C   C892      1.0  0.92521  0.36474  0.31338  1.0000
  H   H1521     1.0  0.79606  0.35170  0.00337  1.0000
  H   H1522     1.0  0.95895  0.34087  0.30745  1.0000
  H   H1523     1.0  0.82002  0.38585  0.04211  1.0000
  H   H1524     1.0  0.75506  0.48464  0.12420  1.0000
  H   H1525     1.0  0.90573  0.34810  0.25618  1.0000
  H   H1526     1.0  0.71243  0.30540  0.04545  1.0000
  N   N63       1.0  0.93740  0.34245  0.28379  1.0000
  H   H1527     1.0  0.64213  0.35234  0.05064  1.0000
  C   C893      1.0  0.66653  0.36703  0.06343  1.0000
  C   C894      1.0  0.82432  0.32844  0.06802  1.0000
  H   H1528     1.0  0.64035  0.31038  0.06094  1.0000
  C   C895      1.0  0.92768  0.32382  0.29266  1.0000
  S   S263      1.0  0.85410  0.25123  0.39745  1.0000
  C   C896      1.0  0.93807  0.34295  0.26103  1.0000
  N   N64       1.0  0.80587  0.35082  0.23461  1.0000
  C   C897      1.0  0.80210  0.34967  0.21242  1.0000
  C   C898      1.0  0.82841  0.34955  0.23650  1.0000
  C   C899      1.0  0.79783  0.37109  0.24141  1.0000
  C   C900      1.0  0.79527  0.33390  0.24603  1.0000
  C   C901      1.0  0.78020  0.35384  0.20616  1.0000
  C   C902      1.0  0.83926  0.33025  0.22873  1.0000
  C   C903      1.0  0.79988  0.37545  0.26379  1.0000
  C   C904      1.0  0.80343  0.32696  0.26682  1.0000
  H   H1529     1.0  0.81159  0.36037  0.20334  1.0000
  H   H1530     1.0  0.80667  0.33452  0.20689  1.0000
  H   H1531     1.0  0.83279  0.35104  0.25216  1.0000
  H   H1532     1.0  0.83537  0.36254  0.22810  1.0000
  H   H1533     1.0  0.80520  0.38340  0.23227  1.0000
  H   H1534     1.0  0.78144  0.37312  0.23896  1.0000
  H   H1535     1.0  0.77892  0.33793  0.24832  1.0000
  H   H1536     1.0  0.79602  0.32019  0.23690  1.0000
  H   H1537     1.0  0.77895  0.34944  0.19031  1.0000
  H   H1538     1.0  0.76926  0.34510  0.21566  1.0000
  H   H1539     1.0  0.77601  0.37017  0.20630  1.0000
  H   H1540     1.0  0.83191  0.31638  0.23444  1.0000
  H   H1541     1.0  0.84044  0.33062  0.21201  1.0000
  H   H1542     1.0  0.85493  0.32937  0.23399  1.0000
  H   H1543     1.0  0.78993  0.36594  0.27368  1.0000
  H   H1544     1.0  0.79484  0.39134  0.26619  1.0000
  H   H1545     1.0  0.81559  0.37389  0.26867  1.0000
  H   H1546     1.0  0.79053  0.32330  0.27736  1.0000
  H   H1547     1.0  0.81217  0.33803  0.27432  1.0000
  H   H1548     1.0  0.81266  0.31272  0.26563  1.0000
  C   C905      1.0  0.76195  0.47008  0.16457  1.0000
  H   H1549     1.0  0.66875  0.37879  0.05131  1.0000
  H   H1550     1.0  0.94196  0.35817  0.25481  1.0000
  H   H1551     1.0  0.83395  0.35853  0.06538  1.0000
  H   H1552     1.0  0.79349  0.39018  0.04432  1.0000
  C   C906      1.0  0.65698  0.32048  0.03291  1.0000
  C   C907      1.0  0.78265  0.35683  0.06287  1.0000
  H   H1553     1.0  0.76248  0.45660  0.17514  1.0000
  C   C908      1.0  0.88907  0.47695  0.24467  1.0000
  H   H1554     1.0  0.63416  0.24165  0.16362  1.0000
  H   H1555     1.0  0.77136  0.36642  0.05460  1.0000
  H   H1556     1.0  0.76335  0.42516  0.11386  1.0000
  C   C909      1.0  0.73977  0.47767  0.16354  1.0000
  H   H1557     1.0  0.92993  0.37456  0.28233  1.0000
  H   H1558     1.0  0.62708  0.24751  0.13787  1.0000
  C   C910      1.0  0.77075  0.48240  0.12919  1.0000
  H   H1559     1.0  0.92037  0.34011  0.23466  1.0000
  H   H1560     1.0  0.97954  0.42233  0.25515  1.0000
  H   H1561     1.0  0.65494  0.33788  0.06956  1.0000
  C   C911      1.0  0.67843  0.34365  0.00142  1.0000
  H   H1562     1.0  0.85587  0.48790  0.28335  1.0000
  H   H1563     1.0  0.98571  0.36012  0.29016  1.0000
  C   C912      1.0  0.97862  0.40962  0.24564  1.0000
  N   N65       1.0  0.80374  0.36000  0.05431  1.0000
  H   H1564     1.0  0.97790  0.29441  0.34952  1.0000
  C   C913      1.0  0.81926  0.35126  0.06853  1.0000
  H   H1565     1.0  0.82383  0.39032  0.07795  1.0000
  C   C914      1.0  0.79218  0.35909  0.01780  1.0000
  S   S264      1.0  0.58953  0.24879  0.11795  1.0000
  H   H1566     1.0  0.64290  0.29233  0.04199  1.0000
  C   C915      1.0  0.52539  0.27342  0.02543  1.0000
  C   C916      1.0  0.97795  0.28216  0.33881  1.0000
  C   C917      1.0  0.97047  0.36143  0.28387  1.0000
  C   C918      1.0  0.80592  0.47072  0.16249  1.0000
  H   H1567     1.0  0.98698  0.27137  0.38088  1.0000
  H   H1568     1.0  0.97277  0.36272  0.26723  1.0000
  H   H1569     1.0  0.78766  0.43055  0.12165  1.0000
  H   H1570     1.0  0.64080  0.26480  0.15101  1.0000
  H   H1571     1.0  0.73370  0.48066  0.17902  1.0000
  C   C919      1.0  0.53324  0.26440  0.00542  1.0000
  H   H1572     1.0  0.80514  0.48713  0.15919  1.0000
  H   H1573     1.0  0.82633  0.48949  0.23005  1.0000
  H   H1574     1.0  0.66477  0.24992  0.12865  1.0000
  C   C920      1.0  0.63903  0.24850  0.14878  1.0000
  H   H1575     1.0  0.66460  0.33786  0.99532  1.0000
  H   H1576     1.0  0.49914  0.24167  0.01911  1.0000
  N   N66       1.0  0.52821  0.24282  0.00256  1.0000
  H   H1577     1.0  0.52768  0.27469  0.99318  1.0000
  C   C921      1.0  0.49205  0.26537  0.11040  1.0000
  H   H1578     1.0  0.68333  0.35612  0.99089  1.0000
  Fe  Fe133     1.0  0.71083  0.37263  0.89503  1.0000
  S   S265      1.0  0.74433  0.36607  0.89792  1.0000
  S   S266      1.0  0.69058  0.34516  0.90098  1.0000
  Fe  Fe134     1.0  0.71787  0.41871  0.88964  1.0000
  S   S267      1.0  0.75133  0.41452  0.89159  1.0000
  S   S268      1.0  0.70210  0.44984  0.88661  1.0000
  Fe  Fe135     1.0  0.74909  0.38827  0.87147  1.0000
  S   S269      1.0  0.76607  0.38166  0.84108  1.0000
  Fe  Fe136     1.0  0.74362  0.39289  0.91777  1.0000
  S   S270      1.0  0.75879  0.39821  0.94723  1.0000
  S   S271      1.0  0.71552  0.39378  0.86790  1.0000
  S   S272      1.0  0.71021  0.39816  0.91650  1.0000
  Fe  Fe137     1.0  0.60041  0.26586  0.88057  1.0000
  S   S273      1.0  0.61756  0.29455  0.87067  1.0000
  H   H1579     1.0  0.91638  0.44591  0.75183  1.0000
  N   N67       1.0  0.93640  0.46310  0.73188  1.0000
  S   S274      1.0  0.58175  0.26350  0.90961  1.0000
  S   S275      1.0  0.57396  0.25840  0.86214  1.0000
  Fe  Fe138     1.0  0.87102  0.36681  0.72415  1.0000
  S   S276      1.0  0.88951  0.36030  0.75164  1.0000
  S   S277      1.0  0.85867  0.34132  0.70604  1.0000
  Fe  Fe139     1.0  0.87000  0.41285  0.73108  1.0000
  S   S278      1.0  0.88862  0.40899  0.75829  1.0000
  S   S279      1.0  0.85887  0.44384  0.71905  1.0000
  Fe  Fe140     1.0  0.90784  0.38678  0.74043  1.0000
  S   S280      1.0  0.94160  0.38908  0.73178  1.0000
  Fe  Fe141     1.0  0.86841  0.38316  0.76722  1.0000
  S   S281      1.0  0.85579  0.38206  0.80019  1.0000
  S   S282      1.0  0.89009  0.39221  0.71235  1.0000
  S   S283      1.0  0.84895  0.38813  0.74057  1.0000
  Fe  Fe142     1.0  0.87637  0.26079  0.61127  1.0000
  S   S284      1.0  0.88447  0.28793  0.62962  1.0000
  C   C922      1.0  0.92106  0.46599  0.71570  1.0000
  S   S285      1.0  0.86842  0.26788  0.53568  1.0000
  S   S286      1.0  0.85099  0.25572  0.59083  1.0000
  S   S287      1.0  0.89935  0.25869  0.58535  1.0000
  C   C923      1.0  0.91258  0.44686  0.70733  1.0000
  H   H1580     1.0  0.86533  0.43909  0.78830  1.0000
  H   H1581     1.0  0.98409  0.38203  0.79132  1.0000
  H   H1582     1.0  0.86797  0.35662  0.58602  1.0000
  H   H1583     1.0  0.69538  0.48127  0.93317  1.0000
  C   C924      1.0  0.86649  0.32644  0.68495  1.0000
  C   C925      1.0  0.88424  0.32971  0.67331  1.0000
  C   C926      1.0  0.88947  0.31772  0.65661  1.0000
  C   C927      1.0  0.87716  0.30216  0.65129  1.0000
  C   C928      1.0  0.85948  0.29882  0.66296  1.0000
  C   C929      1.0  0.85420  0.31089  0.67958  1.0000
  H   H1584     1.0  0.89385  0.34161  0.67711  1.0000
  H   H1585     1.0  0.90312  0.32064  0.64770  1.0000
  H   H1586     1.0  0.84976  0.28703  0.65915  1.0000
  H   H1587     1.0  0.84043  0.30816  0.68839  1.0000
  C   C930      1.0  0.86567  0.46671  0.72927  1.0000
  H   H1588     1.0  0.96874  0.46170  0.73468  1.0000
  H   H1589     1.0  0.59250  0.30917  0.90512  1.0000
  H   H1590     1.0  0.86981  0.32215  0.54343  1.0000
  H   H1591     1.0  0.56157  0.29906  0.92773  1.0000
  H   H1592     1.0  0.79782  0.41783  0.73688  1.0000
  C   C931      1.0  0.96409  0.39029  0.74515  1.0000
  C   C932      1.0  0.96495  0.38569  0.76583  1.0000
  C   C933      1.0  0.71580  0.45799  0.97830  1.0000
  H   H1593     1.0  0.95141  0.38159  0.77442  1.0000
  H   H1594     1.0  0.49201  0.24525  0.97426  1.0000
  H   H1595     1.0  0.89242  0.29535  0.56016  1.0000
  C   C934      1.0  0.86426  0.33375  0.55417  1.0000
  C   C935      1.0  0.54532  0.31120  0.86777  1.0000
  C   C936      1.0  0.50182  0.26287  0.88947  1.0000
  C   C937      1.0  0.79126  0.38159  0.83023  1.0000
  C   C938      1.0  0.80800  0.38554  0.84129  1.0000
  C   C939      1.0  0.82757  0.38524  0.83193  1.0000
  C   C940      1.0  0.83078  0.38122  0.81133  1.0000
  C   C941      1.0  0.81403  0.37724  0.80027  1.0000
  C   C942      1.0  0.79448  0.37740  0.80967  1.0000
  H   H1596     1.0  0.80592  0.38874  0.85708  1.0000
  H   H1597     1.0  0.84035  0.38831  0.84070  1.0000
  H   H1598     1.0  0.81616  0.37396  0.78450  1.0000
  H   H1599     1.0  0.78174  0.37424  0.80091  1.0000
  C   C943      1.0  0.67017  0.33142  0.89219  1.0000
  C   C944      1.0  0.66004  0.33719  0.87468  1.0000
  C   C945      1.0  0.64426  0.32560  0.86830  1.0000
  C   C946      1.0  0.63812  0.30814  0.87933  1.0000
  C   C947      1.0  0.64821  0.30239  0.89686  1.0000
  C   C948      1.0  0.66410  0.31389  0.90315  1.0000
  H   H1600     1.0  0.66424  0.35065  0.86610  1.0000
  H   H1601     1.0  0.63663  0.33030  0.85475  1.0000
  H   H1602     1.0  0.64380  0.28906  0.90558  1.0000
  H   H1603     1.0  0.67175  0.30916  0.91669  1.0000
  C   C949      1.0  0.73668  0.37433  0.97478  1.0000
  C   C950      1.0  0.75002  0.38999  0.97175  1.0000
  C   C951      1.0  0.76103  0.45437  0.93977  1.0000
  H   H1604     1.0  0.73114  0.36716  0.96191  1.0000
  H   H1605     1.0  0.97676  0.26743  0.58596  1.0000
  C   C952      1.0  0.71382  0.47309  0.88948  1.0000
  C   C953      1.0  0.93714  0.25624  0.67521  1.0000
  C   C954      1.0  0.73449  0.47391  0.89230  1.0000
  H   H1606     1.0  0.55702  0.37281  0.89998  1.0000
  H   H1607     1.0  0.74381  0.46020  0.89232  1.0000
  N   N68       1.0  0.73289  0.32161  0.84806  1.0000
  C   C955      1.0  0.75533  0.31727  0.84864  1.0000
  C   C956      1.0  0.72469  0.30876  0.83239  1.0000
  C   C957      1.0  0.72238  0.31674  0.86812  1.0000
  C   C958      1.0  0.72920  0.34371  0.84304  1.0000
  C   C959      1.0  0.76618  0.32680  0.86571  1.0000
  C   C960      1.0  0.72992  0.31519  0.81025  1.0000
  C   C961      1.0  0.72579  0.29502  0.87664  1.0000
  C   C962      1.0  0.70695  0.35081  0.84081  1.0000
  H   H1608     1.0  0.75889  0.30077  0.84971  1.0000
  H   H1609     1.0  0.76303  0.32270  0.83434  1.0000
  H   H1610     1.0  0.70800  0.30791  0.83417  1.0000
  H   H1611     1.0  0.73033  0.29283  0.83444  1.0000
  H   H1612     1.0  0.72660  0.32721  0.87973  1.0000
  H   H1613     1.0  0.70577  0.31921  0.86712  1.0000
  H   H1614     1.0  0.73473  0.35284  0.85512  1.0000
  H   H1615     1.0  0.73826  0.34890  0.82944  1.0000
  H   H1616     1.0  0.76039  0.32182  0.88092  1.0000
  H   H1617     1.0  0.78242  0.32212  0.86462  1.0000
  H   H1618     1.0  0.76552  0.34345  0.86423  1.0000
  H   H1619     1.0  0.72250  0.32990  0.80594  1.0000
  H   H1620     1.0  0.74640  0.31586  0.80712  1.0000
  H   H1621     1.0  0.72426  0.30391  0.80024  1.0000
  H   H1622     1.0  0.74186  0.29131  0.87942  1.0000
  H   H1623     1.0  0.71986  0.28385  0.86673  1.0000
  H   H1624     1.0  0.71733  0.29346  0.89141  1.0000
  H   H1625     1.0  0.69990  0.35473  0.85566  1.0000
  H   H1626     1.0  0.69763  0.33960  0.83424  1.0000
  H   H1627     1.0  0.70624  0.36430  0.83038  1.0000
  H   H1628     1.0  0.92079  0.25964  0.67865  1.0000
  H   H1629     1.0  0.54090  0.29611  0.86339  1.0000
  H   H1630     1.0  0.83092  0.30397  0.60191  1.0000
  C   C963      1.0  0.55524  0.36004  0.91116  1.0000
  C   C964      1.0  0.59182  0.24798  0.96551  1.0000
  H   H1631     1.0  0.55326  0.31820  0.85440  1.0000
  H   H1632     1.0  0.84702  0.45884  0.79392  1.0000
  H   H1633     1.0  0.56881  0.34597  0.86600  1.0000
  C   C965      1.0  0.97541  0.24142  0.53851  1.0000
  H   H1634     1.0  0.72408  0.42898  0.94594  1.0000
  H   H1635     1.0  0.80085  0.44411  0.73860  1.0000
  H   H1636     1.0  0.53110  0.31981  0.87147  1.0000
  H   H1637     1.0  0.75499  0.44564  0.92771  1.0000
  C   C966      1.0  0.96294  0.44450  0.70906  1.0000
  H   H1638     1.0  0.95475  0.44602  0.69488  1.0000
  H   H1639     1.0  0.84319  0.34544  0.53221  1.0000
  H   H1640     1.0  0.93637  0.30070  0.62029  1.0000
  H   H1641     1.0  0.93233  0.43084  0.73621  1.0000
  H   H1642     1.0  0.51458  0.26924  0.85966  1.0000
  N   N69       1.0  0.86694  0.32626  0.57568  1.0000
  H   H1643     1.0  0.90355  0.31746  0.54837  1.0000
  N   N70       1.0  0.72554  0.45881  0.95735  1.0000
  C   C967      1.0  0.95722  0.24232  0.59008  1.0000
  H   H1644     1.0  0.88599  0.48523  0.77051  1.0000
  H   H1645     1.0  0.54286  0.36410  0.92222  1.0000
  H   H1646     1.0  0.92718  0.27705  0.61462  1.0000
  Fe  Fe143     1.0  0.87433  0.25116  0.56572  1.0000
  C   C968      1.0  0.87322  0.25752  0.51160  1.0000
  H   H1647     1.0  0.82574  0.32243  0.58196  1.0000
  H   H1648     1.0  0.60879  0.34286  0.88782  1.0000
  H   H1649     1.0  0.57130  0.29753  0.88171  1.0000
  H   H1650     1.0  0.94670  0.28981  0.65285  1.0000
  C   C969      1.0  0.95755  0.46219  0.72269  1.0000
  C   C970      1.0  0.85989  0.34251  0.58985  1.0000
  C   C971      1.0  0.98189  0.39554  0.73428  1.0000
  H   H1651     1.0  0.82610  0.29632  0.57745  1.0000
  H   H1652     1.0  0.53909  0.33237  0.91080  1.0000
  H   H1653     1.0  0.56887  0.35826  0.92009  1.0000
  H   H1654     1.0  0.69060  0.42713  0.95411  1.0000
  H   H1655     1.0  0.83780  0.41662  0.77963  1.0000
  H   H1656     1.0  0.97930  0.44447  0.70481  1.0000
  H   H1657     1.0  0.98144  0.39915  0.71828  1.0000
  H   H1658     1.0  0.83505  0.35105  0.55724  1.0000
  C   C972      1.0  0.84261  0.33925  0.54802  1.0000
  C   C973      1.0  0.59582  0.35139  0.88116  1.0000
  C   C974      1.0  0.90062  0.30905  0.56292  1.0000
  H   H1659     1.0  0.89209  0.31527  0.59350  1.0000
  H   H1660     1.0  0.87345  0.34722  0.55067  1.0000
  H   H1661     1.0  0.85510  0.34931  0.62157  1.0000
  H   H1662     1.0  0.85583  0.32295  0.61743  1.0000
  H   H1663     1.0  0.54771  0.26316  0.96636  1.0000
  C   C975      1.0  0.98351  0.38594  0.77537  1.0000
  C   C976      1.0  0.98970  0.24164  0.51955  1.0000
  H   H1664     1.0  0.96003  0.42976  0.71675  1.0000
  C   C977      1.0  0.54997  0.34079  0.90072  1.0000
  H   H1665     1.0  0.54076  0.34609  0.88782  1.0000
  H   H1666     1.0  0.89720  0.33702  0.57800  1.0000
  C   C978      1.0  0.83366  0.30793  0.58562  1.0000
  H   H1667     1.0  0.72066  0.44868  0.92746  1.0000
  H   H1668     1.0  0.98341  0.25388  0.50937  1.0000
  H   H1669     1.0  0.59045  0.36349  0.89116  1.0000
  C   C979      1.0  0.87448  0.46690  0.74796  1.0000
  H   H1670     1.0  0.86366  0.29816  0.59279  1.0000
  C   C980      1.0  0.88929  0.32254  0.57841  1.0000
  H   H1671     1.0  0.76345  0.47009  0.93425  1.0000
  N   N71       1.0  0.94159  0.25775  0.65274  1.0000
  H   H1672     1.0  0.83343  0.32570  0.54804  1.0000
  C   C981      1.0  0.57058  0.31233  0.93004  1.0000
  H   H1673     1.0  0.92428  0.43586  0.70192  1.0000
  C   C982      1.0  0.72392  0.48015  0.94876  1.0000
  C   C983      1.0  0.82107  0.47205  0.75977  1.0000
  C   C984      1.0  0.94907  0.27022  0.68782  1.0000
  C   C985      1.0  0.58108  0.32073  0.91042  1.0000
  C   C986      1.0  0.85655  0.30669  0.58001  1.0000
  H   H1674     1.0  0.94747  0.26531  0.70399  1.0000
  C   C987      1.0  0.74769  0.45341  0.95940  1.0000
  C   C988      1.0  0.86186  0.48512  0.71863  1.0000
  H   H1675     1.0  0.87877  0.33677  0.61619  1.0000
  H   H1676     1.0  0.56090  0.32403  0.93751  1.0000
  H   H1677     1.0  0.85880  0.29678  0.56696  1.0000
  H   H1678     1.0  0.81147  0.48433  0.75290  1.0000
  C   C989      1.0  0.50094  0.26637  0.86860  1.0000
  H   H1679     1.0  0.84168  0.43729  0.76291  1.0000
  H   H1680     1.0  0.93001  0.24574  0.62585  1.0000
  H   H1681     1.0  0.86038  0.28351  0.49558  1.0000
  H   H1682     1.0  0.97571  0.32219  0.71606  1.0000
  H   H1683     1.0  0.74985  0.43774  0.96563  1.0000
  H   H1684     1.0  0.87748  0.45292  0.75630  1.0000
  C   C990      1.0  0.55884  0.30839  0.88608  1.0000
  H   H1685     1.0  0.82231  0.42630  0.74037  1.0000
  C   C991      1.0  0.94628  0.43969  0.76243  1.0000
  H   H1686     1.0  0.94286  0.28597  0.68665  1.0000
  H   H1687     1.0  0.97326  0.25669  0.54459  1.0000
  H   H1688     1.0  0.92107  0.28393  0.65103  1.0000
  N   N72       1.0  0.81337  0.43910  0.78094  1.0000
  C   C992      1.0  0.80699  0.43356  0.80254  1.0000
  C   C993      1.0  0.83549  0.43329  0.77823  1.0000
  C   C994      1.0  0.80156  0.42667  0.76748  1.0000
  C   C995      1.0  0.80886  0.46136  0.77717  1.0000
  C   C996      1.0  0.78416  0.43493  0.80797  1.0000
  C   C997      1.0  0.84938  0.44230  0.79320  1.0000
  H   H1689     1.0  0.91552  0.30407  0.56871  1.0000
  H   H1690     1.0  0.81232  0.41799  0.80669  1.0000
  H   H1691     1.0  0.81411  0.44327  0.81321  1.0000
  H   H1692     1.0  0.78511  0.43022  0.76941  1.0000
  H   H1693     1.0  0.79257  0.46424  0.77443  1.0000
  H   H1694     1.0  0.81188  0.46966  0.79087  1.0000
  H   H1695     1.0  0.77629  0.42231  0.80177  1.0000
  H   H1696     1.0  0.78182  0.43331  0.82462  1.0000
  H   H1697     1.0  0.77706  0.44956  0.80300  1.0000
  H   H1698     1.0  0.59015  0.33316  0.91514  1.0000
  C   C998      1.0  0.93881  0.28420  0.62301  1.0000
  H   H1699     1.0  0.54956  0.30051  0.89803  1.0000
  H   H1700     1.0  0.54375  0.24260  0.95099  1.0000
  H   H1701     1.0  0.96536  0.26984  0.68349  1.0000
  H   H1702     1.0  0.82061  0.24900  0.55141  1.0000
  H   H1703     1.0  0.95405  0.28007  0.61668  1.0000
  H   H1704     1.0  0.90296  0.45126  0.69449  1.0000
  H   H1705     1.0  0.59050  0.25710  0.95178  1.0000
  H   H1706     1.0  0.90745  0.47462  0.72142  1.0000
  H   H1707     1.0  0.68476  0.45394  0.95197  1.0000
  C   C999      1.0  0.93670  0.27929  0.64591  1.0000
  H   H1708     1.0  0.58231  0.30729  0.94076  1.0000
  N   N73       1.0  0.56735  0.32726  0.89362  1.0000
  C   C1000     1.0  0.57912  0.33719  0.87615  1.0000
  C   C1001     1.0  0.92757  0.24455  0.64249  1.0000
  H   H1709     1.0  0.96197  0.43630  0.75682  1.0000
  H   H1710     1.0  0.68818  0.43951  0.93023  1.0000
  H   H1711     1.0  0.69284  0.48927  0.95916  1.0000
  H   H1712     1.0  0.84743  0.43502  0.80847  1.0000
  H   H1713     1.0  0.77615  0.44748  0.94290  1.0000
  C   C1002     1.0  0.58958  0.25703  0.98429  1.0000
  H   H1714     1.0  0.97271  0.26596  0.64835  1.0000
  S   S288      1.0  0.52472  0.26387  0.90217  1.0000
  C   C1003     1.0  0.93200  0.44460  0.74505  1.0000
  H   H1715     1.0  0.58686  0.32564  0.86653  1.0000
  Fe  Fe144     1.0  0.55643  0.25354  0.89143  1.0000
  C   C1004     1.0  0.86266  0.33734  0.61245  1.0000
  H   H1716     1.0  0.52240  0.25655  0.96094  1.0000
  C   C1005     1.0  0.69387  0.44138  0.94550  1.0000
  H   H1717     1.0  0.80376  0.41034  0.77171  1.0000
  H   H1718     1.0  0.94388  0.25105  0.58592  1.0000
  H   H1719     1.0  0.96060  0.47603  0.71328  1.0000
  H   H1720     1.0  0.84381  0.34698  0.58837  1.0000
  H   H1721     1.0  0.90273  0.43913  0.71887  1.0000
  C   C1006     1.0  0.71689  0.44428  0.94349  1.0000
  H   H1722     1.0  0.94123  0.42581  0.77074  1.0000
  H   H1723     1.0  0.96301  0.34536  0.70873  1.0000
  H   H1724     1.0  0.92714  0.47529  0.70265  1.0000
  H   H1725     1.0  0.60181  0.35875  0.86693  1.0000
  C   C1007     1.0  0.86738  0.26864  0.49417  1.0000
  H   H1726     1.0  0.91156  0.24963  0.64562  1.0000
  C   C1008     1.0  0.80620  0.42914  0.74463  1.0000
  C   C1009     1.0  0.96335  0.25263  0.64681  1.0000
  H   H1727     1.0  0.75441  0.46321  0.97032  1.0000
  H   H1728     1.0  0.97246  0.34268  0.73328  1.0000
  C   C1010     1.0  0.97578  0.33872  0.71738  1.0000
  H   H1729     1.0  0.96480  0.24918  0.63060  1.0000
  H   H1730     1.0  0.92035  0.48057  0.75477  1.0000
  H   H1731     1.0  0.82637  0.46243  0.74735  1.0000
  H   H1732     1.0  0.85495  0.48515  0.70419  1.0000
  H   H1733     1.0  0.94588  0.45167  0.77353  1.0000
  C   C1011     1.0  0.97593  0.25156  0.59007  1.0000
  H   H1734     1.0  0.73191  0.48147  0.93383  1.0000
  C   C1012     1.0  0.75731  0.39891  0.98869  1.0000
  C   C1013     1.0  0.87936  0.48526  0.75592  1.0000
  H   H1735     1.0  0.69955  0.46228  0.97834  1.0000
  H   H1736     1.0  0.49787  0.26822  0.98601  1.0000
  H   H1737     1.0  0.76785  0.41086  0.98653  1.0000
  H   H1738     1.0  0.58640  0.27308  0.98477  1.0000
  C   C1014     1.0  0.71779  0.43745  0.98994  1.0000
  H   H1739     1.0  0.83405  0.47966  0.76563  1.0000
  H   H1740     1.0  0.94694  0.48074  0.75586  1.0000
  C   C1015     1.0  0.93450  0.48102  0.74518  1.0000
  H   H1741     1.0  0.72231  0.46937  0.98774  1.0000
  H   H1742     1.0  0.73143  0.49053  0.95854  1.0000
  H   H1743     1.0  0.71488  0.42460  0.98054  1.0000
  C   C1016     1.0  0.53763  0.25054  0.96447  1.0000
  H   H1744     1.0  0.68601  0.49072  0.88713  1.0000
  C   C1017     1.0  0.70259  0.48907  0.94523  1.0000
  C   C1018     1.0  0.49286  0.25271  0.98883  1.0000
  S   S289      1.0  0.57948  0.72682  0.07631  1.0000
  H   H1745     1.0  0.76887  0.51511  0.12679  1.0000
  Fe  Fe145     1.0  0.59905  0.71909  0.10268  1.0000
  S   S290      1.0  0.61192  0.68615  0.10334  1.0000
  H   H1746     1.0  0.66389  0.64920  0.03824  1.0000
  H   H1747     1.0  0.98501  0.55896  0.25941  1.0000
  Fe  Fe146     1.0  0.72522  0.56541  0.11454  1.0000
  S   S291      1.0  0.75447  0.56696  0.09652  1.0000
  S   S292      1.0  0.71464  0.53528  0.12815  1.0000
  Fe  Fe147     1.0  0.71618  0.61175  0.10953  1.0000
  S   S293      1.0  0.74534  0.61537  0.09125  1.0000
  S   S294      1.0  0.69968  0.64267  0.11429  1.0000
  Fe  Fe148     1.0  0.73726  0.58796  0.07516  1.0000
  S   S295      1.0  0.73265  0.58292  0.04176  1.0000
  Fe  Fe149     1.0  0.75977  0.59419  0.11469  1.0000
  S   S296      1.0  0.79078  0.60004  0.12756  1.0000
  S   S297      1.0  0.70757  0.58503  0.09263  1.0000
  S   S298      1.0  0.73111  0.59182  0.13366  1.0000
  Fe  Fe150     1.0  0.87837  0.61051  0.27209  1.0000
  S   S299      1.0  0.87878  0.62905  0.24288  1.0000
  S   S300      1.0  0.87305  0.62307  0.30404  1.0000
  Fe  Fe151     1.0  0.88713  0.57035  0.24959  1.0000
  S   S301      1.0  0.88870  0.58735  0.21966  1.0000
  S   S302      1.0  0.89592  0.53753  0.24295  1.0000
  Fe  Fe152     1.0  0.90670  0.60957  0.23514  1.0000
  S   S303      1.0  0.93665  0.61950  0.22044  1.0000
  Fe  Fe153     1.0  0.86068  0.60455  0.23004  1.0000
  S   S304      1.0  0.83012  0.60520  0.21420  1.0000
  S   S305      1.0  0.90673  0.59177  0.26446  1.0000
  S   S306      1.0  0.85865  0.58703  0.25994  1.0000
  H   H1748     1.0  0.77429  0.70969  0.31741  1.0000
  S   S307      1.0  0.85348  0.71566  0.44991  1.0000
  Fe  Fe154     1.0  0.87939  0.72435  0.37617  1.0000
  S   S308      1.0  0.88073  0.70810  0.34584  1.0000
  S   S309      1.0  0.89591  0.71556  0.40445  1.0000
  C   C1019     1.0  0.68227  0.67221  0.02517  1.0000
  C   C1020     1.0  0.85723  0.71497  0.47638  1.0000
  H   H1749     1.0  0.93976  0.52346  0.23510  1.0000
  H   H1750     1.0  0.51256  0.69418  0.08885  1.0000
  C   C1021     1.0  0.87701  0.64659  0.31538  1.0000
  C   C1022     1.0  0.88077  0.66437  0.30401  1.0000
  C   C1023     1.0  0.88232  0.68282  0.31365  1.0000
  C   C1024     1.0  0.88043  0.68388  0.33482  1.0000
  C   C1025     1.0  0.87729  0.66600  0.34624  1.0000
  C   C1026     1.0  0.87535  0.64761  0.33657  1.0000
  H   H1751     1.0  0.88207  0.66399  0.28775  1.0000
  H   H1752     1.0  0.88482  0.69644  0.30456  1.0000
  H   H1753     1.0  0.87585  0.66638  0.36249  1.0000
  H   H1754     1.0  0.87249  0.63404  0.34562  1.0000
  C   C1027     1.0  0.96026  0.61365  0.23130  1.0000
  C   C1028     1.0  0.97820  0.61513  0.21932  1.0000
  C   C1029     1.0  0.96150  0.60705  0.25149  1.0000
  H   H1755     1.0  0.97743  0.62034  0.20371  1.0000
  H   H1756     1.0  0.94795  0.60625  0.26103  1.0000
  H   H1757     1.0  0.55140  0.69590  0.04722  1.0000
  C   C1030     1.0  0.88729  0.51323  0.25017  1.0000
  C   C1031     1.0  0.87290  0.51001  0.26584  1.0000
  H   H1758     1.0  0.67341  0.67044  0.01162  1.0000
  H   H1759     1.0  0.86666  0.52262  0.27414  1.0000
  C   C1032     1.0  0.80151  0.60043  0.15189  1.0000
  C   C1033     1.0  0.79010  0.59783  0.16999  1.0000
  C   C1034     1.0  0.79911  0.59944  0.18875  1.0000
  C   C1035     1.0  0.81974  0.60333  0.18987  1.0000
  C   C1036     1.0  0.83126  0.60540  0.17179  1.0000
  C   C1037     1.0  0.82217  0.60412  0.15302  1.0000
  H   H1760     1.0  0.77427  0.59481  0.16955  1.0000
  H   H1761     1.0  0.79000  0.59764  0.20256  1.0000
  H   H1762     1.0  0.84712  0.60834  0.17223  1.0000
  H   H1763     1.0  0.83125  0.60615  0.13921  1.0000
  H   H1764     1.0  0.55064  0.62945  0.08848  1.0000
  C   C1038     1.0  0.74016  0.59214  0.01712  1.0000
  C   C1039     1.0  0.75404  0.60729  0.01361  1.0000
  H   H1765     1.0  0.95079  0.56832  0.27588  1.0000
  H   H1766     1.0  0.76109  0.61351  0.02619  1.0000
  C   C1040     1.0  0.71842  0.51230  0.11547  1.0000
  C   C1041     1.0  0.72996  0.51120  0.09741  1.0000
  H   H1767     1.0  0.72106  0.65179  0.02647  1.0000
  H   H1768     1.0  0.73621  0.52471  0.09048  1.0000
  H   H1769     1.0  0.97847  0.66702  0.27284  1.0000
  C   C1042     1.0  0.63673  0.67460  0.10552  1.0000
  C   C1043     1.0  0.65343  0.68537  0.11031  1.0000
  C   C1044     1.0  0.67247  0.67537  0.11272  1.0000
  C   C1045     1.0  0.67529  0.65447  0.11022  1.0000
  C   C1046     1.0  0.65871  0.64375  0.10500  1.0000
  C   C1047     1.0  0.63962  0.65372  0.10277  1.0000
  H   H1770     1.0  0.65159  0.70137  0.11256  1.0000
  H   H1771     1.0  0.68506  0.68391  0.11679  1.0000
  H   H1772     1.0  0.66043  0.62768  0.10321  1.0000
  H   H1773     1.0  0.62690  0.64512  0.09916  1.0000
  N   N74       1.0  0.69446  0.63687  0.03934  1.0000
  C   C1048     1.0  0.71593  0.64323  0.04027  1.0000
  H   H1774     1.0  0.81673  0.69590  0.37713  1.0000
  H   H1775     1.0  0.96679  0.57200  0.23152  1.0000
  H   H1776     1.0  0.94989  0.54292  0.28674  1.0000
  H   H1777     1.0  0.78492  0.69137  0.34780  1.0000
  C   C1049     1.0  0.97400  0.54703  0.26296  1.0000
  H   H1778     1.0  0.94362  0.56786  0.24421  1.0000
  H   H1779     1.0  0.83302  0.69469  0.48168  1.0000
  H   H1780     1.0  0.69814  0.67465  0.02043  1.0000
  H   H1781     1.0  0.83589  0.67644  0.37780  1.0000
  C   C1050     1.0  0.95523  0.56049  0.23413  1.0000
  C   C1051     1.0  0.67006  0.61250  0.05853  1.0000
  H   H1782     1.0  0.54171  0.70146  0.13730  1.0000
  N   N75       1.0  0.96392  0.54153  0.24415  1.0000
  H   H1783     1.0  0.79047  0.64649  0.17874  1.0000
  N   N76       1.0  0.54782  0.67140  0.09520  1.0000
  C   C1052     1.0  0.56202  0.65532  0.10399  1.0000
  C   C1053     1.0  0.54910  0.68963  0.10775  1.0000
  C   C1054     1.0  0.55549  0.67650  0.07395  1.0000
  C   C1055     1.0  0.52689  0.66333  0.09547  1.0000
  C   C1056     1.0  0.56509  0.63582  0.09224  1.0000
  C   C1057     1.0  0.54317  0.68654  0.13035  1.0000
  H   H1784     1.0  0.97242  0.52313  0.21857  1.0000
  C   C1058     1.0  0.50896  0.67897  0.09486  1.0000
  H   H1785     1.0  0.57726  0.66133  0.10561  1.0000
  H   H1786     1.0  0.55674  0.65044  0.11949  1.0000
  H   H1787     1.0  0.53984  0.70263  0.10201  1.0000
  H   H1788     1.0  0.56478  0.69500  0.10681  1.0000
  H   H1789     1.0  0.83822  0.67478  0.34140  1.0000
  C   C1059     1.0  0.78178  0.71826  0.32874  1.0000
  H   H1790     1.0  0.52552  0.65326  0.08267  1.0000
  H   H1791     1.0  0.52415  0.65373  0.10941  1.0000
  C   C1060     1.0  0.69206  0.62500  0.02073  1.0000
  C   C1061     1.0  0.98030  0.60126  0.25933  1.0000
  C   C1062     1.0  0.79451  0.70412  0.34263  1.0000
  H   H1792     1.0  0.95965  0.50981  0.27487  1.0000
  C   C1063     1.0  0.67932  0.65434  0.04045  1.0000
  H   H1793     1.0  0.83282  0.66014  0.31306  1.0000
  H   H1794     1.0  0.67582  0.62331  0.01800  1.0000
  H   H1795     1.0  0.97011  0.64319  0.28216  1.0000
  H   H1796     1.0  0.57479  0.63822  0.07838  1.0000
  H   H1797     1.0  0.71857  0.63177  0.00080  1.0000
  H   H1798     1.0  0.93913  0.49886  0.26347  1.0000
  H   H1799     1.0  0.82245  0.66816  0.28977  1.0000
  Fe  Fe155     1.0  0.86910  0.72951  0.42159  1.0000
  H   H1800     1.0  0.76960  0.72590  0.33794  1.0000
  H   H1801     1.0  0.82437  0.71919  0.31167  1.0000
  N   N77       1.0  0.81425  0.69621  0.33338  1.0000
  H   H1802     1.0  0.96932  0.55902  0.29279  1.0000
  H   H1803     1.0  0.52834  0.68691  0.05808  1.0000
  H   H1804     1.0  0.93476  0.53511  0.25823  1.0000
  H   H1805     1.0  0.94668  0.57184  0.20433  1.0000
  H   H1806     1.0  0.77389  0.65322  0.19933  1.0000
  C   C1064     1.0  0.83588  0.50283  0.22847  1.0000
  H   H1807     1.0  0.92834  0.55594  0.21702  1.0000
  H   H1808     1.0  0.73635  0.66047  0.05673  1.0000
  C   C1065     1.0  0.95993  0.55471  0.28036  1.0000
  H   H1809     1.0  0.79400  0.50483  0.13053  1.0000
  C   C1066     1.0  0.82836  0.71271  0.32678  1.0000
  H   H1810     1.0  0.98197  0.64502  0.25776  1.0000
  H   H1811     1.0  0.70241  0.61075  0.05821  1.0000
  H   H1812     1.0  0.81409  0.66834  0.35147  1.0000
  H   H1813     1.0  0.82132  0.52700  0.17001  1.0000
  H   H1814     1.0  0.82797  0.50802  0.19780  1.0000
  N   N78       1.0  0.75984  0.65808  0.14895  1.0000
  C   C1067     1.0  0.78063  0.65534  0.13899  1.0000
  C   C1068     1.0  0.76285  0.66400  0.17026  1.0000
  C   C1069     1.0  0.74889  0.67503  0.13761  1.0000
  C   C1070     1.0  0.74900  0.63867  0.14790  1.0000
  C   C1071     1.0  0.78154  0.65207  0.11612  1.0000
  C   C1072     1.0  0.77432  0.64819  0.18358  1.0000
  C   C1073     1.0  0.72764  0.68140  0.14581  1.0000
  C   C1074     1.0  0.73084  0.63530  0.16298  1.0000
  H   H1815     1.0  0.78995  0.66854  0.14134  1.0000
  H   H1816     1.0  0.78895  0.64210  0.14586  1.0000
  H   H1817     1.0  0.74850  0.66770  0.17856  1.0000
  H   H1818     1.0  0.77122  0.67819  0.17016  1.0000
  H   H1819     1.0  0.75806  0.68873  0.13668  1.0000
  H   H1820     1.0  0.74669  0.67097  0.12179  1.0000
  H   H1821     1.0  0.74350  0.63711  0.13248  1.0000
  H   H1822     1.0  0.75967  0.62552  0.15024  1.0000
  H   H1823     1.0  0.77175  0.63994  0.11217  1.0000
  H   H1824     1.0  0.77772  0.66614  0.10730  1.0000
  H   H1825     1.0  0.79719  0.64731  0.11133  1.0000
  H   H1826     1.0  0.76739  0.63332  0.18396  1.0000
  H   H1827     1.0  0.72186  0.69434  0.13630  1.0000
  H   H1828     1.0  0.72742  0.68660  0.16142  1.0000
  H   H1829     1.0  0.71683  0.66932  0.14449  1.0000
  H   H1830     1.0  0.71776  0.63067  0.15466  1.0000
  H   H1831     1.0  0.72542  0.64843  0.17153  1.0000
  H   H1832     1.0  0.73438  0.62259  0.17382  1.0000
  H   H1833     1.0  0.84403  0.70641  0.32470  1.0000
  C   C1075     1.0  0.82972  0.68926  0.36837  1.0000
  H   H1834     1.0  0.55509  0.67777  0.13846  1.0000
  H   H1835     1.0  0.84010  0.68366  0.30046  1.0000
  H   H1836     1.0  0.55599  0.66303  0.06459  1.0000
  H   H1837     1.0  0.67808  0.66039  0.05589  1.0000
  H   H1838     1.0  0.54108  0.70702  0.06935  1.0000
  H   H1839     1.0  0.98858  0.55564  0.20876  1.0000
  H   H1840     1.0  0.79657  0.71235  0.35647  1.0000
  H   H1841     1.0  0.65706  0.62345  0.05938  1.0000
  H   H1842     1.0  0.83497  0.50991  0.24330  1.0000
  S   S310      1.0  0.57573  0.73251  0.12494  1.0000
  H   H1843     1.0  0.72641  0.62970  0.04096  1.0000
  C   C1076     1.0  0.82740  0.67369  0.30422  1.0000
  C   C1077     1.0  0.82897  0.73092  0.34052  1.0000
  H   H1844     1.0  0.95106  0.54538  0.20533  1.0000
  C   C1078     1.0  0.72030  0.65634  0.05805  1.0000
  H   H1845     1.0  0.79078  0.73015  0.32094  1.0000
  H   H1846     1.0  0.66866  0.60238  0.04587  1.0000
  C   C1079     1.0  0.82398  0.68130  0.34807  1.0000
  H   H1847     1.0  0.82425  0.72805  0.35647  1.0000
  H   H1848     1.0  0.79796  0.67336  0.31915  1.0000
  H   H1849     1.0  0.98646  0.68764  0.38499  1.0000
  H   H1850     1.0  0.85149  0.49702  0.22519  1.0000
  C   C1080     1.0  0.69046  0.62292  0.05748  1.0000
  H   H1851     1.0  0.69100  0.63095  0.07176  1.0000
  H   H1852     1.0  0.69858  0.60937  0.02295  1.0000
  C   C1081     1.0  0.70190  0.63310  0.00069  1.0000
  H   H1853     1.0  0.57131  0.68153  0.07400  1.0000
  N   N79       1.0  0.83968  0.53597  0.20699  1.0000
  C   C1082     1.0  0.82804  0.51717  0.21142  1.0000
  C   C1083     1.0  0.82823  0.54935  0.19216  1.0000
  C   C1084     1.0  0.84197  0.54732  0.22584  1.0000
  C   C1085     1.0  0.86039  0.52991  0.19861  1.0000
  H   H1854     1.0  0.52855  0.67925  0.13292  1.0000
  C   C1086     1.0  0.82797  0.54195  0.17051  1.0000
  C   C1087     1.0  0.82212  0.55337  0.23737  1.0000
  C   C1088     1.0  0.87374  0.54730  0.19056  1.0000
  H   H1855     1.0  0.81187  0.52095  0.21516  1.0000
  H   H1856     1.0  0.57321  0.62427  0.10176  1.0000
  H   H1857     1.0  0.83406  0.56476  0.19115  1.0000
  H   H1858     1.0  0.81219  0.55158  0.19742  1.0000
  H   H1859     1.0  0.85176  0.53867  0.23655  1.0000
  H   H1860     1.0  0.84995  0.56151  0.22232  1.0000
  H   H1861     1.0  0.86912  0.52138  0.21031  1.0000
  H   H1862     1.0  0.85941  0.51917  0.18632  1.0000
  H   H1863     1.0  0.71102  0.67057  0.05798  1.0000
  H   H1864     1.0  0.72059  0.57241  0.00301  1.0000
  C   C1089     1.0  0.94702  0.52752  0.24907  1.0000
  H   H1865     1.0  0.81848  0.55276  0.16142  1.0000
  H   H1866     1.0  0.84321  0.54163  0.16301  1.0000
  H   H1867     1.0  0.73835  0.49211  0.15464  1.0000
  H   H1868     1.0  0.82571  0.56100  0.25123  1.0000
  H   H1869     1.0  0.81321  0.54022  0.24235  1.0000
  H   H1870     1.0  0.81278  0.56432  0.22840  1.0000
  H   H1871     1.0  0.88775  0.54713  0.19910  1.0000
  H   H1872     1.0  0.86659  0.56253  0.19162  1.0000
  H   H1873     1.0  0.87844  0.54516  0.17453  1.0000
  H   H1874     1.0  0.71824  0.64817  0.07280  1.0000
  C   C1090     1.0  0.77783  0.50310  0.13494  1.0000
  H   H1875     1.0  0.77514  0.50631  0.15102  1.0000
  C   C1091     1.0  0.97954  0.53125  0.23052  1.0000
  H   H1876     1.0  0.98435  0.71346  0.39175  1.0000
  H   H1877     1.0  0.80268  0.69510  0.30338  1.0000
  C   C1092     1.0  0.73131  0.58415  0.00051  1.0000
  C   C1093     1.0  0.54315  0.69253  0.06181  1.0000
  C   C1094     1.0  0.94473  0.55804  0.21415  1.0000
  C   C1095     1.0  0.98236  0.65073  0.27318  1.0000
  H   H1878     1.0  0.98319  0.53406  0.26923  1.0000
  C   C1096     1.0  0.71028  0.49454  0.12410  1.0000
  H   H1879     1.0  0.61403  0.70114  0.00355  1.0000
  H   H1880     1.0  0.90646  0.49891  0.22749  1.0000
  H   H1881     1.0  0.67689  0.68637  0.03233  1.0000
  H   H1882     1.0  0.98813  0.51924  0.23909  1.0000
  H   H1883     1.0  0.84472  0.73594  0.34053  1.0000
  C   C1097     1.0  0.80944  0.68479  0.31510  1.0000
  H   H1884     1.0  0.98098  0.59595  0.27491  1.0000
  H   H1885     1.0  0.69703  0.64874  0.99661  1.0000
  H   H1886     1.0  0.96338  0.49799  0.25080  1.0000
  C   C1098     1.0  0.73355  0.49257  0.08828  1.0000
  H   H1887     1.0  0.50975  0.71972  0.12732  1.0000
  H   H1888     1.0  0.84200  0.70001  0.36632  1.0000
  H   H1889     1.0  0.70116  0.49525  0.13797  1.0000
  C   C1099     1.0  0.89532  0.49661  0.23964  1.0000
  H   H1890     1.0  0.66912  0.60284  0.07257  1.0000
  C   C1100     1.0  0.95296  0.50749  0.26021  1.0000
  H   H1891     1.0  0.56001  0.73531  0.00015  1.0000
  C   C1101     1.0  0.49984  0.73574  0.10053  1.0000
  C   C1102     1.0  0.84436  0.70302  0.48857  1.0000
  C   C1103     1.0  0.87189  0.72568  0.48568  1.0000
  C   C1104     1.0  0.49697  0.72415  0.11844  1.0000
  H   H1892     1.0  0.74259  0.49196  0.07435  1.0000
  H   H1893     1.0  0.88200  0.73492  0.47646  1.0000
  H   H1894     1.0  0.98334  0.69321  0.35049  1.0000
  H   H1895     1.0  0.62303  0.72476  0.99509  1.0000
  S   S311      1.0  0.85129  0.73591  0.39345  1.0000
  C   C1105     1.0  0.75897  0.61429  0.99368  1.0000
  H   H1896     1.0  0.49731  0.67356  0.08512  1.0000
  H   H1897     1.0  0.50139  0.68016  0.11004  1.0000
  H   H1898     1.0  0.76979  0.62593  0.99108  1.0000
  H   H1899     1.0  0.99010  0.67751  0.33004  1.0000
  S   S312      1.0  0.57943  0.71768  0.91042  1.0000
  H   H1900     1.0  0.82069  0.54184  0.88096  1.0000
  H   H1901     1.0  0.97639  0.70528  0.65666  1.0000
  H   H1902     1.0  0.79540  0.51809  0.88356  1.0000
  H   H1903     1.0  0.97354  0.66494  0.73318  1.0000
  S   S313      1.0  0.63743  0.71132  0.88944  1.0000
  Fe  Fe156     1.0  0.70871  0.60739  0.89660  1.0000
  S   S314      1.0  0.73609  0.62591  0.89744  1.0000
  S   S315      1.0  0.67656  0.62113  0.89267  1.0000
  Fe  Fe157     1.0  0.73416  0.56693  0.90053  1.0000
  S   S316      1.0  0.76275  0.58378  0.90232  1.0000
  S   S317      1.0  0.74311  0.53320  0.90053  1.0000
  Fe  Fe158     1.0  0.74464  0.60417  0.92319  1.0000
  S   S318      1.0  0.75651  0.61575  0.95221  1.0000
  Fe  Fe159     1.0  0.75171  0.60352  0.87653  1.0000
  S   S319      1.0  0.76620  0.60863  0.84456  1.0000
  S   S320      1.0  0.71672  0.58632  0.92305  1.0000
  S   S321      1.0  0.72355  0.58612  0.87415  1.0000
  H   H1904     1.0  0.60304  0.71360  0.98242  1.0000
  S   S322      1.0  0.89641  0.70666  0.59281  1.0000
  H   H1905     1.0  0.93296  0.51373  0.74582  1.0000
  S   S323      1.0  0.86088  0.70886  0.54579  1.0000
  Fe  Fe160     1.0  0.87743  0.71962  0.61817  1.0000
  S   S324      1.0  0.86829  0.70306  0.64829  1.0000
  Fe  Fe161     1.0  0.88268  0.56006  0.74821  1.0000
  S   S325      1.0  0.89640  0.57529  0.77364  1.0000
  S   S326      1.0  0.88394  0.52597  0.75563  1.0000
  Fe  Fe162     1.0  0.87629  0.60146  0.72474  1.0000
  S   S327      1.0  0.88867  0.61840  0.74967  1.0000
  S   S328      1.0  0.87217  0.61527  0.69252  1.0000
  Fe  Fe163     1.0  0.91345  0.59413  0.75030  1.0000
  S   S329      1.0  0.94660  0.59975  0.74138  1.0000
  Fe  Fe164     1.0  0.87025  0.59795  0.77101  1.0000
  S   S330      1.0  0.85492  0.60710  0.80139  1.0000
  S   S331      1.0  0.90129  0.57747  0.72508  1.0000
  S   S332      1.0  0.85610  0.58232  0.74598  1.0000
  C   C1106     1.0  0.97024  0.60107  0.75269  1.0000
  C   C1107     1.0  0.97213  0.60131  0.77355  1.0000
  H   H1906     1.0  0.63395  0.68311  0.98128  1.0000
  H   H1907     1.0  0.95884  0.60035  0.78350  1.0000
  C   C1108     1.0  0.92492  0.66584  0.68549  1.0000
  H   H1908     1.0  0.81458  0.57100  0.83508  1.0000
  C   C1109     1.0  0.87604  0.50366  0.74512  1.0000
  H   H1909     1.0  0.92879  0.67926  0.65528  1.0000
  H   H1910     1.0  0.95605  0.63604  0.68275  1.0000
  H   H1911     1.0  0.93995  0.65453  0.65760  1.0000
  C   C1110     1.0  0.87192  0.67892  0.66095  1.0000
  C   C1111     1.0  0.86487  0.67631  0.68118  1.0000
  C   C1112     1.0  0.86580  0.65721  0.69141  1.0000
  C   C1113     1.0  0.87317  0.64019  0.68133  1.0000
  C   C1114     1.0  0.88047  0.64283  0.66116  1.0000
  C   C1115     1.0  0.88050  0.66212  0.65128  1.0000
  H   H1912     1.0  0.85828  0.68913  0.68894  1.0000
  H   H1913     1.0  0.85995  0.65552  0.70682  1.0000
  H   H1914     1.0  0.88626  0.62984  0.65317  1.0000
  H   H1915     1.0  0.88670  0.66384  0.63604  1.0000
  C   C1116     1.0  0.84606  0.70143  0.50952  1.0000
  C   C1117     1.0  0.86055  0.71192  0.51899  1.0000
  H   H1916     1.0  0.83598  0.69191  0.51845  1.0000
  H   H1917     1.0  0.75602  0.52973  0.84450  1.0000
  C   C1118     1.0  0.79110  0.60808  0.83306  1.0000
  C   C1119     1.0  0.80833  0.61086  0.84384  1.0000
  C   C1120     1.0  0.82761  0.61060  0.83386  1.0000
  C   C1121     1.0  0.83009  0.60714  0.81307  1.0000
  C   C1122     1.0  0.81286  0.60409  0.80237  1.0000
  C   C1123     1.0  0.79355  0.60482  0.81224  1.0000
  H   H1918     1.0  0.80682  0.61356  0.85979  1.0000
  H   H1919     1.0  0.84075  0.61310  0.84233  1.0000
  H   H1920     1.0  0.81442  0.60154  0.78640  1.0000
  H   H1921     1.0  0.78040  0.60275  0.80365  1.0000
  C   C1124     1.0  0.75012  0.60624  0.97705  1.0000
  C   C1125     1.0  0.73623  0.59112  0.98063  1.0000
  H   H1922     1.0  0.79580  0.51578  0.83723  1.0000
  H   H1923     1.0  0.72932  0.58474  0.96807  1.0000
  H   H1924     1.0  0.94638  0.67994  0.71380  1.0000
  C   C1126     1.0  0.71066  0.50979  0.89237  1.0000
  C   C1127     1.0  0.73128  0.51052  0.89554  1.0000
  C   C1128     1.0  0.68145  0.65055  0.83805  1.0000
  H   H1925     1.0  0.70134  0.52351  0.89250  1.0000
  C   C1129     1.0  0.81309  0.55696  0.87973  1.0000
  C   C1130     1.0  0.64772  0.68599  0.89111  1.0000
  C   C1131     1.0  0.66873  0.68281  0.89258  1.0000
  C   C1132     1.0  0.67773  0.66317  0.89387  1.0000
  C   C1133     1.0  0.66589  0.64630  0.89323  1.0000
  C   C1134     1.0  0.64487  0.64947  0.89189  1.0000
  C   C1135     1.0  0.63582  0.66912  0.89103  1.0000
  H   H1926     1.0  0.67814  0.69569  0.89274  1.0000
  H   H1927     1.0  0.69387  0.66113  0.89501  1.0000
  H   H1928     1.0  0.63550  0.63660  0.89133  1.0000
  H   H1929     1.0  0.61967  0.67118  0.88988  1.0000
  C   C1136     1.0  0.91046  0.66676  0.72994  1.0000
  C   C1137     1.0  0.79437  0.55718  0.86679  1.0000
  H   H1930     1.0  0.59552  0.68338  0.96958  1.0000
  H   H1931     1.0  0.77841  0.56769  0.83048  1.0000
  H   H1932     1.0  0.78047  0.54345  0.82023  1.0000
  N   N80       1.0  0.83495  0.66805  0.60166  1.0000
  C   C1138     1.0  0.85698  0.66354  0.60534  1.0000
  C   C1139     1.0  0.82570  0.67724  0.62048  1.0000
  C   C1140     1.0  0.83381  0.68296  0.58391  1.0000
  C   C1141     1.0  0.82564  0.64856  0.59712  1.0000
  C   C1142     1.0  0.87033  0.65693  0.58696  1.0000
  C   C1143     1.0  0.82465  0.66310  0.63950  1.0000
  C   C1144     1.0  0.81424  0.69600  0.58183  1.0000
  C   C1145     1.0  0.80260  0.64904  0.59513  1.0000
  H   H1933     1.0  0.86396  0.67702  0.61110  1.0000
  H   H1934     1.0  0.85887  0.65132  0.61713  1.0000
  H   H1935     1.0  0.81007  0.68314  0.61844  1.0000
  H   H1936     1.0  0.83409  0.69071  0.62419  1.0000
  H   H1937     1.0  0.84595  0.69395  0.58440  1.0000
  H   H1938     1.0  0.83665  0.67523  0.56943  1.0000
  H   H1939     1.0  0.83211  0.64283  0.58264  1.0000
  H   H1940     1.0  0.82970  0.63630  0.60835  1.0000
  H   H1941     1.0  0.86549  0.64274  0.58088  1.0000
  H   H1942     1.0  0.87110  0.66884  0.57475  1.0000
  H   H1943     1.0  0.88601  0.65405  0.59182  1.0000
  H   H1944     1.0  0.81813  0.67172  0.65235  1.0000
  H   H1945     1.0  0.81477  0.65034  0.63763  1.0000
  H   H1946     1.0  0.83966  0.65726  0.64403  1.0000
  H   H1947     1.0  0.81299  0.70771  0.59330  1.0000
  H   H1948     1.0  0.80052  0.68718  0.58261  1.0000
  H   H1949     1.0  0.81484  0.70409  0.56685  1.0000
  H   H1950     1.0  0.79860  0.65276  0.57931  1.0000
  H   H1951     1.0  0.79428  0.65946  0.60531  1.0000
  H   H1952     1.0  0.79690  0.63394  0.59960  1.0000
  H   H1953     1.0  0.69254  0.67580  0.85422  1.0000
  H   H1954     1.0  0.73937  0.65862  0.85926  1.0000
  Fe  Fe165     1.0  0.60631  0.72830  0.89179  1.0000
  H   H1955     1.0  0.75504  0.55243  0.85903  1.0000
  C   C1146     1.0  0.67809  0.60957  0.82183  1.0000
  H   H1956     1.0  0.67599  0.59315  0.82434  1.0000
  H   H1957     1.0  0.90334  0.67844  0.71989  1.0000
  H   H1958     1.0  0.66324  0.61713  0.82535  1.0000
  N   N81       1.0  0.63312  0.70220  0.95409  1.0000
  C   C1147     1.0  0.65396  0.69810  0.94472  1.0000
  H   H1959     1.0  0.65478  0.73961  0.94310  1.0000
  C   C1148     1.0  0.98772  0.60244  0.74001  1.0000
  C   C1149     1.0  0.81543  0.55430  0.83599  1.0000
  C   C1150     1.0  0.66260  0.67624  0.94691  1.0000
  H   H1960     1.0  0.96937  0.72320  0.63730  1.0000
  H   H1961     1.0  0.74253  0.65214  0.83360  1.0000
  H   H1962     1.0  0.97624  0.73001  0.54378  1.0000
  H   H1963     1.0  0.65439  0.70236  0.92834  1.0000
  H   H1964     1.0  0.66517  0.70762  0.95127  1.0000
  H   H1965     1.0  0.66934  0.68090  0.84249  1.0000
  H   H1966     1.0  0.92497  0.63706  0.72944  1.0000
  H   H1967     1.0  0.62425  0.67176  0.94912  1.0000
  C   C1151     1.0  0.71550  0.64029  0.84962  1.0000
  H   H1968     1.0  0.75905  0.49281  0.89792  1.0000
  H   H1969     1.0  0.70772  0.64294  0.86453  1.0000
  H   H1970     1.0  0.67889  0.67593  0.94228  1.0000
  H   H1971     1.0  0.66125  0.67005  0.96263  1.0000
  H   H1972     1.0  0.65543  0.66623  0.93660  1.0000
  H   H1973     1.0  0.62527  0.72430  0.93068  1.0000
  H   H1974     1.0  0.92161  0.50484  0.72445  1.0000
  H   H1975     1.0  0.82402  0.56806  0.87351  1.0000
  N   N82       1.0  0.93478  0.65305  0.70186  1.0000
  C   C1152     1.0  0.87351  0.72419  0.50701  1.0000
  C   C1153     1.0  0.68438  0.67312  0.84046  1.0000
  H   H1976     1.0  0.72433  0.67163  0.84089  1.0000
  H   H1977     1.0  0.73674  0.63690  0.79534  1.0000
  C   C1154     1.0  0.74312  0.49249  0.89534  1.0000
  S   S333      1.0  0.85475  0.73415  0.59698  1.0000
  C   C1155     1.0  0.91906  0.64850  0.71829  1.0000
  H   H1978     1.0  0.68872  0.61230  0.85163  1.0000
  C   C1156     1.0  0.69435  0.61592  0.83588  1.0000
  H   H1979     1.0  0.97892  0.54569  0.75987  1.0000
  H   H1980     1.0  0.74650  0.55304  0.83414  1.0000
  H   H1981     1.0  0.92006  0.62787  0.67217  1.0000
  H   H1982     1.0  0.80854  0.55480  0.80383  1.0000
  H   H1983     1.0  0.81895  0.53070  0.81343  1.0000
  H   H1984     1.0  0.70768  0.60544  0.83356  1.0000
  H   H1985     1.0  0.86446  0.51756  0.71796  1.0000
  H   H1986     1.0  0.92087  0.68121  0.69074  1.0000
  C   C1157     1.0  0.92824  0.62003  0.68454  1.0000
  C   C1158     1.0  0.93741  0.66881  0.66554  1.0000
  C   C1159     1.0  0.72590  0.62828  0.80516  1.0000
  H   H1987     1.0  0.94884  0.50470  0.72553  1.0000
  H   H1988     1.0  0.78983  0.57330  0.86367  1.0000
  H   H1989     1.0  0.96375  0.66671  0.69781  1.0000
  C   C1160     1.0  0.80018  0.52373  0.85068  1.0000
  H   H1990     1.0  0.64861  0.70487  0.98170  1.0000
  C   C1161     1.0  0.63408  0.69941  0.97672  1.0000
  H   H1991     1.0  0.72012  0.61594  0.79657  1.0000
  H   H1992     1.0  0.98646  0.60224  0.72385  1.0000
  C   C1162     1.0  0.70845  0.64247  0.81273  1.0000
  H   H1993     1.0  0.69202  0.68025  0.82699  1.0000
  H   H1994     1.0  0.88496  0.73218  0.51407  1.0000
  H   H1995     1.0  0.58984  0.70397  0.95160  1.0000
  H   H1996     1.0  0.80843  0.56156  0.89519  1.0000
  C   C1163     1.0  0.98217  0.71353  0.64288  1.0000
  H   H1997     1.0  0.90585  0.64157  0.71200  1.0000
  H   H1998     1.0  0.77277  0.51737  0.86988  1.0000
  C   C1164     1.0  0.93457  0.50205  0.73429  1.0000
  H   H1999     1.0  0.49303  0.71493  0.85841  1.0000
  H   H2000     1.0  0.61925  0.68944  0.92894  1.0000
  H   H2001     1.0  0.71345  0.65819  0.81093  1.0000
  C   C1165     1.0  0.98851  0.73042  0.58948  1.0000
  H   H2002     1.0  0.83457  0.55187  0.80872  1.0000
  H   H2003     1.0  0.95200  0.67566  0.66776  1.0000
  H   H2004     1.0  0.95016  0.62397  0.70620  1.0000
  C   C1166     1.0  0.86717  0.50353  0.72642  1.0000
  C   C1167     1.0  0.81933  0.54728  0.81428  1.0000
  H   H2005     1.0  0.82942  0.55013  0.84406  1.0000
  C   C1168     1.0  0.94338  0.63345  0.69394  1.0000
  C   C1169     1.0  0.75821  0.54617  0.84400  1.0000
  C   C1170     1.0  0.77910  0.55130  0.83468  1.0000
  H   H2006     1.0  0.92204  0.67350  0.73876  1.0000
  C   C1171     1.0  0.95169  0.66449  0.70973  1.0000
  C   C1172     1.0  0.73107  0.65674  0.84535  1.0000
  Fe  Fe166     1.0  0.91346  0.73543  0.59245  1.0000
  H   H2007     1.0  0.61136  0.72770  0.95335  1.0000
  H   H2008     1.0  0.93654  0.60678  0.67812  1.0000
  C   C1173     1.0  0.62660  0.72332  0.94734  1.0000
  H   H2009     1.0  0.68250  0.61211  0.80568  1.0000
  C   C1174     1.0  0.50697  0.72825  0.88304  1.0000
  C   C1175     1.0  0.59703  0.68877  0.95358  1.0000
  H   H2010     1.0  0.67329  0.64491  0.85204  1.0000
  C   C1176     1.0  0.61751  0.71049  0.98967  1.0000
  H   H2011     1.0  0.72480  0.62622  0.85231  1.0000
  H   H2012     1.0  0.78189  0.55115  0.87660  1.0000
  C   C1177     1.0  0.61916  0.68761  0.94572  1.0000
  N   N83       1.0  0.70024  0.63765  0.83378  1.0000
  H   H2013     1.0  0.69635  0.64233  0.80170  1.0000
  H   H2014     1.0  0.67068  0.64969  0.82579  1.0000
  H   H2015     1.0  0.73473  0.62148  0.81763  1.0000
  N   N84       1.0  0.79706  0.54625  0.84736  1.0000
  S   S334      1.0  0.53189  0.72259  0.87344  1.0000
  S   S335      1.0  0.94748  0.72791  0.58920  1.0000
  H   H2016     1.0  0.91036  0.65966  0.68177  1.0000
  C   C1178     1.0  0.78912  0.51381  0.86923  1.0000
  H   H2017     1.0  0.89849  0.66165  0.74095  1.0000
  Fe  Fe167     1.0  0.87565  0.72353  0.57153  1.0000
  H   H2018     1.0  0.70382  0.50500  0.93968  1.0000
  H   H2019     1.0  0.91730  0.61396  0.69611  1.0000
  C   C1179     1.0  0.96229  0.65457  0.72809  1.0000
  H   H2020     1.0  0.81644  0.51947  0.85235  1.0000
  H   H2021     1.0  0.83007  0.73942  0.55686  1.0000
  H   H2022     1.0  0.95179  0.65149  0.74119  1.0000
  Fe  Fe168     1.0  0.56015  0.73372  0.88718  1.0000
  H   H2023     1.0  0.58823  0.67859  0.94482  1.0000
  H   H2024     1.0  0.69760  0.62359  0.98833  1.0000
  H   H2025     1.0  0.98875  0.71477  0.58565  1.0000
  H   H2026     1.0  0.64416  0.73933  0.96878  1.0000
  C   C1180     1.0  0.64064  0.74004  0.95263  1.0000
  H   H2027     1.0  0.79112  0.49718  0.86864  1.0000
  H   H2028     1.0  0.98625  0.70291  0.63092  1.0000
  C   C1181     1.0  0.50334  0.73821  0.90103  1.0000
  C   C1182     1.0  0.70201  0.49116  0.88936  1.0000
  H   H2029     1.0  0.97073  0.64046  0.72420  1.0000
  H   H2030     1.0  0.99060  0.72978  0.50887  1.0000
  H   H2031     1.0  0.98896  0.55368  0.78223  1.0000
  C   C1183     1.0  0.96987  0.74094  0.59231  1.0000
  H   H2032     1.0  0.61225  0.86024  0.09458  1.0000
  H   H2033     1.0  0.67148  0.94589  0.29210  1.0000
  Fe  Fe169     1.0  0.59162  0.76193  0.11940  1.0000
  S   S336      1.0  0.60066  0.78042  0.14622  1.0000
  H   H2034     1.0  0.64495  0.80675  0.14156  1.0000
  S   S337      1.0  0.57242  0.77236  0.09355  1.0000
  Fe  Fe170     1.0  0.58721  0.88084  0.21919  1.0000
  S   S338      1.0  0.58657  0.86498  0.24988  1.0000
  S   S339      1.0  0.58468  0.86569  0.18856  1.0000
  Fe  Fe171     1.0  0.58171  0.92331  0.23844  1.0000
  S   S340      1.0  0.58072  0.90924  0.26989  1.0000
  S   S341      1.0  0.57074  0.95657  0.23745  1.0000
  Fe  Fe172     1.0  0.60685  0.88926  0.25946  1.0000
  S   S342      1.0  0.63580  0.88177  0.27705  1.0000
  Fe  Fe173     1.0  0.56060  0.88663  0.25764  1.0000
  S   S343      1.0  0.53137  0.87943  0.27544  1.0000
  S   S344      1.0  0.60894  0.90426  0.22807  1.0000
  S   S345      1.0  0.56032  0.90147  0.22694  1.0000
  S   S346      1.0  0.88133  0.76030  0.42122  1.0000
  S   S347      1.0  0.89226  0.75546  0.37342  1.0000
  H   H2035     1.0  0.77796  0.88091  0.47123  1.0000
  H   H2036     1.0  0.75006  0.81635  0.45432  1.0000
  Fe  Fe174     1.0  0.86510  0.76633  0.39241  1.0000
  S   S348      1.0  0.85087  0.79841  0.38727  1.0000
  Fe  Fe175     1.0  0.74145  0.91861  0.37742  1.0000
  S   S349      1.0  0.71144  0.92128  0.39372  1.0000
  S   S350      1.0  0.75392  0.94677  0.36143  1.0000
  Fe  Fe176     1.0  0.74581  0.87277  0.38736  1.0000
  S   S351      1.0  0.71519  0.87327  0.40397  1.0000
  S   S352      1.0  0.76187  0.84113  0.38836  1.0000
  Fe  Fe177     1.0  0.70415  0.89328  0.37778  1.0000
  S   S353      1.0  0.67288  0.89520  0.36341  1.0000
  Fe  Fe178     1.0  0.72522  0.90126  0.41802  1.0000
  S   S354      1.0  0.72637  0.91217  0.45026  1.0000
  S   S355      1.0  0.73399  0.89123  0.36047  1.0000
  S   S356      1.0  0.75600  0.90011  0.40234  1.0000
  H   H2037     1.0  0.60978  0.82274  0.30599  1.0000
  C   C1184     1.0  0.74698  0.97117  0.37001  1.0000
  C   C1185     1.0  0.73597  0.97372  0.38821  1.0000
  H   H2038     1.0  0.62589  0.84110  0.29466  1.0000
  H   H2039     1.0  0.73164  0.96068  0.39741  1.0000
  H   H2040     1.0  0.58453  0.81455  0.07602  1.0000
  C   C1186     1.0  0.72116  0.90109  0.47466  1.0000
  H   H2041     1.0  0.79694  0.84707  0.44746  1.0000
  C   C1187     1.0  0.51552  0.93984  0.26297  1.0000
  H   H2042     1.0  0.69888  0.88104  0.46580  1.0000
  C   C1188     1.0  0.82591  0.80987  0.38775  1.0000
  C   C1189     1.0  0.80848  0.79868  0.38987  1.0000
  C   C1190     1.0  0.78916  0.80850  0.38975  1.0000
  C   C1191     1.0  0.78683  0.82966  0.38769  1.0000
  C   C1192     1.0  0.80425  0.84087  0.38582  1.0000
  C   C1193     1.0  0.82357  0.83104  0.38577  1.0000
  H   H2043     1.0  0.80988  0.78243  0.39139  1.0000
  H   H2044     1.0  0.77588  0.79960  0.39126  1.0000
  H   H2045     1.0  0.80285  0.85711  0.38424  1.0000
  H   H2046     1.0  0.83684  0.83994  0.38407  1.0000
  H   H2047     1.0  0.52794  0.96328  0.23072  1.0000
  H   H2048     1.0  0.78959  0.88005  0.44590  1.0000
  C   C1194     1.0  0.74818  0.83199  0.44785  1.0000
  H   H2049     1.0  0.75725  0.86887  0.43279  1.0000
  C   C1195     1.0  0.75961  0.86674  0.44922  1.0000
  H   H2050     1.0  0.62929  0.85373  0.11431  1.0000
  H   H2051     1.0  0.60977  0.96829  0.21851  1.0000
  C   C1196     1.0  0.64584  0.88595  0.30111  1.0000
  C   C1197     1.0  0.66523  0.87791  0.30543  1.0000
  C   C1198     1.0  0.67377  0.88057  0.32425  1.0000
  C   C1199     1.0  0.66295  0.89115  0.33927  1.0000
  C   C1200     1.0  0.64358  0.89923  0.33494  1.0000
  C   C1201     1.0  0.63518  0.89685  0.31599  1.0000
  H   H2052     1.0  0.67372  0.86949  0.29411  1.0000
  H   H2053     1.0  0.68865  0.87422  0.32720  1.0000
  H   H2054     1.0  0.63507  0.90760  0.34628  1.0000
  H   H2055     1.0  0.62052  0.90355  0.31285  1.0000
  C   C1202     1.0  0.50777  0.88046  0.26376  1.0000
  C   C1203     1.0  0.72622  0.83911  0.45300  1.0000
  C   C1204     1.0  0.50663  0.87921  0.24290  1.0000
  H   H2056     1.0  0.74908  0.83071  0.43113  1.0000
  H   H2057     1.0  0.52026  0.87671  0.23368  1.0000
  C   C1205     1.0  0.60120  0.98177  0.22269  1.0000
  H   H2058     1.0  0.67693  0.92023  0.28640  1.0000
  H   H2059     1.0  0.52051  0.91860  0.23998  1.0000
  H   H2060     1.0  0.67897  0.96738  0.35426  1.0000
  H   H2061     1.0  0.82010  0.74405  0.33423  1.0000
  C   C1206     1.0  0.59452  0.80358  0.15865  1.0000
  C   C1207     1.0  0.60423  0.80747  0.17646  1.0000
  C   C1208     1.0  0.60092  0.82596  0.18620  1.0000
  C   C1209     1.0  0.58810  0.84118  0.17807  1.0000
  C   C1210     1.0  0.57836  0.83726  0.16027  1.0000
  C   C1211     1.0  0.58126  0.81857  0.15083  1.0000
  H   H2062     1.0  0.61454  0.79612  0.18274  1.0000
  H   H2063     1.0  0.60869  0.82862  0.19974  1.0000
  H   H2064     1.0  0.56839  0.84879  0.15377  1.0000
  H   H2065     1.0  0.57339  0.81591  0.13737  1.0000
  C   C1212     1.0  0.76890  0.84096  0.47631  1.0000
  H   H2066     1.0  0.69577  0.93829  0.28094  1.0000
  H   H2067     1.0  0.63028  0.79124  0.11467  1.0000
  H   H2068     1.0  0.60438  0.83466  0.28170  1.0000
  H   H2069     1.0  0.52161  0.92661  0.18920  1.0000
  H   H2070     1.0  0.64433  0.78865  0.05320  1.0000
  H   H2071     1.0  0.74909  0.93810  0.29537  1.0000
  C   C1213     1.0  0.69104  0.92914  0.31338  1.0000
  S   S357      1.0  0.61590  0.74774  0.09867  1.0000
  C   C1214     1.0  0.62518  0.80276  0.07645  1.0000
  C   C1215     1.0  0.60987  0.83702  0.29693  1.0000
  H   H2072     1.0  0.72688  0.92590  0.28954  1.0000
  H   H2073     1.0  0.80452  0.81494  0.43318  1.0000
  H   H2074     1.0  0.74510  0.87181  0.45636  1.0000
  C   C1216     1.0  0.59717  0.76162  0.01942  1.0000
  H   H2075     1.0  0.53524  0.94265  0.21633  1.0000
  H   H2076     1.0  0.53034  0.94673  0.26009  1.0000
  C   C1217     1.0  0.67934  0.95069  0.35422  1.0000
  H   H2077     1.0  0.57431  0.83279  0.09298  1.0000
  C   C1218     1.0  0.58853  0.82714  0.08536  1.0000
  C   C1219     1.0  0.62795  0.85530  0.09781  1.0000
  H   H2078     1.0  0.59777  0.80551  0.10842  1.0000
  H   H2079     1.0  0.62444  0.82365  0.13605  1.0000
  H   H2080     1.0  0.59445  0.83945  0.07531  1.0000
  S   S358      1.0  0.60706  0.76827  0.04265  1.0000
  H   H2081     1.0  0.95150  0.75310  0.37022  1.0000
  C   C1220     1.0  0.60352  0.81979  0.10143  1.0000
  C   C1221     1.0  0.73235  0.93954  0.29625  1.0000
  C   C1222     1.0  0.68362  0.93391  0.29194  1.0000
  H   H2082     1.0  0.61739  0.81009  0.06341  1.0000
  C   C1223     1.0  0.63894  0.81743  0.12976  1.0000
  N   N85       1.0  0.57649  0.85075  0.31460  1.0000
  C   C1224     1.0  0.56546  0.87101  0.31596  1.0000
  C   C1225     1.0  0.56579  0.83903  0.29960  1.0000
  C   C1226     1.0  0.59790  0.85447  0.30710  1.0000
  C   C1227     1.0  0.57609  0.84072  0.33537  1.0000
  C   C1228     1.0  0.57446  0.88612  0.32975  1.0000
  C   C1229     1.0  0.54418  0.83297  0.30599  1.0000
  C   C1230     1.0  0.58412  0.81866  0.33718  1.0000
  H   H2083     1.0  0.56469  0.87858  0.30073  1.0000
  H   H2084     1.0  0.54956  0.86943  0.32151  1.0000
  H   H2085     1.0  0.57414  0.82487  0.29574  1.0000
  H   H2086     1.0  0.56491  0.84780  0.28499  1.0000
  H   H2087     1.0  0.59820  0.86728  0.29572  1.0000
  H   H2088     1.0  0.60713  0.85915  0.31956  1.0000
  H   H2089     1.0  0.58529  0.84906  0.34558  1.0000
  H   H2090     1.0  0.56069  0.84164  0.34270  1.0000
  H   H2091     1.0  0.56570  0.90068  0.32836  1.0000
  H   H2092     1.0  0.57328  0.88105  0.34585  1.0000
  H   H2093     1.0  0.59028  0.88930  0.32530  1.0000
  H   H2094     1.0  0.53358  0.84617  0.30749  1.0000
  H   H2095     1.0  0.53835  0.82397  0.29396  1.0000
  H   H2096     1.0  0.54372  0.82342  0.32006  1.0000
  H   H2097     1.0  0.60055  0.81791  0.33975  1.0000
  H   H2098     1.0  0.58114  0.80970  0.32410  1.0000
  H   H2099     1.0  0.57622  0.81091  0.35021  1.0000
  N   N86       1.0  0.91880  0.81607  0.39175  1.0000
  C   C1231     1.0  0.93677  0.80446  0.38267  1.0000
  C   C1232     1.0  0.90097  0.81247  0.37929  1.0000
  C   C1233     1.0  0.91496  0.80733  0.41284  1.0000
  C   C1234     1.0  0.92366  0.83805  0.39198  1.0000
  C   C1235     1.0  0.95661  0.80515  0.39387  1.0000
  C   C1236     1.0  0.90357  0.81789  0.35655  1.0000
  C   C1237     1.0  0.89628  0.81565  0.42475  1.0000
  C   C1238     1.0  0.90563  0.85356  0.39248  1.0000
  H   H2100     1.0  0.93332  0.78829  0.38144  1.0000
  H   H2101     1.0  0.94051  0.81015  0.36703  1.0000
  H   H2102     1.0  0.88715  0.82073  0.38470  1.0000
  H   H2103     1.0  0.89703  0.79639  0.38083  1.0000
  H   H2104     1.0  0.91348  0.79073  0.41246  1.0000
  H   H2105     1.0  0.92789  0.80957  0.42243  1.0000
  H   H2106     1.0  0.93306  0.84076  0.40499  1.0000
  H   H2107     1.0  0.93296  0.84225  0.37818  1.0000
  H   H2108     1.0  0.88855  0.81822  0.34978  1.0000
  H   H2109     1.0  0.97811  0.75448  0.42782  1.0000
  H   H2110     1.0  0.95589  0.79643  0.40847  1.0000
  H   H2111     1.0  0.61877  0.77852  0.00121  1.0000
  C   C1239     1.0  0.58209  0.98015  0.23220  1.0000
  H   H2112     1.0  0.76921  0.89736  0.45134  1.0000
  H   H2113     1.0  0.88207  0.81401  0.41696  1.0000
  H   H2114     1.0  0.89809  0.83145  0.42876  1.0000
  H   H2115     1.0  0.89468  0.80673  0.43923  1.0000
  H   H2116     1.0  0.90979  0.86671  0.40095  1.0000
  H   H2117     1.0  0.89152  0.84815  0.39981  1.0000
  H   H2118     1.0  0.90264  0.85967  0.37703  1.0000
  H   H2119     1.0  0.63766  0.86778  0.09233  1.0000
  H   H2120     1.0  0.91004  0.83286  0.35356  1.0000
  H   H2121     1.0  0.73431  0.95232  0.32511  1.0000
  C   C1240     1.0  0.63469  0.83605  0.08667  1.0000
  C   C1241     1.0  0.69691  0.96595  0.31552  1.0000
  H   H2122     1.0  0.67710  0.92591  0.32253  1.0000
  H   H2123     1.0  0.69932  0.96788  0.29894  1.0000
  H   H2124     1.0  0.65660  0.80791  0.06539  1.0000
  C   C1242     1.0  0.78996  0.81675  0.44196  1.0000
  C   C1243     1.0  0.98399  0.75510  0.36964  1.0000
  H   H2125     1.0  0.53529  0.96778  0.19130  1.0000
  H   H2126     1.0  0.65283  0.78340  0.07793  1.0000
  H   H2127     1.0  0.50430  0.95104  0.26902  1.0000
  H   H2128     1.0  0.70112  0.92605  0.35003  1.0000
  H   H2129     1.0  0.61653  0.78912  0.08072  1.0000
  H   H2130     1.0  0.71597  0.82735  0.44877  1.0000
  H   H2131     1.0  0.63183  0.83960  0.07047  1.0000
  H   H2132     1.0  0.69957  0.91434  0.31338  1.0000
  C   C1244     1.0  0.60605  0.76892  0.00103  1.0000
  C   C1245     1.0  0.58060  0.74938  0.01890  1.0000
  H   H2133     1.0  0.64994  0.82949  0.12742  1.0000
  H   H2134     1.0  0.60209  0.83062  0.11369  1.0000
  C   C1246     1.0  0.70818  0.98318  0.32446  1.0000
  N   N87       1.0  0.50352  0.94364  0.22634  1.0000
  H   H2135     1.0  0.65139  0.83444  0.08734  1.0000
  C   C1247     1.0  0.63693  0.80601  0.11032  1.0000
  C   C1248     1.0  0.70689  0.88634  0.47824  1.0000
  N   N88       1.0  0.62511  0.81666  0.09386  1.0000
  Fe  Fe179     1.0  0.59507  0.75589  0.07332  1.0000
  H   H2136     1.0  0.72187  0.85295  0.44407  1.0000
  C   C1249     1.0  0.64610  0.79546  0.06797  1.0000
  H   H2137     1.0  0.65269  0.80239  0.10502  1.0000
  H   H2138     1.0  0.72139  0.98343  0.46729  1.0000
  H   H2139     1.0  0.71169  0.94925  0.35360  1.0000
  H   H2140     1.0  0.77894  0.80800  0.43424  1.0000
  C   C1250     1.0  0.77522  0.88184  0.45488  1.0000
  H   H2141     1.0  0.74432  0.86239  0.48722  1.0000
  H   H2142     1.0  0.96899  0.79788  0.38463  1.0000
  H   H2143     1.0  0.76121  0.98661  0.34432  1.0000
  H   H2144     1.0  0.51675  0.98365  0.20439  1.0000
  C   C1251     1.0  0.78375  0.83938  0.44210  1.0000
  H   H2145     1.0  0.67745  0.94513  0.37017  1.0000
  H   H2146     1.0  0.96101  0.82073  0.39621  1.0000
  C   C1252     1.0  0.51090  0.91765  0.19880  1.0000
  S   S359      1.0  0.93839  0.75415  0.41302  1.0000
  H   H2147     1.0  0.49411  0.97046  0.24229  1.0000
  H   H2148     1.0  0.51941  0.90725  0.20904  1.0000
  H   H2149     1.0  0.66626  0.94572  0.34623  1.0000
  C   C1253     1.0  0.72529  0.94073  0.31853  1.0000
  C   C1254     1.0  0.52246  0.95376  0.21891  1.0000
  Fe  Fe180     1.0  0.90727  0.74707  0.40240  1.0000
  C   C1255     1.0  0.96241  0.75358  0.40019  1.0000
  H   H2150     1.0  0.78242  0.84468  0.42608  1.0000
  H   H2151     1.0  0.91302  0.80622  0.34872  1.0000
  H   H2152     1.0  0.73028  0.92622  0.32618  1.0000
  H   H2153     1.0  0.79231  0.81013  0.45728  1.0000
  C   C1256     1.0  0.96466  0.75366  0.37916  1.0000
  C   C1257     1.0  0.57294  0.74465  0.00029  1.0000
  C   C1258     1.0  0.75263  0.98839  0.35838  1.0000
  C   C1259     1.0  0.52062  0.96798  0.20003  1.0000
  H   H2154     1.0  0.71302  0.97973  0.33998  1.0000
  N   N89       1.0  0.70306  0.94492  0.32276  1.0000
  H   H2155     1.0  0.98557  0.75554  0.35336  1.0000
  C   C1260     1.0  0.69972  0.94233  0.34535  1.0000
  H   H2156     1.0  0.72317  0.84155  0.46918  1.0000
  N   N90       1.0  0.76474  0.84490  0.45432  1.0000
  C   C1261     1.0  0.97970  0.75443  0.41155  1.0000
  H   H2157     1.0  0.72801  0.95329  0.28723  1.0000
  H   H2158     1.0  0.51773  0.92796  0.27504  1.0000
  H   H2159     1.0  0.50288  0.90818  0.18862  1.0000
  C   C1262     1.0  0.49531  0.93116  0.21034  1.0000
  C   C1263     1.0  0.50838  0.92981  0.24418  1.0000
  H   H2160     1.0  0.78363  0.84696  0.48002  1.0000
  H   H2161     1.0  0.50938  0.96339  0.18953  1.0000
  Fe  Fe181     1.0  0.55763  0.74243  0.09801  1.0000
  H   H2162     1.0  0.57348  0.74377  0.03284  1.0000
  H   H2163     1.0  0.77088  0.82451  0.47971  1.0000
  S   S360      1.0  0.52408  0.74291  0.09091  1.0000
  H   H2164     1.0  0.49521  0.92079  0.24910  1.0000
  H   H2165     1.0  0.68039  0.96891  0.31789  1.0000
  H   H2166     1.0  0.72179  0.98689  0.31490  1.0000
  H   H2167     1.0  0.74237  0.91931  0.48847  1.0000
  H   H2168     1.0  0.60589  0.78970  0.75795  1.0000
  H   H2169     1.0  0.84221  0.80478  0.55291  1.0000
  Fe  Fe182     1.0  0.58582  0.77062  0.88324  1.0000
  S   S361      1.0  0.58483  0.80268  0.86823  1.0000
  S   S362      1.0  0.55845  0.76279  0.90294  1.0000
  H   H2170     1.0  0.52849  0.76658  0.87047  1.0000
  Fe  Fe183     1.0  0.87347  0.76151  0.59569  1.0000
  S   S363      1.0  0.85956  0.79393  0.59248  1.0000
  H   H2171     1.0  0.54073  0.82192  0.82672  1.0000
  H   H2172     1.0  0.64919  0.82253  0.70073  1.0000
  S   S364      1.0  0.89372  0.75122  0.56935  1.0000
  H   H2173     1.0  0.52331  0.83824  0.83987  1.0000
  Fe  Fe184     1.0  0.75381  0.86808  0.59618  1.0000
  S   S365      1.0  0.72046  0.86292  0.59515  1.0000
  S   S366      1.0  0.77203  0.83856  0.60407  1.0000
  Fe  Fe185     1.0  0.74591  0.91415  0.58834  1.0000
  S   S367      1.0  0.71240  0.91136  0.58693  1.0000
  S   S368      1.0  0.76116  0.94400  0.58082  1.0000
  Fe  Fe186     1.0  0.71482  0.89000  0.61419  1.0000
  S   S369      1.0  0.69712  0.89169  0.64501  1.0000
  Fe  Fe187     1.0  0.72086  0.88463  0.56804  1.0000
  S   S370      1.0  0.70528  0.87730  0.53942  1.0000
  S   S371      1.0  0.74830  0.89430  0.61656  1.0000
  S   S372      1.0  0.75422  0.88828  0.56801  1.0000
  Fe  Fe188     1.0  0.58415  0.87383  0.76149  1.0000
  S   S373      1.0  0.56837  0.87246  0.73210  1.0000
  S   S374      1.0  0.58946  0.84280  0.77806  1.0000
  Fe  Fe189     1.0  0.58872  0.91997  0.75439  1.0000
  S   S375      1.0  0.57325  0.92090  0.72508  1.0000
  S   S376      1.0  0.59910  0.94864  0.76802  1.0000
  Fe  Fe190     1.0  0.55070  0.90059  0.74114  1.0000
  S   S377      1.0  0.51702  0.91000  0.74486  1.0000
  Fe  Fe191     1.0  0.59252  0.89286  0.71856  1.0000
  S   S378      1.0  0.60779  0.88721  0.68715  1.0000
  S   S379      1.0  0.56547  0.90100  0.77104  1.0000
  S   S380      1.0  0.60908  0.89279  0.74734  1.0000
  C   C1264     1.0  0.59413  0.97344  0.75783  1.0000
  H   H2174     1.0  0.76061  0.85311  0.50568  1.0000
  C   C1265     1.0  0.76981  0.85287  0.65901  1.0000
  H   H2175     1.0  0.58548  0.96429  0.72891  1.0000
  C   C1266     1.0  0.83324  0.80170  0.53967  1.0000
  H   H2176     1.0  0.55015  0.78917  0.83109  1.0000
  H   H2177     1.0  0.59428  0.84338  0.68444  1.0000
  H   H2178     1.0  0.53365  0.74745  0.82551  1.0000
  H   H2179     1.0  0.50678  0.88639  0.71041  1.0000
  C   C1267     1.0  0.64904  0.85497  0.73012  1.0000
  C   C1268     1.0  0.67202  0.89060  0.65620  1.0000
  C   C1269     1.0  0.65550  0.88497  0.64564  1.0000
  C   C1270     1.0  0.63612  0.88406  0.65535  1.0000
  C   C1271     1.0  0.63276  0.88890  0.67573  1.0000
  C   C1272     1.0  0.64927  0.89456  0.68629  1.0000
  C   C1273     1.0  0.66870  0.89525  0.67664  1.0000
  H   H2180     1.0  0.65764  0.88130  0.62997  1.0000
  H   H2181     1.0  0.62356  0.87969  0.64692  1.0000
  H   H2182     1.0  0.64707  0.89863  0.70183  1.0000
  H   H2183     1.0  0.68123  0.89974  0.68504  1.0000
  C   C1274     1.0  0.71227  0.88609  0.51456  1.0000
  N   N91       1.0  0.83165  0.77928  0.53752  1.0000
  H   H2184     1.0  0.74671  0.93778  0.53233  1.0000
  H   H2185     1.0  0.63251  0.78220  0.71731  1.0000
  H   H2186     1.0  0.72445  0.94962  0.56267  1.0000
  C   C1275     1.0  0.75201  0.96849  0.58743  1.0000
  H   H2187     1.0  0.63306  0.75493  0.94928  1.0000
  H   H2188     1.0  0.67488  0.93994  0.52436  1.0000
  H   H2189     1.0  0.60507  0.77020  0.96841  1.0000
  H   H2190     1.0  0.82625  0.77509  0.56967  1.0000
  C   C1276     1.0  0.83512  0.80609  0.59626  1.0000
  C   C1277     1.0  0.81847  0.79599  0.60466  1.0000
  C   C1278     1.0  0.79942  0.80617  0.60681  1.0000
  C   C1279     1.0  0.79656  0.82659  0.60056  1.0000
  C   C1280     1.0  0.81319  0.83670  0.59213  1.0000
  C   C1281     1.0  0.83228  0.82654  0.59008  1.0000
  H   H2191     1.0  0.82030  0.78034  0.60959  1.0000
  H   H2192     1.0  0.78676  0.79813  0.61340  1.0000
  H   H2193     1.0  0.81140  0.85239  0.58734  1.0000
  H   H2194     1.0  0.84498  0.83462  0.58363  1.0000
  H   H2195     1.0  0.81195  0.75050  0.50153  1.0000
  C   C1282     1.0  0.75961  0.98551  0.57677  1.0000
  N   N92       1.0  0.62524  0.82625  0.72368  1.0000
  C   C1283     1.0  0.96975  0.76119  0.59718  1.0000
  H   H2196     1.0  0.60283  0.80318  0.72485  1.0000
  H   H2197     1.0  0.95554  0.76950  0.59940  1.0000
  C   C1284     1.0  0.58594  0.81340  0.84297  1.0000
  C   C1285     1.0  0.58951  0.80174  0.82602  1.0000
  C   C1286     1.0  0.59024  0.81098  0.80642  1.0000
  C   C1287     1.0  0.58749  0.83203  0.80331  1.0000
  C   C1288     1.0  0.58369  0.84366  0.82024  1.0000
  C   C1289     1.0  0.58297  0.83442  0.83986  1.0000
  H   H2198     1.0  0.59185  0.78560  0.82803  1.0000
  H   H2199     1.0  0.59304  0.80170  0.79357  1.0000
  H   H2200     1.0  0.58157  0.85982  0.81828  1.0000
  H   H2201     1.0  0.58022  0.84367  0.85277  1.0000
  H   H2202     1.0  0.63178  0.79288  0.74988  1.0000
  H   H2203     1.0  0.49811  0.98116  0.78008  1.0000
  C   C1290     1.0  0.58173  0.75198  0.98190  1.0000
  H   H2204     1.0  0.87250  0.79344  0.52514  1.0000
  C   C1291     1.0  0.82176  0.77581  0.51800  1.0000
  N   N93       1.0  0.52747  0.97032  0.76884  1.0000
  C   C1292     1.0  0.54260  0.95324  0.77273  1.0000
  C   C1293     1.0  0.51947  0.96840  0.74816  1.0000
  C   C1294     1.0  0.82578  0.75498  0.50871  1.0000
  H   H2205     1.0  0.67047  0.96665  0.55468  1.0000
  C   C1295     1.0  0.55115  0.95184  0.79400  1.0000
  C   C1296     1.0  0.81315  0.81411  0.54187  1.0000
  C   C1297     1.0  0.53481  0.97108  0.73024  1.0000
  H   H2206     1.0  0.70168  0.95454  0.58678  1.0000
  H   H2207     1.0  0.53627  0.93848  0.76980  1.0000
  H   H2208     1.0  0.55584  0.95437  0.76204  1.0000
  H   H2209     1.0  0.81633  0.83040  0.54061  1.0000
  H   H2210     1.0  0.51336  0.95326  0.74673  1.0000
  H   H2211     1.0  0.50960  0.93692  0.79216  1.0000
  H   H2212     1.0  0.69088  0.86803  0.50082  1.0000
  H   H2213     1.0  0.49279  0.94508  0.77250  1.0000
  H   H2214     1.0  0.85313  0.75351  0.53738  1.0000
  H   H2215     1.0  0.98784  0.78653  0.60262  1.0000
  H   H2216     1.0  0.53933  0.94996  0.80612  1.0000
  H   H2217     1.0  0.56156  0.93839  0.79516  1.0000
  C   C1298     1.0  0.70235  0.87903  0.49812  1.0000
  C   C1299     1.0  0.51002  0.96964  0.78411  1.0000
  H   H2218     1.0  0.52703  0.96954  0.71598  1.0000
  C   C1300     1.0  0.81923  0.77135  0.55547  1.0000
  H   H2219     1.0  0.83749  0.75580  0.49627  1.0000
  H   H2220     1.0  0.86227  0.77778  0.50664  1.0000
  H   H2221     1.0  0.51475  0.97369  0.79923  1.0000
  H   H2222     1.0  0.80263  0.81112  0.52997  1.0000
  H   H2223     1.0  0.55834  0.75636  0.82034  1.0000
  H   H2224     1.0  0.71078  0.83109  0.63580  1.0000
  H   H2225     1.0  0.84153  0.80862  0.52639  1.0000
  H   H2226     1.0  0.73179  0.95850  0.61163  1.0000
  C   C1301     1.0  0.51365  0.80728  0.83976  1.0000
  C   C1302     1.0  0.59839  0.76414  0.98237  1.0000
  H   H2227     1.0  0.56029  0.96495  0.79673  1.0000
  C   C1303     1.0  0.85274  0.77007  0.53832  1.0000
  C   C1304     1.0  0.73770  0.97139  0.60320  1.0000
  C   C1305     1.0  0.52833  0.78280  0.86564  1.0000
  S   S381      1.0  0.60691  0.75811  0.90713  1.0000
  H   H2228     1.0  0.59671  0.82351  0.74037  1.0000
  H   H2229     1.0  0.74848  0.96320  0.53981  1.0000
  H   H2230     1.0  0.68201  0.94211  0.55700  1.0000
  H   H2231     1.0  0.50204  0.80043  0.87996  1.0000
  C   C1306     1.0  0.73125  0.90796  0.49108  1.0000
  H   H2232     1.0  0.82691  0.78703  0.50614  1.0000
  H   H2233     1.0  0.74636  0.82721  0.64240  1.0000
  H   H2234     1.0  0.70602  0.84834  0.65520  1.0000
  H   H2235     1.0  0.59114  0.82076  0.69914  1.0000
  H   H2236     1.0  0.66078  0.84850  0.71966  1.0000
  C   C1307     1.0  0.72705  0.90030  0.51087  1.0000
  C   C1308     1.0  0.58716  0.97687  0.73839  1.0000
  H   H2237     1.0  0.64299  0.82964  0.74998  1.0000
  C   C1309     1.0  0.73831  0.84108  0.64766  1.0000
  S   S382      1.0  0.89503  0.74800  0.61874  1.0000
  C   C1310     1.0  0.60266  0.83100  0.69266  1.0000
  H   H2238     1.0  0.78666  0.82566  0.67044  1.0000
  H   H2239     1.0  0.62233  0.84727  0.74786  1.0000
  H   H2240     1.0  0.64906  0.78717  0.69604  1.0000
  H   H2241     1.0  0.70052  0.93437  0.51523  1.0000
  C   C1311     1.0  0.98811  0.77080  0.59900  1.0000
  H   H2242     1.0  0.54132  0.98615  0.72940  1.0000
  H   H2243     1.0  0.73035  0.84065  0.71141  1.0000
  H   H2244     1.0  0.49726  0.94437  0.70969  1.0000
  C   C1312     1.0  0.78378  0.83395  0.65595  1.0000
  H   H2245     1.0  0.80384  0.77855  0.55600  1.0000
  H   H2246     1.0  0.52677  0.80730  0.88687  1.0000
  H   H2247     1.0  0.68596  0.97721  0.58521  1.0000
  H   H2248     1.0  0.54943  0.75321  0.84590  1.0000
  C   C1313     1.0  0.63438  0.83909  0.73885  1.0000
  H   H2249     1.0  0.80513  0.77836  0.51986  1.0000
  C   C1314     1.0  0.54475  0.75794  0.83059  1.0000
  H   H2250     1.0  0.60216  0.98765  0.78476  1.0000
  H   H2251     1.0  0.77735  0.86146  0.67028  1.0000
  C   C1315     1.0  0.61500  0.84040  0.70864  1.0000
  H   H2252     1.0  0.64080  0.86772  0.72242  1.0000
  C   C1316     1.0  0.53672  0.78004  0.82950  1.0000
  C   C1317     1.0  0.68803  0.94593  0.51555  1.0000
  H   H2253     1.0  0.49139  0.77450  0.98394  1.0000
  H   H2254     1.0  0.54439  0.78704  0.86535  1.0000
  C   C1318     1.0  0.71608  0.83554  0.65054  1.0000
  H   H2255     1.0  0.72459  0.81780  0.70058  1.0000
  H   H2256     1.0  0.65676  0.86146  0.74270  1.0000
  H   H2257     1.0  0.79862  0.83878  0.64949  1.0000
  H   H2258     1.0  0.97935  0.75685  0.54476  1.0000
  C   C1319     1.0  0.53030  0.82277  0.84022  1.0000
  S   S383      1.0  0.57124  0.74520  0.95903  1.0000
  H   H2259     1.0  0.65419  0.80976  0.72394  1.0000
  H   H2260     1.0  0.80570  0.81156  0.55699  1.0000
  C   C1320     1.0  0.86800  0.77803  0.52202  1.0000
  H   H2261     1.0  0.53914  0.82095  0.85398  1.0000
  H   H2262     1.0  0.61260  0.82362  0.68112  1.0000
  H   H2263     1.0  0.62319  0.79507  0.69506  1.0000
  H   H2264     1.0  0.73924  0.85214  0.63461  1.0000
  C   C1321     1.0  0.63602  0.79352  0.70506  1.0000
  H   H2265     1.0  0.73497  0.90562  0.52333  1.0000
  C   C1322     1.0  0.72811  0.83374  0.69678  1.0000
  N   N94       1.0  0.52020  0.78573  0.84483  1.0000
  C   C1323     1.0  0.60963  0.81370  0.73485  1.0000
  H   H2266     1.0  0.77060  0.86235  0.64474  1.0000
  C   C1324     1.0  0.64187  0.81369  0.71346  1.0000
  C   C1325     1.0  0.49327  0.88911  0.71974  1.0000
  C   C1326     1.0  0.50292  0.77216  0.84233  1.0000
  H   H2267     1.0  0.50745  0.80856  0.82441  1.0000
  H   H2268     1.0  0.85903  0.77265  0.55321  1.0000
  N   N95       1.0  0.74812  0.84919  0.66554  1.0000
  H   H2269     1.0  0.53175  0.78335  0.81385  1.0000
  C   C1327     1.0  0.73812  0.86932  0.67032  1.0000
  C   C1328     1.0  0.51749  0.79468  0.88280  1.0000
  C   C1329     1.0  0.74774  0.83427  0.68329  1.0000
  H   H2270     1.0  0.80611  0.74410  0.54479  1.0000
  C   C1330     1.0  0.74664  0.88024  0.68792  1.0000
  H   H2271     1.0  0.60472  0.85135  0.71666  1.0000
  H   H2272     1.0  0.75119  0.81875  0.67805  1.0000
  H   H2273     1.0  0.71442  0.93404  0.54575  1.0000
  H   H2274     1.0  0.77073  0.98344  0.56457  1.0000
  H   H2275     1.0  0.72175  0.86828  0.67369  1.0000
  H   H2276     1.0  0.73903  0.87983  0.65687  1.0000
  H   H2277     1.0  0.77815  0.82346  0.64524  1.0000
  C   C1331     1.0  0.68479  0.95837  0.55860  1.0000
  H   H2278     1.0  0.71429  0.82233  0.66111  1.0000
  H   H2279     1.0  0.76000  0.83739  0.69351  1.0000
  H   H2280     1.0  0.88198  0.76829  0.52234  1.0000
  H   H2281     1.0  0.61883  0.81054  0.76627  1.0000
  C   C1332     1.0  0.61720  0.80098  0.75319  1.0000
  H   H2282     1.0  0.76085  0.88766  0.68322  1.0000
  H   H2283     1.0  0.73571  0.89249  0.69248  1.0000
  H   H2284     1.0  0.74908  0.87021  0.70138  1.0000
  H   H2285     1.0  0.50757  0.75613  0.84561  1.0000
  H   H2286     1.0  0.54703  0.95926  0.73053  1.0000
  H   H2287     1.0  0.62623  0.84956  0.69987  1.0000
  C   C1333     1.0  0.68726  0.96112  0.58137  1.0000
  H   H2288     1.0  0.51630  0.78465  0.89658  1.0000
  H   H2289     1.0  0.71455  0.84086  0.69009  1.0000
  N   N96       1.0  0.70206  0.96502  0.54460  1.0000
  Fe  Fe192     1.0  0.57948  0.74766  0.92510  1.0000
  H   H2290     1.0  0.68339  0.94842  0.49975  1.0000
  C   C1334     1.0  0.71926  0.94975  0.54708  1.0000
  C   C1335     1.0  0.49942  0.94938  0.78663  1.0000
  H   H2291     1.0  0.50658  0.97929  0.74563  1.0000
  C   C1336     1.0  0.73833  0.95253  0.53338  1.0000
  C   C1337     1.0  0.81582  0.74860  0.55683  1.0000
  H   H2292     1.0  0.67500  0.95337  0.59012  1.0000
  H   H2293     1.0  0.74231  0.83679  0.49685  1.0000
  S   S384      1.0  0.58709  0.74173  0.86678  1.0000
  H   H2294     1.0  0.50107  0.81271  0.84980  1.0000
  H   H2295     1.0  0.49824  0.77307  0.82640  1.0000
  C   C1338     1.0  0.49443  0.89916  0.73771  1.0000
  H   H2296     1.0  0.96273  0.74714  0.52757  1.0000
  C   C1339     1.0  0.59663  0.99011  0.76974  1.0000
  C   C1340     1.0  0.75297  0.84869  0.49209  1.0000
  C   C1341     1.0  0.69469  0.96600  0.52343  1.0000
  C   C1342     1.0  0.97748  0.74429  0.53463  1.0000
  H   H2297     1.0  0.80765  0.74493  0.57139  1.0000
  C   C1343     1.0  0.70785  0.98564  0.55058  1.0000
  H   H2298     1.0  0.51589  0.74256  0.90947  1.0000
  H   H2299     1.0  0.73518  0.95715  0.51764  1.0000
  H   H2300     1.0  0.71729  0.98436  0.56405  1.0000
  H   H2301     1.0  0.55214  0.98984  0.76131  1.0000
  C   C1344     1.0  0.53776  0.98994  0.77040  1.0000
  H   H2302     1.0  0.70626  0.97162  0.51231  1.0000
  H   H2303     1.0  0.68172  0.97710  0.52225  1.0000
  H   H2304     1.0  0.82987  0.74255  0.51944  1.0000
