data_image0
_chemical_formula_structural       H5CHCHFeHSHCH2CHFeS2H2C2HCFeS2H2C9H4C2SNC3H4CSC2H3C2SCHNC2SCFeH2CH5CSHCFeHCH8CH3NHC3H2C3SH3CH3CH3CHFeH10SC2SCH9C2H5SCFeCFeHCFeSHFeH4CSHCH2SH2C2HC2FeHSFeS2NH2CH2FeS2C6H8CHC2H2CH2CH2CSCSNC3H2CH2CH2C2H3FeHCH2CH3CH4C3H3C2HSH2NCFeHCH3CH2CH2CH2CSH4C3H3CNCH6CH2CSCSHCHSH6CHFeH3CHS2H2CHC2H3SCFeS2FeS2FeSFeS3HSHFeSC3H3CHFeSHC6H4C6H7C6H4NC4HCFeH5CH3SCH3CH2NCH3CHCH2CHCNH3CH2C2H2NC8H21NH2SCH2C2SC2H9CHCFeH8CH7C2FeHCH2CHFeS2HCHCFeSHCFeSHFeSFeS2FeS2FeSFeS3HSC6H4C6H5C4H3C6H5C3H4NH5CHC2HC3NC8H21SCHNSH7CH2CH2CNHCHCH4CH2SC2H2CHCH3CH5CH2C2HCH2C4H4CHFeH12CHC2HFe2HCSHSHCH3SHCH2C2SH2CH2CHCH3FeHSH2NSH2FeS2FeS2HCHSHC8H6FeC2H2CSH6SHCHNCH5CHCFeHCH3CH2C4H2SHCNC5H14CFeSHC2HC2H2C3FeH3FeHSCH4C2HSHCHC3HCNHCHCH5CHC2SHSHCHC2H4FeSH2C2H5CH3C2HCHCHCH3CH2CH2FeS2H2CH2CHS2C6H4CHC2H4SH4CHSHC4H3CHSHNHC3HC3H3CH4CH3SH2CH3SN2CH2CNFeC2H3FeHCH3CHCH5CHCH3SCH2CHC3HS2CSH2SFeHCHNCHCH3CHSHCHCNCH5C4FeHSHS2FeSH3C6H4SH4FeH2SC2HCH4C2HC2H5SH2C3FeC2H2CHFeC2H4NCH3C2NSNC2HC5H2SH5C2H5NH5CH2CH2CH2CSCHCH2FeSC2H10CSC2HSCHCH2S2H4C3H4CH2NHCH2C4HSCH2FeSHSHCFeS2CH4CFeS2C6H5C3HCHSCSHC2H4FeH4NHC3SC2H8SHCH10CHCHC2FeH7C2H3C2HCNH3CH7C2HCFeCSHFeHNH2FeHC2H2C2HCHCSHS2HCFeS2FeS2FeSFeS3FeS2FeSCH2C3H2C6H4C6H5C2HCH2CHC6H3C2H7C2SHNH3C2H4NH4CH2FeCH7C2HCH7CHSH2SCH6CHNH2C2H2CHCHCH4SH3C2H3C2H3CH2CHC2HCH9CH3CHCHCFeHSFeHSHSHFeS2FeS2FeSFeS3HCS3C2SC6H4C6H5C2NH3C3HC2HC2H2C6H5CH5NC8H20FeH6C2H2FeH2CSHNS2HCH3CH4C4H5CH4CH2NC3H3CFe2CHCHC3H3CHSH2CH2SH2FeSCSHFeSCHC2HFeH2CHSHFeSFeS2H2CH2SFeS2CH4C6H4C2H4C4H3CHCHCH2CH2SHCH4CHCH3CH4C2HC2HSC2HS2H2CHNCH2CHCH3CHFeH2C2H2CHCH2NHCH3CHNH4CH4CH2FeSCFeH2C2HCFeH3SH2NCHCHCH4SHCH4C2H3SFeS2FeS2C6H5C2H4CH2CH3C3H3C2HCH4CHCHCH4CH2CH2CNH2SHFeHFeSHNCHC2HCH2SH4SH2SCHNC6HCH10CHCH3CHFeHCHC2H3CSCH5CHFeSH2C
_chemical_formula_sum              "H1152 C672 Fe96 S192 N48"
_cell_length_a       55.4447
_cell_length_b       55.3324
_cell_length_c       33.871
_cell_angle_alpha    91.0486
_cell_angle_beta     87.7493
_cell_angle_gamma    88.8203

_space_group_name_H-M_alt    "P 1"
_space_group_IT_number       1

loop_
  _space_group_symop_operation_xyz
  'x, y, z'

loop_
  _atom_site_type_symbol
  _atom_site_label
  _atom_site_symmetry_multiplicity
  _atom_site_fract_x
  _atom_site_fract_y
  _atom_site_fract_z
  _atom_site_occupancy
  H   H1        1.0  0.23824  0.03958  0.32658  1.0000
  H   H2        1.0  0.49153  0.04058  0.18513  1.0000
  H   H3        1.0  0.19339  0.07932  0.40543  1.0000
  H   H4        1.0  0.06284  0.12815  0.31106  1.0000
  H   H5        1.0  0.07938  0.20289  0.42020  1.0000
  C   C1        1.0  0.26315  0.99878  0.26774  1.0000
  H   H6        1.0  0.18823  0.04350  0.38293  1.0000
  C   C2        1.0  0.09163  0.08617  0.42672  1.0000
  H   H7        1.0  0.18479  0.05932  0.27563  1.0000
  Fe  Fe1       1.0  0.02967  0.16215  0.47142  1.0000
  H   H8        1.0  0.34710  0.05922  0.09223  1.0000
  S   S1        1.0  0.02547  0.20177  0.45801  1.0000
  H   H9        1.0  0.42656  0.02929  0.07419  1.0000
  C   C3        1.0  0.20318  0.05516  0.28608  1.0000
  H   H10       1.0  0.25564  0.05158  0.38700  1.0000
  H   H11       1.0  0.38213  0.03781  0.08869  1.0000
  C   C4        1.0  0.47697  0.24498  0.30436  1.0000
  H   H12       1.0  0.24161  0.07136  0.32826  1.0000
  Fe  Fe2       1.0  0.45793  0.14977  0.22803  1.0000
  S   S2        1.0  0.42108  0.13834  0.20930  1.0000
  S   S3        1.0  0.46613  0.18812  0.24539  1.0000
  H   H13       1.0  0.07257  0.21177  0.28141  1.0000
  H   H14       1.0  0.08699  0.07592  0.40069  1.0000
  C   C5        1.0  0.04946  0.13558  0.33349  1.0000
  C   C6        1.0  0.41892  0.03324  0.10437  1.0000
  H   H15       1.0  0.42082  0.10003  0.01425  1.0000
  C   C7        1.0  0.41880  0.11389  0.10375  1.0000
  Fe  Fe3       1.0  0.36597  0.01058  0.18688  1.0000
  S   S4        1.0  0.40003  0.02607  0.21167  1.0000
  S   S5        1.0  0.33414  0.02835  0.15905  1.0000
  H   H16       1.0  0.49551  0.28497  0.32827  1.0000
  H   H17       1.0  0.45997  0.02509  0.27903  1.0000
  C   C8        1.0  0.45729  0.11488  0.39190  1.0000
  C   C9        1.0  0.05717  0.21418  0.30306  1.0000
  C   C10       1.0  0.46597  0.00641  0.28592  1.0000
  C   C11       1.0  0.41499  0.10727  0.21252  1.0000
  C   C12       1.0  0.39160  0.09918  0.20611  1.0000
  C   C13       1.0  0.38660  0.07435  0.20661  1.0000
  C   C14       1.0  0.40505  0.05747  0.21331  1.0000
  C   C15       1.0  0.42833  0.06560  0.22038  1.0000
  C   C16       1.0  0.43332  0.09039  0.21989  1.0000
  H   H18       1.0  0.37734  0.11219  0.20062  1.0000
  H   H19       1.0  0.36854  0.06828  0.20161  1.0000
  H   H20       1.0  0.44266  0.05270  0.22577  1.0000
  H   H21       1.0  0.45144  0.09643  0.22464  1.0000
  C   C17       1.0  0.33880  0.00548  0.99717  1.0000
  C   C18       1.0  0.35149  0.07678  0.07894  1.0000
  S   S6        1.0  0.48733  0.30047  0.06909  1.0000
  N   N1        1.0  0.20437  0.05977  0.33013  1.0000
  C   C19       1.0  0.04736  0.16343  0.33242  1.0000
  C   C20       1.0  0.99816  0.23204  0.32803  1.0000
  C   C21       1.0  0.11216  0.07915  0.44732  1.0000
  H   H22       1.0  0.23235  0.07308  0.39997  1.0000
  H   H23       1.0  0.04658  0.20745  0.36396  1.0000
  H   H24       1.0  0.48080  0.99976  0.16198  1.0000
  H   H25       1.0  0.46540  0.27650  0.13567  1.0000
  C   C22       1.0  0.48550  0.17927  0.47784  1.0000
  S   S7        1.0  0.34645  0.01491  0.04584  1.0000
  C   C23       1.0  0.40245  0.09240  0.01634  1.0000
  C   C24       1.0  0.11790  0.09264  0.48092  1.0000
  H   H26       1.0  0.43615  0.07942  0.09016  1.0000
  H   H27       1.0  0.08565  0.15174  0.38404  1.0000
  H   H28       1.0  0.44663  0.13211  0.39476  1.0000
  C   C25       1.0  0.23603  0.05553  0.38450  1.0000
  C   C26       1.0  0.18599  0.09091  0.38247  1.0000
  S   S8        1.0  0.06680  0.14710  0.48754  1.0000
  C   C27       1.0  0.23048  0.05654  0.34049  1.0000
  H   H29       1.0  0.21604  0.06701  0.22818  1.0000
  N   N2        1.0  0.39769  0.07353  0.08599  1.0000
  C   C28       1.0  0.39548  0.04887  0.10412  1.0000
  C   C29       1.0  0.37445  0.08740  0.09593  1.0000
  S   S9        1.0  0.00511  0.15164  0.42336  1.0000
  C   C30       1.0  0.40212  0.06971  0.04208  1.0000
  Fe  Fe4       1.0  0.48506  0.17185  0.29703  1.0000
  H   H30       1.0  0.33591  0.08918  0.08641  1.0000
  H   H31       1.0  0.17988  0.08979  0.32066  1.0000
  C   C31       1.0  0.48144  0.26603  0.12662  1.0000
  H   H32       1.0  0.05371  0.12901  0.36313  1.0000
  H   H33       1.0  0.41986  0.06044  0.03582  1.0000
  H   H34       1.0  0.37508  0.10633  0.08597  1.0000
  H   H35       1.0  0.37143  0.08899  0.12860  1.0000
  H   H36       1.0  0.01362  0.24895  0.37854  1.0000
  C   C32       1.0  0.41869  0.08601  0.10424  1.0000
  S   S10       1.0  0.02452  0.32156  0.05830  1.0000
  H   H37       1.0  0.38911  0.05679  0.02953  1.0000
  C   C33       1.0  0.46047  0.25523  0.27296  1.0000
  Fe  Fe5       1.0  0.15535  0.02686  0.45668  1.0000
  H   H38       1.0  0.40453  0.12188  0.12426  1.0000
  C   C34       1.0  0.00865  0.25118  0.34824  1.0000
  H   H39       1.0  0.35278  0.07476  0.04630  1.0000
  H   H40       1.0  0.48708  0.13304  0.41704  1.0000
  H   H41       1.0  0.46921  0.25219  0.33306  1.0000
  H   H42       1.0  0.22673  0.04059  0.39953  1.0000
  H   H43       1.0  0.48761  0.13232  0.36503  1.0000
  H   H44       1.0  0.02142  0.28771  0.34485  1.0000
  H   H45       1.0  0.05731  0.32283  0.35948  1.0000
  H   H46       1.0  0.43273  0.04142  0.12298  1.0000
  C   C35       1.0  0.48795  0.24546  0.14833  1.0000
  H   H47       1.0  0.23965  0.06278  0.26158  1.0000
  H   H48       1.0  0.38925  0.10664  0.02636  1.0000
  H   H49       1.0  0.06102  0.11099  0.42391  1.0000
  N   N3        1.0  0.06942  0.17709  0.34389  1.0000
  H   H50       1.0  0.47687  0.24019  0.17353  1.0000
  C   C36       1.0  0.06265  0.20368  0.34377  1.0000
  C   C37       1.0  0.07568  0.16945  0.38501  1.0000
  C   C38       1.0  0.08964  0.17047  0.31436  1.0000
  H   H51       1.0  0.08700  0.32345  0.25830  1.0000
  H   H52       1.0  0.44194  0.24850  0.27878  1.0000
  C   C39       1.0  0.48433  0.12090  0.39123  1.0000
  C   C40       1.0  0.11315  0.18473  0.31691  1.0000
  C   C41       1.0  0.16279  0.03982  0.33757  1.0000
  S   S11       1.0  0.13144  0.05537  0.42720  1.0000
  H   H53       1.0  0.07688  0.21513  0.35576  1.0000
  H   H54       1.0  0.38838  0.05044  0.13521  1.0000
  H   H55       1.0  0.48563  0.00590  0.28993  1.0000
  C   C42       1.0  0.47542  0.18349  0.44083  1.0000
  H   H56       1.0  0.09518  0.15116  0.31729  1.0000
  H   H57       1.0  0.08354  0.17133  0.28344  1.0000
  H   H58       1.0  0.03172  0.12795  0.32638  1.0000
  C   C43       1.0  0.09060  0.18705  0.40957  1.0000
  H   H59       1.0  0.49569  0.08419  0.49076  1.0000
  H   H60       1.0  0.48009  0.07717  0.35409  1.0000
  H   H61       1.0  0.03159  0.16886  0.35211  1.0000
  C   C44       1.0  0.07695  0.10619  0.43959  1.0000
  H   H62       1.0  0.09663  0.17771  0.43634  1.0000
  Fe  Fe6       1.0  0.99816  0.19139  0.41384  1.0000
  H   H63       1.0  0.12567  0.17597  0.33740  1.0000
  H   H64       1.0  0.11030  0.20394  0.32561  1.0000
  H   H65       1.0  0.12222  0.18514  0.28708  1.0000
  H   H66       1.0  0.10699  0.19324  0.39363  1.0000
  H   H67       1.0  0.15257  0.02778  0.35774  1.0000
  H   H68       1.0  0.45643  0.18817  0.43963  1.0000
  H   H69       1.0  0.19740  0.02276  0.34576  1.0000
  H   H70       1.0  0.15353  0.05777  0.33920  1.0000
  H   H71       1.0  0.19056  0.10976  0.39055  1.0000
  H   H72       1.0  0.16594  0.09037  0.38469  1.0000
  S   S12       1.0  0.47385  0.13430  0.28175  1.0000
  C   C45       1.0  0.19532  0.08527  0.33948  1.0000
  C   C46       1.0  0.22075  0.06961  0.25955  1.0000
  S   S13       1.0  0.19540  0.02966  0.46476  1.0000
  C   C47       1.0  0.18912  0.04105  0.35046  1.0000
  H   H73       1.0  0.20951  0.09854  0.33187  1.0000
  H   H74       1.0  0.47424  0.22513  0.30489  1.0000
  H   H75       1.0  0.45772  0.01458  0.19189  1.0000
  H   H76       1.0  0.04063  0.20662  0.29077  1.0000
  H   H77       1.0  0.05369  0.23397  0.30661  1.0000
  H   H78       1.0  0.16169  0.03176  0.30748  1.0000
  H   H79       1.0  0.21967  0.08927  0.26644  1.0000
  H   H80       1.0  0.20670  0.03565  0.27874  1.0000
  H   H81       1.0  0.04209  0.16783  0.30201  1.0000
  C   C48       1.0  0.48961  0.18141  0.40548  1.0000
  C   C49       1.0  0.27844  0.99880  0.29964  1.0000
  H   H82       1.0  0.41962  0.08146  0.13604  1.0000
  H   H83       1.0  0.45181  0.10373  0.41742  1.0000
  H   H84       1.0  0.41466  0.01559  0.11768  1.0000
  H   H85       1.0  0.05898  0.16640  0.40352  1.0000
  H   H86       1.0  0.43624  0.12017  0.11493  1.0000
  S   S14       1.0  0.47583  0.18659  0.35966  1.0000
  C   C50       1.0  0.08311  0.12009  0.47246  1.0000
  Fe  Fe7       1.0  0.34046  0.00079  0.10910  1.0000
  C   C51       1.0  0.01358  0.32975  0.01121  1.0000
  Fe  Fe8       1.0  0.31174  0.99997  0.19006  1.0000
  H   H87       1.0  0.48126  0.11008  0.47101  1.0000
  C   C52       1.0  0.00680  0.27660  0.28948  1.0000
  Fe  Fe9       1.0  0.49482  0.31347  0.00572  1.0000
  S   S15       1.0  0.01380  0.30459  0.26655  1.0000
  H   H88       1.0  0.06196  0.32061  0.29224  1.0000
  Fe  Fe10      1.0  0.00405  0.32370  0.20897  1.0000
  H   H89       1.0  0.41699  0.12130  0.07396  1.0000
  H   H90       1.0  0.45902  0.27522  0.27505  1.0000
  H   H91       1.0  0.45212  0.10612  0.36385  1.0000
  H   H92       1.0  0.46586  0.24903  0.24258  1.0000
  C   C53       1.0  0.49534  0.27312  0.09323  1.0000
  S   S16       1.0  0.49153  0.14442  0.18959  1.0000
  H   H93       1.0  0.48906  0.23656  0.38198  1.0000
  C   C54       1.0  0.47569  0.00524  0.19310  1.0000
  H   H94       1.0  0.48026  0.07441  0.42438  1.0000
  H   H95       1.0  0.49192  0.03125  0.23496  1.0000
  S   S17       1.0  0.27363  0.00504  0.21868  1.0000
  H   H96       1.0  0.29743  0.00232  0.29463  1.0000
  H   H97       1.0  0.49396  0.28535  0.24449  1.0000
  C   C55       1.0  0.01309  0.27319  0.32897  1.0000
  C   C56       1.0  0.49409  0.02461  0.20408  1.0000
  H   H98       1.0  0.45784  0.00172  0.31522  1.0000
  C   C57       1.0  0.10364  0.11313  0.49304  1.0000
  C   C58       1.0  0.41720  0.28891  0.88255  1.0000
  Fe  Fe11      1.0  0.32376  0.99782  0.72086  1.0000
  H   H99       1.0  0.00801  0.17571  0.60548  1.0000
  S   S18       1.0  0.02781  0.31751  0.79719  1.0000
  Fe  Fe12      1.0  0.47599  0.13906  0.64798  1.0000
  S   S19       1.0  0.47239  0.17505  0.61792  1.0000
  S   S20       1.0  0.45095  0.10738  0.64126  1.0000
  N   N4        1.0  0.32727  0.07027  0.63397  1.0000
  H   H100      1.0  0.35374  0.06705  0.58477  1.0000
  H   H101      1.0  0.29178  0.08677  0.62873  1.0000
  C   C59       1.0  0.48543  0.23068  0.82137  1.0000
  H   H102      1.0  0.09995  0.16039  0.63086  1.0000
  H   H103      1.0  0.43337  0.02473  0.67604  1.0000
  Fe  Fe13      1.0  0.35526  0.03629  0.75811  1.0000
  S   S21       1.0  0.36633  0.07548  0.75937  1.0000
  S   S22       1.0  0.31712  0.02440  0.77162  1.0000
  C   C60       1.0  0.39051  0.08406  0.72755  1.0000
  C   C61       1.0  0.39850  0.06916  0.69575  1.0000
  C   C62       1.0  0.41678  0.07684  0.66935  1.0000
  C   C63       1.0  0.42788  0.09909  0.67526  1.0000
  C   C64       1.0  0.42034  0.11385  0.70755  1.0000
  C   C65       1.0  0.40146  0.10645  0.73335  1.0000
  H   H104      1.0  0.39038  0.05188  0.69106  1.0000
  H   H105      1.0  0.42246  0.06543  0.64427  1.0000
  H   H106      1.0  0.42876  0.13108  0.71225  1.0000
  H   H107      1.0  0.39535  0.11810  0.75790  1.0000
  H   H108      1.0  0.40006  0.28950  0.77012  1.0000
  H   H109      1.0  0.31653  0.01325  0.58987  1.0000
  H   H110      1.0  0.04517  0.15460  0.56960  1.0000
  H   H111      1.0  0.30777  0.07590  0.73381  1.0000
  C   C66       1.0  0.02638  0.32180  0.97640  1.0000
  H   H112      1.0  0.43775  0.02322  0.79122  1.0000
  C   C67       1.0  0.01817  0.32758  0.93858  1.0000
  C   C68       1.0  0.45191  0.01681  0.67651  1.0000
  H   H113      1.0  0.35479  0.11105  0.60570  1.0000
  H   H114      1.0  0.32647  0.09046  0.55585  1.0000
  C   C69       1.0  0.49108  0.25490  0.82983  1.0000
  H   H115      1.0  0.33424  0.09422  0.68391  1.0000
  H   H116      1.0  0.42819  0.28178  0.79009  1.0000
  C   C70       1.0  0.01990  0.16195  0.61858  1.0000
  H   H117      1.0  0.04342  0.19584  0.54716  1.0000
  H   H118      1.0  0.29069  0.08723  0.69450  1.0000
  C   C71       1.0  0.35274  0.07176  0.61677  1.0000
  S   S23       1.0  0.46659  0.31089  0.95962  1.0000
  C   C72       1.0  0.31057  0.08873  0.61664  1.0000
  S   S24       1.0  0.20711  0.02263  0.57828  1.0000
  N   N5        1.0  0.42213  0.31090  0.85802  1.0000
  C   C73       1.0  0.25305  0.00877  0.79329  1.0000
  C   C74       1.0  0.36489  0.09654  0.62049  1.0000
  C   C75       1.0  0.23958  0.02418  0.63819  1.0000
  H   H119      1.0  0.31577  0.10737  0.62527  1.0000
  H   H120      1.0  0.41948  0.24980  0.88466  1.0000
  C   C76       1.0  0.26001  0.01666  0.65889  1.0000
  H   H121      1.0  0.42565  0.02350  0.74244  1.0000
  H   H122      1.0  0.44099  0.26171  0.85065  1.0000
  C   C77       1.0  0.23316  0.01225  0.60308  1.0000
  H   H123      1.0  0.26443  0.02591  0.68594  1.0000
  H   H124      1.0  0.09228  0.14169  0.58860  1.0000
  C   C78       1.0  0.32817  0.07554  0.67778  1.0000
  C   C79       1.0  0.49189  0.08233  0.71954  1.0000
  H   H125      1.0  0.06643  0.17804  0.66300  1.0000
  H   H126      1.0  0.47430  0.18078  0.50470  1.0000
  H   H127      1.0  0.02793  0.20775  0.58944  1.0000
  Fe  Fe14      1.0  0.00233  0.31155  0.74730  1.0000
  H   H128      1.0  0.48992  0.08247  0.68708  1.0000
  C   C80       1.0  0.43246  0.03486  0.76651  1.0000
  H   H129      1.0  0.38805  0.30510  0.83055  1.0000
  H   H130      1.0  0.42791  0.28944  0.90973  1.0000
  C   C81       1.0  0.49585  0.05641  0.73471  1.0000
  H   H131      1.0  0.29765  0.04537  0.62813  1.0000
  H   H132      1.0  0.36464  0.05817  0.63081  1.0000
  H   H133      1.0  0.47991  0.20333  0.77610  1.0000
  C   C82       1.0  0.30417  0.07314  0.70200  1.0000
  H   H134      1.0  0.45173  0.00082  0.69554  1.0000
  H   H135      1.0  0.34627  0.02412  0.59540  1.0000
  H   H136      1.0  0.47626  0.09195  0.73454  1.0000
  H   H137      1.0  0.05543  0.14731  0.61708  1.0000
  C   C83       1.0  0.42218  0.26407  0.86235  1.0000
  C   C84       1.0  0.32719  0.02999  0.59207  1.0000
  C   C85       1.0  0.47023  0.03612  0.68794  1.0000
  H   H138      1.0  0.04273  0.31101  0.97871  1.0000
  H   H139      1.0  0.34161  0.06325  0.69110  1.0000
  H   H140      1.0  0.36170  0.03181  0.96941  1.0000
  C   C86       1.0  0.48848  0.23750  0.75040  1.0000
  C   C87       1.0  0.34332  0.01121  0.92538  1.0000
  H   H141      1.0  0.39794  0.28858  0.89287  1.0000
  S   S25       1.0  0.36057  0.01190  0.70485  1.0000
  H   H142      1.0  0.30076  0.07069  0.56136  1.0000
  H   H143      1.0  0.22853  0.03930  0.64952  1.0000
  N   N6        1.0  0.05924  0.18504  0.60176  1.0000
  C   C88       1.0  0.08388  0.18048  0.58196  1.0000
  Fe  Fe15      1.0  0.49191  0.18997  0.67083  1.0000
  H   H144      1.0  0.45879  0.06083  0.78044  1.0000
  C   C89       1.0  0.06250  0.19365  0.64379  1.0000
  H   H145      1.0  0.32556  0.03956  0.56393  1.0000
  H   H146      1.0  0.06481  0.23554  0.60042  1.0000
  H   H147      1.0  0.32210  0.03346  0.65407  1.0000
  C   C90       1.0  0.04141  0.20862  0.66407  1.0000
  H   H148      1.0  0.45479  0.29572  0.82851  1.0000
  H   H149      1.0  0.09518  0.19681  0.58415  1.0000
  C   C91       1.0  0.41575  0.29716  0.78506  1.0000
  H   H150      1.0  0.45956  0.30998  0.87383  1.0000
  H   H151      1.0  0.35139  0.02071  0.90073  1.0000
  C   C92       1.0  0.48433  0.22197  0.78200  1.0000
  H   H152      1.0  0.11789  0.16046  0.58575  1.0000
  H   H153      1.0  0.07851  0.20546  0.64503  1.0000
  C   C93       1.0  0.05912  0.22769  0.57204  1.0000
  S   S26       1.0  0.00008  0.16310  0.51894  1.0000
  H   H154      1.0  0.46663  0.00345  0.75238  1.0000
  H   H155      1.0  0.40925  0.26050  0.83889  1.0000
  H   H156      1.0  0.25404  0.02677  0.77935  1.0000
  H   H157      1.0  0.41697  0.04636  0.77800  1.0000
  C   C94       1.0  0.30881  0.08777  0.57144  1.0000
  C   C95       1.0  0.31772  0.04498  0.62857  1.0000
  C   C96       1.0  0.45320  0.05137  0.75302  1.0000
  H   H158      1.0  0.04063  0.20478  0.69618  1.0000
  H   H159      1.0  0.02337  0.20481  0.65332  1.0000
  H   H160      1.0  0.04471  0.22832  0.66230  1.0000
  C   C97       1.0  0.34913  0.01748  0.96448  1.0000
  N   N7        1.0  0.47484  0.03958  0.73125  1.0000
  C   C98       1.0  0.04631  0.20339  0.57733  1.0000
  H   H161      1.0  0.04648  0.24092  0.55911  1.0000
  H   H162      1.0  0.45691  0.00950  0.64648  1.0000
  H   H163      1.0  0.36785  0.10190  0.65159  1.0000
  H   H164      1.0  0.38312  0.09527  0.60564  1.0000
  H   H165      1.0  0.29655  0.10266  0.56248  1.0000
  H   H166      1.0  0.29633  0.05499  0.69889  1.0000
  C   C99       1.0  0.09911  0.15951  0.59823  1.0000
  H   H167      1.0  0.08233  0.17684  0.54972  1.0000
  H   H168      1.0  0.07491  0.22578  0.55097  1.0000
  C   C100      1.0  0.44874  0.31149  0.84699  1.0000
  S   S27       1.0  0.48657  0.22773  0.70009  1.0000
  C   C101      1.0  0.40647  0.31156  0.82254  1.0000
  S   S28       1.0  0.49238  0.26456  0.88030  1.0000
  H   H169      1.0  0.48192  0.21852  0.84549  1.0000
  C   C102      1.0  0.04586  0.16156  0.60065  1.0000
  H   H170      1.0  0.10870  0.12371  0.51844  1.0000
  S   S29       1.0  0.37218  0.01056  0.79985  1.0000
  H   H171      1.0  0.02819  0.32122  0.91225  1.0000
  H   H172      1.0  0.42430  0.30941  0.76324  1.0000
  H   H173      1.0  0.01972  0.16420  0.65120  1.0000
  H   H174      1.0  0.46345  0.05331  0.67544  1.0000
  H   H175      1.0  0.44504  0.06569  0.73487  1.0000
  H   H176      1.0  0.23484  0.00771  0.80774  1.0000
  C   C103      1.0  0.48174  0.01627  0.75082  1.0000
  H   H177      1.0  0.01173  0.14416  0.61247  1.0000
  Fe  Fe16      1.0  0.18976  0.00916  0.52121  1.0000
  H   H178      1.0  0.26699  0.00843  0.81594  1.0000
  H   H179      1.0  0.00868  0.28211  0.57590  1.0000
  H   H180      1.0  0.00895  0.29698  0.64564  1.0000
  C   C104      1.0  0.00214  0.27067  0.59940  1.0000
  H   H181      1.0  0.48590  0.01987  0.78231  1.0000
  S   S30       1.0  0.49225  0.15458  0.70269  1.0000
  S   S31       1.0  0.14915  0.00931  0.51542  1.0000
  H   H182      1.0  0.38725  0.32242  0.92637  1.0000
  H   H183      1.0  0.48733  0.03240  0.67031  1.0000
  C   C105      1.0  0.00226  0.27921  0.63894  1.0000
  H   H184      1.0  0.39704  0.08732  0.98609  1.0000
  C   C106      1.0  0.49380  0.26180  0.75887  1.0000
  C   C107      1.0  0.49539  0.27040  0.79823  1.0000
  H   H185      1.0  0.47585  0.33079  0.81250  1.0000
  H   H186      1.0  0.13374  0.08770  0.49687  1.0000
  H   H187      1.0  0.40395  0.33060  0.81300  1.0000
  S   S32       1.0  0.28625  0.49625  0.09451  1.0000
  C   C108      1.0  0.05546  0.36247  0.35542  1.0000
  Fe  Fe17      1.0  0.16780  0.51584  0.24305  1.0000
  S   S33       1.0  0.13049  0.50296  0.23075  1.0000
  S   S34       1.0  0.18801  0.52948  0.18771  1.0000
  Fe  Fe18      1.0  0.15959  0.50817  0.33374  1.0000
  S   S35       1.0  0.12240  0.49394  0.32620  1.0000
  S   S36       1.0  0.17523  0.51594  0.39459  1.0000
  Fe  Fe19      1.0  0.13866  0.47363  0.27313  1.0000
  S   S37       1.0  0.13211  0.43478  0.25491  1.0000
  Fe  Fe20      1.0  0.11770  0.52464  0.28417  1.0000
  S   S38       1.0  0.08330  0.54738  0.29218  1.0000
  S   S39       1.0  0.17667  0.48530  0.28342  1.0000
  S   S40       1.0  0.15413  0.54004  0.29385  1.0000
  H   H188      1.0  0.00184  0.45860  0.19165  1.0000
  S   S41       1.0  0.02719  0.41247  0.19866  1.0000
  H   H189      1.0  0.03330  0.33739  0.38896  1.0000
  Fe  Fe21      1.0  0.01563  0.64022  0.16456  1.0000
  S   S42       1.0  0.04619  0.61279  0.15371  1.0000
  C   C109      1.0  0.14039  0.48466  0.48935  1.0000
  C   C110      1.0  0.16609  0.50694  0.44329  1.0000
  C   C111      1.0  0.14788  0.49021  0.45026  1.0000
  H   H190      1.0  0.05604  0.40853  0.33792  1.0000
  H   H191      1.0  0.44962  0.42795  0.01712  1.0000
  H   H192      1.0  0.41856  0.48133  0.06395  1.0000
  C   C112      1.0  0.08367  0.52939  0.40260  1.0000
  H   H193      1.0  0.13948  0.48163  0.42552  1.0000
  Fe  Fe22      1.0  0.30026  0.49871  0.03010  1.0000
  S   S43       1.0  0.43291  0.62786  0.02215  1.0000
  H   H194      1.0  0.19113  0.53051  0.47115  1.0000
  C   C113      1.0  0.10365  0.42934  0.23555  1.0000
  C   C114      1.0  0.08523  0.44696  0.23870  1.0000
  C   C115      1.0  0.06207  0.44169  0.22601  1.0000
  C   C116      1.0  0.05716  0.41880  0.21012  1.0000
  C   C117      1.0  0.07576  0.40137  0.20581  1.0000
  C   C118      1.0  0.09899  0.40667  0.21852  1.0000
  H   H195      1.0  0.08867  0.46451  0.25169  1.0000
  H   H196      1.0  0.04781  0.45531  0.22922  1.0000
  H   H197      1.0  0.07214  0.38374  0.19329  1.0000
  H   H198      1.0  0.11326  0.39303  0.21578  1.0000
  C   C119      1.0  0.07351  0.56570  0.25352  1.0000
  C   C120      1.0  0.08562  0.56546  0.21651  1.0000
  C   C121      1.0  0.07708  0.58002  0.18619  1.0000
  C   C122      1.0  0.05652  0.59504  0.19274  1.0000
  C   C123      1.0  0.04452  0.59540  0.22984  1.0000
  C   C124      1.0  0.05296  0.58071  0.26007  1.0000
  H   H199      1.0  0.10149  0.55398  0.21119  1.0000
  H   H200      1.0  0.08647  0.57966  0.15758  1.0000
  H   H201      1.0  0.02863  0.60681  0.23515  1.0000
  H   H202      1.0  0.04348  0.58095  0.28860  1.0000
  H   H203      1.0  0.00314  0.50332  0.19355  1.0000
  H   H204      1.0  0.10788  0.39275  0.31084  1.0000
  H   H205      1.0  0.10075  0.59919  0.43949  1.0000
  C   C125      1.0  0.25824  0.50487  0.11894  1.0000
  C   C126      1.0  0.24166  0.52071  0.10225  1.0000
  C   C127      1.0  0.22035  0.52804  0.12380  1.0000
  C   C128      1.0  0.21507  0.51931  0.16192  1.0000
  C   C129      1.0  0.23135  0.50301  0.17822  1.0000
  C   C130      1.0  0.25288  0.49603  0.15697  1.0000
  H   H206      1.0  0.24553  0.52775  0.07316  1.0000
  H   H207      1.0  0.20790  0.54066  0.11090  1.0000
  H   H208      1.0  0.22767  0.49627  0.20757  1.0000
  H   H209      1.0  0.26564  0.48390  0.17028  1.0000
  N   N8        1.0  0.11312  0.56327  0.42133  1.0000
  C   C131      1.0  0.04351  0.33769  0.36009  1.0000
  C   C132      1.0  0.12371  0.56523  0.37986  1.0000
  C   C133      1.0  0.10471  0.53779  0.42733  1.0000
  C   C134      1.0  0.09302  0.58152  0.43084  1.0000
  H   H210      1.0  0.07299  0.36079  0.37012  1.0000
  C   C135      1.0  0.07077  0.33311  0.27146  1.0000
  Fe  Fe23      1.0  0.00928  0.33462  0.11917  1.0000
  H   H211      1.0  0.05709  0.59042  0.41058  1.0000
  H   H212      1.0  0.38996  0.47498  0.04484  1.0000
  H   H213      1.0  0.13792  0.55095  0.37416  1.0000
  H   H214      1.0  0.11996  0.52478  0.42100  1.0000
  H   H215      1.0  0.44230  0.53625  0.00789  1.0000
  C   C136      1.0  0.38237  0.57565  0.00921  1.0000
  H   H216      1.0  0.07406  0.57299  0.37447  1.0000
  H   H217      1.0  0.45356  0.65180  0.11116  1.0000
  H   H218      1.0  0.01995  0.58688  0.04276  1.0000
  S   S44       1.0  0.49301  0.65878  0.04216  1.0000
  C   C137      1.0  0.06812  0.39737  0.31752  1.0000
  H   H219      1.0  0.06156  0.59505  0.02350  1.0000
  H   H220      1.0  0.01329  0.61742  0.05732  1.0000
  H   H221      1.0  0.08770  0.53054  0.37050  1.0000
  C   C138      1.0  0.44514  0.44725  0.02446  1.0000
  H   H222      1.0  0.14948  0.55593  0.44032  1.0000
  H   H223      1.0  0.09650  0.61995  0.01594  1.0000
  N   N9        1.0  0.05938  0.37172  0.31410  1.0000
  C   C139      1.0  0.07858  0.35684  0.29129  1.0000
  H   H224      1.0  0.04023  0.37935  0.26125  1.0000
  H   H225      1.0  0.46208  0.45728  0.01996  1.0000
  H   H226      1.0  0.09792  0.61007  0.08249  1.0000
  C   C140      1.0  0.07557  0.58727  0.39740  1.0000
  H   H227      1.0  0.05496  0.60578  0.07194  1.0000
  C   C141      1.0  0.12770  0.56350  0.49332  1.0000
  H   H228      1.0  0.36890  0.56726  0.02810  1.0000
  H   H229      1.0  0.08052  0.50999  0.40846  1.0000
  C   C142      1.0  0.05145  0.60962  0.04056  1.0000
  H   H230      1.0  0.09852  0.53497  0.45845  1.0000
  C   C143      1.0  0.13343  0.56757  0.44898  1.0000
  N   N10       1.0  0.41758  0.48221  0.99997  1.0000
  H   H231      1.0  0.38611  0.52128  0.03052  1.0000
  H   H232      1.0  0.06753  0.40643  0.28857  1.0000
  H   H233      1.0  0.09764  0.42012  0.33458  1.0000
  C   C144      1.0  0.17693  0.51765  0.47606  1.0000
  H   H234      1.0  0.37881  0.38922  0.01074  1.0000
  H   H235      1.0  0.09625  0.39279  0.36176  1.0000
  C   C145      1.0  0.39806  0.51278  0.05191  1.0000
  C   C146      1.0  0.40606  0.48659  0.04067  1.0000
  H   H236      1.0  0.46961  0.66379  0.15134  1.0000
  H   H237      1.0  0.01850  0.60931  0.00554  1.0000
  N   N11       1.0  0.18171  0.44202  0.14624  1.0000
  C   C147      1.0  0.20335  0.43649  0.17064  1.0000
  C   C148      1.0  0.19082  0.44288  0.10370  1.0000
  C   C149      1.0  0.16447  0.42142  0.15088  1.0000
  C   C150      1.0  0.17003  0.46552  0.16123  1.0000
  C   C151      1.0  0.19799  0.43152  0.21477  1.0000
  C   C152      1.0  0.21007  0.46199  0.09470  1.0000
  C   C153      1.0  0.14072  0.42350  0.12899  1.0000
  C   C154      1.0  0.15489  0.48000  0.13185  1.0000
  H   H238      1.0  0.21385  0.42055  0.15807  1.0000
  H   H239      1.0  0.21608  0.45181  0.17002  1.0000
  H   H240      1.0  0.17612  0.44599  0.08316  1.0000
  H   H241      1.0  0.19885  0.42500  0.09402  1.0000
  H   H242      1.0  0.17358  0.40399  0.14151  1.0000
  H   H243      1.0  0.15861  0.41932  0.18236  1.0000
  H   H244      1.0  0.15828  0.46238  0.18798  1.0000
  H   H245      1.0  0.18407  0.47808  0.17125  1.0000
  H   H246      1.0  0.19088  0.41311  0.21909  1.0000
  H   H247      1.0  0.21503  0.43245  0.23090  1.0000
  H   H248      1.0  0.18520  0.44501  0.22871  1.0000
  H   H249      1.0  0.20469  0.48004  0.10696  1.0000
  H   H250      1.0  0.22789  0.45662  0.10599  1.0000
  H   H251      1.0  0.21270  0.46376  0.06220  1.0000
  H   H252      1.0  0.14360  0.42522  0.09665  1.0000
  H   H253      1.0  0.12905  0.43853  0.14146  1.0000
  H   H254      1.0  0.13038  0.40673  0.13374  1.0000
  H   H255      1.0  0.13885  0.48818  0.14799  1.0000
  H   H256      1.0  0.14784  0.46946  0.10705  1.0000
  H   H257      1.0  0.16517  0.49561  0.12045  1.0000
  H   H258      1.0  0.38750  0.51262  0.08048  1.0000
  N   N12       1.0  0.06051  0.63420  0.02971  1.0000
  H   H259      1.0  0.08040  0.60447  0.38293  1.0000
  H   H260      1.0  0.11038  0.56162  0.35726  1.0000
  S   S45       1.0  0.34052  0.49355  0.01898  1.0000
  C   C155      1.0  0.03644  0.37258  0.29157  1.0000
  H   H261      1.0  0.04502  0.37577  0.37474  1.0000
  H   H262      1.0  0.12362  0.60531  0.37936  1.0000
  C   C156      1.0  0.02422  0.60591  0.03594  1.0000
  C   C157      1.0  0.39730  0.59363  0.02477  1.0000
  S   S46       1.0  0.03384  0.33981  0.17068  1.0000
  C   C158      1.0  0.09395  0.40048  0.33216  1.0000
  C   C159      1.0  0.13524  0.58961  0.36979  1.0000
  H   H263      1.0  0.09559  0.65123  0.02386  1.0000
  H   H264      1.0  0.43780  0.65909  0.15784  1.0000
  H   H265      1.0  0.13826  0.59055  0.33721  1.0000
  H   H266      1.0  0.39512  0.59885  0.05565  1.0000
  H   H267      1.0  0.08661  0.36753  0.26673  1.0000
  H   H268      1.0  0.15322  0.59109  0.38284  1.0000
  H   H269      1.0  0.41377  0.52436  0.05682  1.0000
  H   H270      1.0  0.08193  0.57575  0.45700  1.0000
  H   H271      1.0  0.06664  0.53930  0.41113  1.0000
  C   C160      1.0  0.08738  0.63430  0.03483  1.0000
  H   H272      1.0  0.09378  0.35216  0.31048  1.0000
  C   C161      1.0  0.09585  0.62974  0.07709  1.0000
  Fe  Fe24      1.0  0.01422  0.37536  0.18072  1.0000
  H   H273      1.0  0.01986  0.40783  0.30993  1.0000
  H   H274      1.0  0.43912  0.44780  0.05605  1.0000
  H   H275      1.0  0.13979  0.58647  0.44693  1.0000
  H   H276      1.0  0.05875  0.33666  0.24671  1.0000
  H   H277      1.0  0.45094  0.49690  0.01959  1.0000
  H   H278      1.0  0.02905  0.35441  0.28642  1.0000
  H   H279      1.0  0.02991  0.33370  0.33808  1.0000
  H   H280      1.0  0.11343  0.63854  0.08111  1.0000
  C   C162      1.0  0.01566  0.38833  0.31051  1.0000
  H   H281      1.0  0.08358  0.63769  0.10060  1.0000
  H   H282      1.0  0.40938  0.44412  0.00314  1.0000
  H   H283      1.0  0.99993  0.49215  0.24230  1.0000
  H   H284      1.0  0.41698  0.66015  0.08685  1.0000
  H   H285      1.0  0.01078  0.38275  0.34099  1.0000
  H   H286      1.0  0.02839  0.65501  0.04829  1.0000
  H   H287      1.0  0.04668  0.64741  0.08727  1.0000
  C   C163      1.0  0.04763  0.65304  0.05595  1.0000
  C   C164      1.0  0.41494  0.60494  0.00078  1.0000
  Fe  Fe25      1.0  0.46480  0.65011  0.99806  1.0000
  H   H288      1.0  0.99935  0.38610  0.29294  1.0000
  C   C165      1.0  0.42518  0.45580  0.99705  1.0000
  H   H289      1.0  0.12959  0.45245  0.83319  1.0000
  H   H290      1.0  0.19546  0.46381  0.85185  1.0000
  C   C166      1.0  0.15107  0.49553  0.52213  1.0000
  H   H291      1.0  0.03581  0.56236  0.74015  1.0000
  Fe  Fe26      1.0  0.33743  0.52007  0.96983  1.0000
  S   S47       1.0  0.33008  0.49115  0.92383  1.0000
  S   S48       1.0  0.36663  0.54616  0.94757  1.0000
  H   H292      1.0  0.45822  0.34994  0.84566  1.0000
  C   C167      1.0  0.16947  0.51206  0.51520  1.0000
  H   H293      1.0  0.41618  0.52983  0.98073  1.0000
  C   C168      1.0  0.39020  0.33513  0.90177  1.0000
  Fe  Fe27      1.0  0.29061  0.49717  0.94131  1.0000
  S   S49       1.0  0.25686  0.50403  0.90515  1.0000
  H   H294      1.0  0.04743  0.47786  0.61813  1.0000
  C   C169      1.0  0.06303  0.62028  0.95606  1.0000
  Fe  Fe28      1.0  0.47570  0.34924  0.94444  1.0000
  S   S50       1.0  0.45159  0.37982  0.92187  1.0000
  H   H295      1.0  0.21225  0.41926  0.73527  1.0000
  Fe  Fe29      1.0  0.04033  0.34983  0.76277  1.0000
  S   S51       1.0  0.07912  0.35968  0.74776  1.0000
  Fe  Fe30      1.0  0.14509  0.53893  0.69847  1.0000
  S   S52       1.0  0.17656  0.52507  0.65955  1.0000
  S   S53       1.0  0.13688  0.57760  0.71836  1.0000
  Fe  Fe31      1.0  0.12726  0.48857  0.71604  1.0000
  S   S54       1.0  0.15691  0.47063  0.67869  1.0000
  S   S55       1.0  0.09732  0.47217  0.75332  1.0000
  Fe  Fe32      1.0  0.18142  0.49744  0.70745  1.0000
  S   S56       1.0  0.21738  0.48459  0.73221  1.0000
  Fe  Fe33      1.0  0.14962  0.49951  0.63388  1.0000
  S   S57       1.0  0.14034  0.48797  0.57070  1.0000
  S   S58       1.0  0.15199  0.51326  0.74742  1.0000
  S   S59       1.0  0.11797  0.51546  0.67022  1.0000
  H   H296      1.0  0.04805  0.37664  0.66524  1.0000
  S   S60       1.0  0.03042  0.61481  0.69033  1.0000
  C   C170      1.0  0.10766  0.58868  0.70975  1.0000
  C   C171      1.0  0.09493  0.57986  0.67793  1.0000
  C   C172      1.0  0.07136  0.58838  0.67206  1.0000
  C   C173      1.0  0.06024  0.60546  0.69830  1.0000
  C   C174      1.0  0.07306  0.61466  0.72979  1.0000
  C   C175      1.0  0.09684  0.60642  0.73526  1.0000
  H   H297      1.0  0.10332  0.56660  0.65767  1.0000
  H   H298      1.0  0.06158  0.58141  0.64743  1.0000
  H   H299      1.0  0.06463  0.62796  0.74998  1.0000
  H   H300      1.0  0.10674  0.61340  0.75975  1.0000
  C   C176      1.0  0.09429  0.44058  0.75367  1.0000
  C   C177      1.0  0.07736  0.43063  0.78020  1.0000
  C   C178      1.0  0.07321  0.40569  0.77949  1.0000
  C   C179      1.0  0.08595  0.39051  0.75219  1.0000
  C   C180      1.0  0.10359  0.40033  0.72665  1.0000
  C   C181      1.0  0.10768  0.42535  0.72722  1.0000
  H   H301      1.0  0.06712  0.44226  0.80102  1.0000
  H   H302      1.0  0.06000  0.39822  0.79990  1.0000
  H   H303      1.0  0.11351  0.38865  0.70549  1.0000
  H   H304      1.0  0.12073  0.43286  0.70656  1.0000
  H   H305      1.0  0.11590  0.65753  0.67680  1.0000
  C   C182      1.0  0.38845  0.39570  0.98474  1.0000
  C   C183      1.0  0.39104  0.42300  0.93000  1.0000
  C   C184      1.0  0.41334  0.41198  0.91773  1.0000
  C   C185      1.0  0.42345  0.39292  0.93905  1.0000
  H   H306      1.0  0.03256  0.50066  0.82613  1.0000
  H   H307      1.0  0.38335  0.43741  0.91305  1.0000
  H   H308      1.0  0.42280  0.41823  0.89141  1.0000
  C   C186      1.0  0.24648  0.49810  0.85681  1.0000
  C   C187      1.0  0.26026  0.48509  0.82782  1.0000
  C   C188      1.0  0.25115  0.48127  0.78984  1.0000
  C   C189      1.0  0.22830  0.49054  0.78020  1.0000
  C   C190      1.0  0.21461  0.50365  0.80915  1.0000
  C   C191      1.0  0.22362  0.50730  0.84717  1.0000
  H   H309      1.0  0.27785  0.47787  0.83467  1.0000
  H   H310      1.0  0.26189  0.47105  0.76773  1.0000
  H   H311      1.0  0.19703  0.51092  0.80234  1.0000
  H   H312      1.0  0.21280  0.51744  0.86928  1.0000
  H   H313      1.0  0.05904  0.62724  0.92636  1.0000
  C   C192      1.0  0.41747  0.59792  0.96090  1.0000
  C   C193      1.0  0.40246  0.58004  0.94531  1.0000
  C   C194      1.0  0.38478  0.56881  0.96924  1.0000
  H   H314      1.0  0.17796  0.52053  0.53995  1.0000
  H   H315      1.0  0.06821  0.51198  0.79591  1.0000
  H   H316      1.0  0.43087  0.60640  0.94199  1.0000
  H   H317      1.0  0.40460  0.57491  0.91438  1.0000
  N   N13       1.0  0.05006  0.54732  0.79331  1.0000
  H   H318      1.0  0.13977  0.38564  0.79946  1.0000
  H   H319      1.0  0.09858  0.53798  0.76083  1.0000
  H   H320      1.0  0.06983  0.58046  0.80206  1.0000
  H   H321      1.0  0.08259  0.61577  0.95580  1.0000
  H   H322      1.0  0.06148  0.53230  0.69409  1.0000
  C   C195      1.0  0.02220  0.51030  0.80358  1.0000
  H   H323      1.0  0.19296  0.43558  0.87853  1.0000
  C   C196      1.0  0.08244  0.66125  0.64414  1.0000
  C   C197      1.0  0.37848  0.41497  0.96373  1.0000
  H   H324      1.0  0.02628  0.47314  0.70543  1.0000
  C   C198      1.0  0.16137  0.41205  0.83156  1.0000
  C   C199      1.0  0.03930  0.41321  0.68618  1.0000
  C   C200      1.0  0.02572  0.53787  0.80659  1.0000
  N   N14       1.0  0.30114  0.56236  0.86070  1.0000
  C   C201      1.0  0.32042  0.56554  0.89055  1.0000
  C   C202      1.0  0.30333  0.53667  0.84498  1.0000
  C   C203      1.0  0.27700  0.56586  0.88247  1.0000
  C   C204      1.0  0.30454  0.58088  0.82881  1.0000
  C   C205      1.0  0.31986  0.58982  0.91384  1.0000
  C   C206      1.0  0.32855  0.52882  0.82776  1.0000
  C   C207      1.0  0.25441  0.56378  0.85775  1.0000
  C   C208      1.0  0.29543  0.57437  0.78746  1.0000
  H   H325      1.0  0.31958  0.55087  0.91262  1.0000
  H   H326      1.0  0.33879  0.56397  0.87610  1.0000
  H   H327      1.0  0.29018  0.53298  0.82189  1.0000
  H   H328      1.0  0.29875  0.52377  0.86883  1.0000
  H   H329      1.0  0.27527  0.55276  0.90702  1.0000
  H   H330      1.0  0.27527  0.58408  0.89674  1.0000
  H   H331      1.0  0.29567  0.59841  0.83824  1.0000
  H   H332      1.0  0.32400  0.58509  0.82399  1.0000
  H   H333      1.0  0.30535  0.59030  0.93740  1.0000
  H   H334      1.0  0.33713  0.59167  0.92915  1.0000
  H   H335      1.0  0.31800  0.60560  0.89444  1.0000
  H   H336      1.0  0.34100  0.52470  0.85178  1.0000
  H   H337      1.0  0.32699  0.51192  0.80991  1.0000
  H   H338      1.0  0.33676  0.54268  0.80857  1.0000
  H   H339      1.0  0.23828  0.56272  0.87813  1.0000
  H   H340      1.0  0.25453  0.54733  0.83877  1.0000
  H   H341      1.0  0.25179  0.58011  0.83977  1.0000
  H   H342      1.0  0.30662  0.55980  0.77256  1.0000
  H   H343      1.0  0.29689  0.59047  0.76845  1.0000
  H   H344      1.0  0.27635  0.56898  0.78787  1.0000
  H   H345      1.0  0.06939  0.52965  0.83938  1.0000
  S   S61       1.0  0.01343  0.37596  0.79174  1.0000
  C   C209      1.0  0.16143  0.45020  0.79183  1.0000
  H   H346      1.0  0.03014  0.59517  0.77725  1.0000
  N   N15       1.0  0.17446  0.42670  0.80061  1.0000
  S   S62       1.0  0.29137  0.46868  0.98804  1.0000
  H   H347      1.0  0.37642  0.33264  0.87933  1.0000
  H   H348      1.0  0.43202  0.45078  0.96670  1.0000
  H   H349      1.0  0.10117  0.55565  0.80606  1.0000
  H   H350      1.0  0.00285  0.50643  0.80987  1.0000
  H   H351      1.0  0.03625  0.64428  0.98373  1.0000
  H   H352      1.0  0.02252  0.40546  0.69918  1.0000
  H   H353      1.0  0.42857  0.33378  0.90913  1.0000
  C   C210      1.0  0.20195  0.44484  0.85344  1.0000
  H   H354      1.0  0.41916  0.34988  0.86736  1.0000
  H   H355      1.0  0.06304  0.43688  0.62714  1.0000
  C   C211      1.0  0.02965  0.45382  0.71141  1.0000
  H   H356      1.0  0.18389  0.39295  0.76936  1.0000
  H   H357      1.0  0.07813  0.47772  0.63122  1.0000
  C   C212      1.0  0.13704  0.40171  0.81940  1.0000
  N   N16       1.0  0.03518  0.43908  0.67408  1.0000
  H   H358      1.0  0.38839  0.50299  0.97438  1.0000
  C   C213      1.0  0.43523  0.52453  0.98418  1.0000
  H   H359      1.0  0.01110  0.48042  0.64903  1.0000
  C   C214      1.0  0.09596  0.53798  0.79349  1.0000
  H   H360      1.0  0.02159  0.43392  0.61548  1.0000
  H   H361      1.0  0.22140  0.44578  0.86008  1.0000
  H   H362      1.0  0.11729  0.64410  0.62873  1.0000
  H   H363      1.0  0.12666  0.39568  0.84604  1.0000
  C   C215      1.0  0.05950  0.47407  0.64268  1.0000
  H   H364      1.0  0.12580  0.41528  0.80462  1.0000
  H   H365      1.0  0.04560  0.45380  0.73036  1.0000
  S   S63       1.0  0.49185  0.64101  0.94849  1.0000
  C   C216      1.0  0.03250  0.59052  0.80855  1.0000
  C   C217      1.0  0.14619  0.46255  0.82598  1.0000
  H   H366      1.0  0.00097  0.42639  0.65453  1.0000
  H   H367      1.0  0.03672  0.39544  0.62746  1.0000
  C   C218      1.0  0.00793  0.44545  0.73721  1.0000
  H   H368      1.0  0.01506  0.58471  0.82204  1.0000
  C   C219      1.0  0.01487  0.43973  0.64566  1.0000
  H   H369      1.0  0.05591  0.48678  0.66789  1.0000
  H   H370      1.0  0.06143  0.51263  0.73403  1.0000
  H   H371      1.0  0.15866  0.40873  0.75052  1.0000
  C   C220      1.0  0.05133  0.55099  0.74934  1.0000
  H   H372      1.0  0.07549  0.64545  0.66058  1.0000
  H   H373      1.0  0.06745  0.39835  0.64408  1.0000
  H   H374      1.0  0.10887  0.52426  0.80442  1.0000
  H   H375      1.0  0.07375  0.44423  0.67461  1.0000
  H   H376      1.0  0.14006  0.48068  0.81644  1.0000
  C   C221      1.0  0.19971  0.43135  0.81366  1.0000
  H   H377      1.0  0.00313  0.45951  0.76014  1.0000
  H   H378      1.0  0.05518  0.56960  0.84570  1.0000
  C   C222      1.0  0.40804  0.48575  0.92590  1.0000
  C   C223      1.0  0.19278  0.42155  0.72940  1.0000
  H   H379      1.0  0.15625  0.46529  0.85313  1.0000
  C   C224      1.0  0.05849  0.44744  0.65477  1.0000
  H   H380      1.0  0.05250  0.41238  0.70981  1.0000
  H   H381      1.0  0.05240  0.60367  0.95979  1.0000
  C   C225      1.0  0.04836  0.39521  0.65330  1.0000
  C   C226      1.0  0.41624  0.33294  0.88396  1.0000
  C   C227      1.0  0.45724  0.33418  0.82506  1.0000
  C   C228      1.0  0.17670  0.41141  0.76314  1.0000
  H   H382      1.0  0.14271  0.57057  0.51069  1.0000
  H   H383      1.0  0.02164  0.54275  0.83831  1.0000
  H   H384      1.0  0.42006  0.50103  0.91948  1.0000
  H   H385      1.0  0.03706  0.60758  0.82415  1.0000
  C   C229      1.0  0.07012  0.53087  0.80655  1.0000
  H   H386      1.0  0.18870  0.44087  0.72433  1.0000
  Fe  Fe34      1.0  0.33151  0.46507  0.97419  1.0000
  H   H387      1.0  0.18961  0.41147  0.70148  1.0000
  H   H388      1.0  0.14875  0.44777  0.76742  1.0000
  H   H389      1.0  0.07849  0.65759  0.61265  1.0000
  H   H390      1.0  0.17444  0.46379  0.78055  1.0000
  H   H391      1.0  0.11087  0.57301  0.50411  1.0000
  H   H392      1.0  0.20984  0.44236  0.79167  1.0000
  H   H393      1.0  0.21013  0.41398  0.81544  1.0000
  H   H394      1.0  0.17288  0.39639  0.84014  1.0000
  H   H395      1.0  0.15776  0.42264  0.85937  1.0000
  H   H396      1.0  0.12678  0.54395  0.49995  1.0000
  H   H397      1.0  0.39229  0.48798  0.90688  1.0000
  H   H398      1.0  0.03816  0.65265  0.61335  1.0000
  C   C230      1.0  0.05155  0.52829  0.72230  1.0000
  H   H399      1.0  0.06727  0.56172  0.74062  1.0000
  C   C231      1.0  0.05311  0.57168  0.81332  1.0000
  C   C232      1.0  0.41088  0.38484  0.97271  1.0000
  H   H400      1.0  0.41729  0.46857  0.91651  1.0000
  Fe  Fe35      1.0  0.99933  0.34337  0.82386  1.0000
  Fe  Fe36      1.0  0.00956  0.64056  0.73212  1.0000
  H   H401      1.0  0.02705  0.50256  0.77400  1.0000
  C   C233      1.0  0.00089  0.46407  0.64211  1.0000
  S   S64       1.0  0.29783  0.52776  0.98434  1.0000
  H   H402      1.0  0.38724  0.35360  0.91476  1.0000
  S   S65       1.0  0.01735  0.34160  0.71138  1.0000
  H   H403      1.0  0.01105  0.54662  0.78992  1.0000
  C   C234      1.0  0.11020  0.66015  0.64606  1.0000
  H   H404      1.0  0.03289  0.52315  0.71554  1.0000
  H   H405      1.0  0.01246  0.42869  0.75316  1.0000
  H   H406      1.0  0.41833  0.37015  0.98936  1.0000
  S   S66       1.0  0.00150  0.64774  0.87936  1.0000
  H   H407      1.0  0.06509  0.65664  0.97821  1.0000
  C   C235      1.0  0.05565  0.63997  0.98733  1.0000
  H   H408      1.0  0.38466  0.47184  0.97221  1.0000
  H   H409      1.0  0.44562  0.33891  0.80040  1.0000
  C   C236      1.0  0.39874  0.48590  0.96949  1.0000
  C   C237      1.0  0.99687  0.34128  0.93499  1.0000
  S   S67       1.0  0.35032  0.42810  0.98073  1.0000
  H   H410      1.0  0.45119  0.48962  0.96845  1.0000
  H   H411      1.0  0.44513  0.52925  0.95632  1.0000
  C   C238      1.0  0.43955  0.49746  0.99326  1.0000
  H   H412      1.0  0.12625  0.47175  0.49426  1.0000
  H   H413      1.0  0.34360  0.91215  0.28617  1.0000
  C   C239      1.0  0.49131  0.76497  0.18262  1.0000
  H   H414      1.0  0.45976  0.94703  0.21334  1.0000
  C   C240      1.0  0.07528  0.88796  0.45507  1.0000
  H   H415      1.0  0.41467  0.68675  0.20112  1.0000
  H   H416      1.0  0.48107  0.78218  0.08839  1.0000
  H   H417      1.0  0.41088  0.74570  0.14174  1.0000
  Fe  Fe37      1.0  0.02270  0.84529  0.45953  1.0000
  H   H418      1.0  0.04165  0.77797  0.23525  1.0000
  S   S68       1.0  0.01791  0.80520  0.44851  1.0000
  H   H419      1.0  0.38657  0.70389  0.13282  1.0000
  H   H420      1.0  0.02098  0.79371  0.29818  1.0000
  N   N17       1.0  0.05102  0.81382  0.31996  1.0000
  S   S69       1.0  0.05596  0.86554  0.43564  1.0000
  H   H421      1.0  0.07790  0.78562  0.40000  1.0000
  H   H422      1.0  0.00485  0.84008  0.30282  1.0000
  Fe  Fe38      1.0  0.47177  0.86570  0.27957  1.0000
  S   S70       1.0  0.45234  0.90119  0.26779  1.0000
  S   S71       1.0  0.45856  0.82989  0.30160  1.0000
  Fe  Fe39      1.0  0.34841  0.96008  0.16864  1.0000
  S   S72       1.0  0.35653  0.92016  0.17570  1.0000
  S   S73       1.0  0.31571  0.97382  0.13794  1.0000
  H   H423      1.0  0.04089  0.83890  0.36857  1.0000
  C   C241      1.0  0.10569  0.91900  0.44254  1.0000
  H   H424      1.0  0.31474  0.89471  0.25032  1.0000
  S   S74       1.0  0.49086  0.77562  0.23282  1.0000
  H   H425      1.0  0.07887  0.84721  0.36001  1.0000
  C   C242      1.0  0.26905  0.99476  0.33831  1.0000
  C   C243      1.0  0.05191  0.78241  0.26189  1.0000
  C   C244      1.0  0.42493  0.90505  0.24371  1.0000
  C   C245      1.0  0.41443  0.92831  0.24355  1.0000
  C   C246      1.0  0.39361  0.93296  0.22256  1.0000
  C   C247      1.0  0.38270  0.91424  0.20219  1.0000
  C   C248      1.0  0.39267  0.89071  0.20327  1.0000
  C   C249      1.0  0.41389  0.88612  0.22382  1.0000
  H   H426      1.0  0.42251  0.94289  0.25957  1.0000
  H   H427      1.0  0.38602  0.95110  0.22217  1.0000
  H   H428      1.0  0.38424  0.87613  0.18762  1.0000
  H   H429      1.0  0.42182  0.86810  0.22387  1.0000
  H   H430      1.0  0.42338  0.71640  0.18495  1.0000
  H   H431      1.0  0.07291  0.78148  0.32874  1.0000
  Fe  Fe40      1.0  0.15463  0.97374  0.48201  1.0000
  C   C250      1.0  0.00116  0.73714  0.28356  1.0000
  C   C251      1.0  0.10801  0.92288  0.48317  1.0000
  H   H432      1.0  0.48869  0.95412  0.28316  1.0000
  H   H433      1.0  0.07602  0.67930  0.06777  1.0000
  C   C252      1.0  0.47948  0.75937  0.44610  1.0000
  S   S75       1.0  0.01543  0.71427  0.25264  1.0000
  H   H434      1.0  0.07001  0.78841  0.25169  1.0000
  H   H435      1.0  0.30979  0.92568  0.32919  1.0000
  H   H436      1.0  0.43285  0.95277  0.15990  1.0000
  H   H437      1.0  0.09196  0.80925  0.37330  1.0000
  H   H438      1.0  0.03176  0.81578  0.26533  1.0000
  H   H439      1.0  0.46154  0.69404  0.09815  1.0000
  S   S76       1.0  0.19493  0.97266  0.49157  1.0000
  H   H440      1.0  0.48189  0.79897  0.15695  1.0000
  C   C253      1.0  0.03278  0.82930  0.34369  1.0000
  H   H441      1.0  0.40464  0.72589  0.07913  1.0000
  N   N18       1.0  0.42282  0.69661  0.10874  1.0000
  C   C254      1.0  0.31063  0.93438  0.29988  1.0000
  H   H442      1.0  0.45308  0.70313  0.14666  1.0000
  H   H443      1.0  0.46679  0.77786  0.01265  1.0000
  H   H444      1.0  0.04588  0.69130  0.07195  1.0000
  H   H445      1.0  0.45478  0.81766  0.49252  1.0000
  H   H446      1.0  0.08730  0.81596  0.29420  1.0000
  C   C255      1.0  0.23849  0.99425  0.27500  1.0000
  H   H447      1.0  0.39288  0.71035  0.19818  1.0000
  C   C256      1.0  0.41811  0.67889  0.07560  1.0000
  Fe  Fe41      1.0  0.19908  0.99309  0.43431  1.0000
  H   H448      1.0  0.05115  0.93888  0.45540  1.0000
  C   C257      1.0  0.49050  0.74566  0.10400  1.0000
  H   H449      1.0  0.06384  0.81473  0.40186  1.0000
  H   H450      1.0  0.00986  0.86160  0.34127  1.0000
  H   H451      1.0  0.02322  0.72899  0.33281  1.0000
  C   C258      1.0  0.01914  0.84851  0.32023  1.0000
  H   H452      1.0  0.43604  0.72277  0.06685  1.0000
  H   H453      1.0  0.39651  0.69849  0.03266  1.0000
  C   C259      1.0  0.46846  0.79661  0.00246  1.0000
  C   C260      1.0  0.06024  0.79396  0.34574  1.0000
  C   C261      1.0  0.00919  0.74076  0.32211  1.0000
  C   C262      1.0  0.07157  0.82814  0.30234  1.0000
  H   H454      1.0  0.03682  0.96865  0.46373  1.0000
  H   H455      1.0  0.03136  0.85881  0.30047  1.0000
  S   S77       1.0  0.15927  0.99124  0.42254  1.0000
  H   H456      1.0  0.01893  0.81775  0.35815  1.0000
  C   C263      1.0  0.48611  0.78003  0.15116  1.0000
  N   N19       1.0  0.29194  0.92432  0.27311  1.0000
  C   C264      1.0  0.26748  0.92960  0.29290  1.0000
  C   C265      1.0  0.29412  0.93732  0.23422  1.0000
  C   C266      1.0  0.29720  0.89764  0.26714  1.0000
  C   C267      1.0  0.27156  0.93832  0.20894  1.0000
  C   C268      1.0  0.27890  0.88291  0.24412  1.0000
  H   H457      1.0  0.25251  0.92397  0.27432  1.0000
  H   H458      1.0  0.26464  0.94943  0.29696  1.0000
  H   H459      1.0  0.29887  0.95659  0.23916  1.0000
  H   H460      1.0  0.30908  0.92934  0.21499  1.0000
  H   H461      1.0  0.27320  0.92691  0.35689  1.0000
  H   H462      1.0  0.27656  0.94615  0.17987  1.0000
  H   H463      1.0  0.25734  0.95054  0.22268  1.0000
  H   H464      1.0  0.26404  0.92037  0.20299  1.0000
  H   H465      1.0  0.28314  0.88346  0.21181  1.0000
  H   H466      1.0  0.25990  0.88857  0.25031  1.0000
  H   H467      1.0  0.27990  0.86378  0.25344  1.0000
  H   H468      1.0  0.34887  0.94199  0.30421  1.0000
  H   H469      1.0  0.34026  0.93773  0.25454  1.0000
  H   H470      1.0  0.24339  0.92132  0.34271  1.0000
  C   C269      1.0  0.08960  0.90154  0.42866  1.0000
  Fe  Fe42      1.0  0.00105  0.68950  0.20389  1.0000
  S   S78       1.0  0.02392  0.67860  0.14976  1.0000
  H   H471      1.0  0.10042  0.85143  0.32093  1.0000
  C   C270      1.0  0.00864  0.91279  0.47875  1.0000
  C   C271      1.0  0.43917  0.96924  0.17534  1.0000
  H   H472      1.0  0.49352  0.76570  0.32985  1.0000
  C   C272      1.0  0.07417  0.80180  0.38209  1.0000
  C   C273      1.0  0.40948  0.70247  0.18312  1.0000
  H   H473      1.0  0.05912  0.68567  0.02402  1.0000
  H   H474      1.0  0.06605  0.83645  0.27426  1.0000
  C   C274      1.0  0.48959  0.75711  0.35875  1.0000
  C   C275      1.0  0.26270  0.91816  0.33358  1.0000
  C   C276      1.0  0.46325  0.96311  0.19486  1.0000
  Fe  Fe43      1.0  0.48529  0.83452  0.34983  1.0000
  H   H475      1.0  0.42825  0.75970  0.10350  1.0000
  H   H476      1.0  0.30711  0.95406  0.30584  1.0000
  H   H477      1.0  0.39840  0.67473  0.14342  1.0000
  Fe  Fe44      1.0  0.49175  0.69728  0.02209  1.0000
  H   H478      1.0  0.45265  0.97126  0.26989  1.0000
  S   S79       1.0  0.47165  0.82676  0.41329  1.0000
  C   C277      1.0  0.03779  0.80208  0.28670  1.0000
  H   H479      1.0  0.26607  0.89835  0.33284  1.0000
  H   H480      1.0  0.07219  0.86674  0.31950  1.0000
  H   H481      1.0  0.04498  0.78269  0.35649  1.0000
  H   H482      1.0  0.30025  0.88858  0.29566  1.0000
  C   C278      1.0  0.08082  0.84935  0.32773  1.0000
  C   C279      1.0  0.33720  0.93124  0.28490  1.0000
  H   H483      1.0  0.47314  0.77846  0.44329  1.0000
  S   S80       1.0  0.37342  0.98461  0.13604  1.0000
  H   H484      1.0  0.00568  0.76209  0.37645  1.0000
  C   C280      1.0  0.40338  0.69408  0.14084  1.0000
  H   H485      1.0  0.42462  0.97472  0.19722  1.0000
  C   C281      1.0  0.42238  0.72165  0.09180  1.0000
  C   C282      1.0  0.05809  0.67864  0.05443  1.0000
  C   C283      1.0  0.22916  0.98992  0.31357  1.0000
  H   H486      1.0  0.05348  0.76528  0.27831  1.0000
  C   C284      1.0  0.44785  0.69091  0.12243  1.0000
  N   N20       1.0  0.47402  0.98323  0.21882  1.0000
  H   H487      1.0  0.02185  0.90565  0.41811  1.0000
  C   C285      1.0  0.45750  0.98822  0.25461  1.0000
  H   H488      1.0  0.44118  0.98340  0.15279  1.0000
  C   C286      1.0  0.48634  0.82890  0.45903  1.0000
  H   H489      1.0  0.31432  0.97766  0.01479  1.0000
  H   H490      1.0  0.47032  0.76136  0.36649  1.0000
  H   H491      1.0  0.44337  0.74083  0.13677  1.0000
  H   H492      1.0  0.45269  0.80644  0.01685  1.0000
  H   H493      1.0  0.47619  0.95668  0.17069  1.0000
  C   C287      1.0  0.42653  0.74285  0.12063  1.0000
  H   H494      1.0  0.43974  0.99551  0.24560  1.0000
  C   C288      1.0  0.48565  0.77041  0.11221  1.0000
  C   C289      1.0  0.39476  0.68311  0.05309  1.0000
  S   S81       1.0  0.34321  0.98468  0.22179  1.0000
  H   H495      1.0  0.37865  0.68576  0.07320  1.0000
  S   S82       1.0  0.48764  0.73434  0.05465  1.0000
  H   H496      1.0  0.21033  0.98567  0.31834  1.0000
  C   C290      1.0  0.99930  0.75953  0.34691  1.0000
  H   H497      1.0  0.39165  0.66687  0.03426  1.0000
  C   C291      1.0  0.47487  0.75269  0.48985  1.0000
  C   C292      1.0  0.04644  0.95344  0.47745  1.0000
  H   H498      1.0  0.43340  0.67842  0.05325  1.0000
  H   H499      1.0  0.08832  0.89849  0.39720  1.0000
  H   H500      1.0  0.22656  0.99384  0.25048  1.0000
  H   H501      1.0  0.46686  0.74836  0.42884  1.0000
  Fe  Fe45      1.0  0.48940  0.81314  0.26373  1.0000
  S   S83       1.0  0.23365  0.98558  0.39517  1.0000
  H   H502      1.0  0.11661  0.92918  0.42184  1.0000
  H   H503      1.0  0.49456  0.93549  0.23906  1.0000
  C   C293      1.0  0.45210  0.66486  0.13651  1.0000
  C   C294      1.0  0.24428  0.99071  0.34571  1.0000
  H   H504      1.0  0.48519  0.80446  0.01372  1.0000
  H   H505      1.0  0.06395  0.96055  0.48703  1.0000
  H   H506      1.0  0.43823  0.86687  0.48236  1.0000
  H   H507      1.0  0.49248  0.73739  0.35398  1.0000
  H   H508      1.0  0.28103  0.99504  0.36277  1.0000
  C   C295      1.0  0.49633  0.73075  0.13531  1.0000
  H   H509      1.0  0.99786  0.96251  0.46684  1.0000
  H   H510      1.0  0.02456  0.90088  0.48396  1.0000
  H   H511      1.0  0.01482  0.93675  0.42613  1.0000
  C   C296      1.0  0.00906  0.91846  0.43409  1.0000
  C   C297      1.0  0.47347  0.82272  0.49396  1.0000
  H   H512      1.0  0.45709  0.88577  0.61356  1.0000
  C   C298      1.0  0.99719  0.68651  0.93367  1.0000
  H   H513      1.0  0.39044  0.89476  0.55397  1.0000
  C   C299      1.0  0.06700  0.71152  0.72267  1.0000
  H   H514      1.0  0.26822  0.92817  0.74755  1.0000
  C   C300      1.0  0.43894  0.88263  0.54156  1.0000
  H   H515      1.0  0.45268  0.84770  0.59915  1.0000
  H   H516      1.0  0.07364  0.72844  0.70945  1.0000
  H   H517      1.0  0.28380  0.95275  0.72802  1.0000
  C   C301      1.0  0.99746  0.74203  0.67005  1.0000
  H   H518      1.0  0.47362  0.74915  0.97116  1.0000
  H   H519      1.0  0.47832  0.75681  0.76916  1.0000
  C   C302      1.0  0.07700  0.70465  0.63215  1.0000
  H   H520      1.0  0.07297  0.71155  0.75361  1.0000
  H   H521      1.0  0.07028  0.74341  0.62662  1.0000
  Fe  Fe46      1.0  0.46741  0.84327  0.69942  1.0000
  S   S84       1.0  0.42805  0.85492  0.70341  1.0000
  S   S85       1.0  0.48244  0.80669  0.67839  1.0000
  H   H522      1.0  0.41001  0.88036  0.49866  1.0000
  H   H523      1.0  0.43191  0.89868  0.63957  1.0000
  C   C303      1.0  0.44104  0.89759  0.60989  1.0000
  H   H524      1.0  0.37358  0.92417  0.60163  1.0000
  H   H525      1.0  0.30362  0.96689  0.94606  1.0000
  C   C304      1.0  0.40361  0.90367  0.57313  1.0000
  H   H526      1.0  0.47907  0.76887  0.86989  1.0000
  S   S86       1.0  0.41162  0.96795  0.73128  1.0000
  S   S87       1.0  0.33879  0.96890  0.75996  1.0000
  C   C305      1.0  0.42326  0.88601  0.71457  1.0000
  C   C306      1.0  0.39972  0.89594  0.71652  1.0000
  C   C307      1.0  0.39579  0.92101  0.72252  1.0000
  C   C308      1.0  0.41545  0.93628  0.72606  1.0000
  C   C309      1.0  0.43894  0.92631  0.72405  1.0000
  C   C310      1.0  0.44284  0.90127  0.71875  1.0000
  H   H527      1.0  0.38451  0.88425  0.71321  1.0000
  H   H528      1.0  0.37762  0.92855  0.72391  1.0000
  H   H529      1.0  0.45423  0.93796  0.72686  1.0000
  H   H530      1.0  0.46106  0.89388  0.71747  1.0000
  C   C311      1.0  0.38899  0.91262  0.61058  1.0000
  H   H531      1.0  0.40000  0.85711  0.57812  1.0000
  C   C312      1.0  0.07794  0.68905  0.70070  1.0000
  C   C313      1.0  0.23243  0.95770  0.78974  1.0000
  H   H532      1.0  0.44471  0.90011  0.52894  1.0000
  H   H533      1.0  0.48042  0.80878  0.84004  1.0000
  H   H534      1.0  0.22763  0.96888  0.81665  1.0000
  H   H535      1.0  0.02875  0.91590  0.58256  1.0000
  S   S88       1.0  0.30032  0.98638  0.66939  1.0000
  H   H536      1.0  0.46324  0.72216  0.80830  1.0000
  H   H537      1.0  0.00300  0.79475  0.61868  1.0000
  H   H538      1.0  0.20806  0.92775  0.79810  1.0000
  H   H539      1.0  0.27882  0.96985  0.59839  1.0000
  C   C314      1.0  0.26797  0.98512  0.60966  1.0000
  H   H540      1.0  0.48186  0.82387  0.88687  1.0000
  S   S89       1.0  0.49189  0.86384  0.65917  1.0000
  H   H541      1.0  0.00381  0.77903  0.68705  1.0000
  C   C315      1.0  0.22750  0.93144  0.80161  1.0000
  C   C316      1.0  0.46989  0.75481  0.94077  1.0000
  C   C317      1.0  0.48883  0.74973  0.79275  1.0000
  C   C318      1.0  0.47405  0.78472  0.88925  1.0000
  H   H542      1.0  0.43788  0.75267  0.90422  1.0000
  H   H543      1.0  0.40730  0.86626  0.62661  1.0000
  H   H544      1.0  0.24654  0.96503  0.69106  1.0000
  C   C319      1.0  0.48476  0.82228  0.53057  1.0000
  H   H545      1.0  0.29120  0.97271  0.80079  1.0000
  S   S90       1.0  0.46149  0.68929  0.98166  1.0000
  H   H546      1.0  0.43756  0.73341  0.94554  1.0000
  N   N21       1.0  0.42470  0.88683  0.58005  1.0000
  H   H547      1.0  0.04706  0.71164  0.72460  1.0000
  C   C320      1.0  0.28647  0.93582  0.81460  1.0000
  C   C321      1.0  0.24755  0.99263  0.58899  1.0000
  C   C322      1.0  0.00078  0.76673  0.66262  1.0000
  H   H548      1.0  0.27512  0.99307  0.74553  1.0000
  C   C323      1.0  0.48657  0.80674  0.87070  1.0000
  C   C324      1.0  0.27543  0.96106  0.80705  1.0000
  C   C325      1.0  0.44261  0.75173  0.93570  1.0000
  H   H549      1.0  0.09520  0.71131  0.63916  1.0000
  H   H550      1.0  0.24357  0.99216  0.73874  1.0000
  H   H551      1.0  0.09776  0.69157  0.70098  1.0000
  C   C326      1.0  0.32250  0.98704  0.99012  1.0000
  H   H552      1.0  0.48502  0.76418  0.51036  1.0000
  H   H553      1.0  0.04842  0.73040  0.65878  1.0000
  H   H554      1.0  0.46296  0.92257  0.57396  1.0000
  H   H555      1.0  0.43169  0.82945  0.57232  1.0000
  C   C327      1.0  0.32679  0.99299  0.91832  1.0000
  H   H556      1.0  0.43624  0.93667  0.59806  1.0000
  H   H557      1.0  0.03183  0.95807  0.53704  1.0000
  H   H558      1.0  0.39978  0.92394  0.63036  1.0000
  S   S91       1.0  0.49092  0.84652  0.75148  1.0000
  H   H559      1.0  0.47949  0.74086  0.92158  1.0000
  H   H560      1.0  0.23058  0.94006  0.71313  1.0000
  C   C328      1.0  0.46751  0.79919  0.95729  1.0000
  H   H561      1.0  0.42967  0.83152  0.62438  1.0000
  H   H562      1.0  0.44830  0.80222  0.94988  1.0000
  H   H563      1.0  0.41965  0.85132  0.51713  1.0000
  S   S92       1.0  0.31784  0.98514  0.86961  1.0000
  N   N22       1.0  0.06993  0.68435  0.65922  1.0000
  N   N23       1.0  0.25760  0.96315  0.77454  1.0000
  C   C329      1.0  0.26563  0.94732  0.73949  1.0000
  H   H564      1.0  0.24288  0.98319  0.56218  1.0000
  H   H565      1.0  0.07410  0.67309  0.71946  1.0000
  C   C330      1.0  0.43368  0.84223  0.59755  1.0000
  N   N24       1.0  0.47952  0.77950  0.93169  1.0000
  Fe  Fe47      1.0  0.49051  0.68112  0.93470  1.0000
  C   C331      1.0  0.41513  0.86346  0.59604  1.0000
  C   C332      1.0  0.24858  0.94707  0.70455  1.0000
  H   H566      1.0  0.45605  0.87233  0.54611  1.0000
  H   H567      1.0  0.29708  0.93686  0.84175  1.0000
  H   H568      1.0  0.46175  0.92885  0.62583  1.0000
  Fe  Fe48      1.0  0.37500  0.98509  0.74728  1.0000
  H   H569      1.0  0.29941  0.93004  0.79022  1.0000
  C   C333      1.0  0.07729  0.89211  0.49566  1.0000
  H   H570      1.0  0.27282  0.92184  0.81943  1.0000
  H   H571      1.0  0.40953  0.91984  0.55657  1.0000
  H   H572      1.0  0.23184  0.92855  0.83295  1.0000
  C   C334      1.0  0.31644  0.98098  0.95100  1.0000
  H   H573      1.0  0.23717  0.91771  0.78256  1.0000
  C   C335      1.0  0.05957  0.72690  0.63151  1.0000
  H   H574      1.0  0.47492  0.81659  0.55684  1.0000
  H   H575      1.0  0.07861  0.69781  0.60098  1.0000
  H   H576      1.0  0.45434  0.78776  0.88577  1.0000
  H   H577      1.0  0.43161  0.76498  0.95394  1.0000
  H   H578      1.0  0.47578  0.81690  0.95081  1.0000
  C   C336      1.0  0.49358  0.72067  0.84619  1.0000
  H   H579      1.0  0.00109  0.69819  0.90908  1.0000
  C   C337      1.0  0.42561  0.86952  0.50852  1.0000
  H   H580      1.0  0.03237  0.69589  0.67114  1.0000
  H   H581      1.0  0.04769  0.72572  0.60591  1.0000
  H   H582      1.0  0.26730  0.96798  0.83580  1.0000
  S   S93       1.0  0.48143  0.69646  0.87429  1.0000
  C   C338      1.0  0.25757  0.98900  0.76083  1.0000
  H   H583      1.0  0.38123  0.89751  0.62757  1.0000
  H   H584      1.0  0.21861  0.96336  0.76853  1.0000
  C   C339      1.0  0.04316  0.67988  0.66048  1.0000
  H   H585      1.0  0.25649  0.93484  0.68085  1.0000
  C   C340      1.0  0.45081  0.92287  0.60075  1.0000
  C   C341      1.0  0.48033  0.73005  0.81504  1.0000
  C   C342      1.0  0.00030  0.77574  0.62382  1.0000
  H   H586      1.0  0.11877  0.67634  0.63336  1.0000
  S   S94       1.0  0.02318  0.67065  0.77005  1.0000
  S   S95       1.0  0.99876  0.73151  0.71951  1.0000
  C   C343      1.0  0.27443  0.99709  0.64462  1.0000
  S   S96       1.0  0.00340  0.84470  0.51944  1.0000
  H   H587      1.0  0.03792  0.68365  0.59637  1.0000
  H   H588      1.0  0.09533  0.91202  0.54101  1.0000
  S   S97       1.0  0.12869  0.94391  0.50292  1.0000
  Fe  Fe49      1.0  0.33477  0.99663  0.81006  1.0000
  H   H589      1.0  0.01272  0.67190  0.62399  1.0000
  C   C344      1.0  0.03272  0.67165  0.62097  1.0000
  H   H590      1.0  0.06671  0.88167  0.51644  1.0000
  N   N25       1.0  0.00771  0.93405  0.50746  1.0000
  C   C345      1.0  0.03263  0.94352  0.51378  1.0000
  H   H591      1.0  0.04473  0.92911  0.52477  1.0000
  C   C346      1.0  0.09362  0.90932  0.50953  1.0000
  H   H592      1.0  0.45543  0.75593  0.49785  1.0000
  H   H593      1.0  0.02020  0.89213  0.54873  1.0000
  H   H594      1.0  0.99734  0.71545  0.97744  1.0000
  C   C347      1.0  0.01336  0.90709  0.56850  1.0000
  H   H595      1.0  0.03871  0.66575  0.68240  1.0000
  S   S98       1.0  0.99722  0.76987  0.54170  1.0000
  H   H596      1.0  0.47885  0.73335  0.49519  1.0000
  C   C348      1.0  0.99767  0.92566  0.54694  1.0000
  H   H597      1.0  0.00226  0.89893  0.59262  1.0000
  C   C349      1.0  0.99679  0.76007  0.59173  1.0000
  N   N26       1.0  0.70973  0.01922  0.43683  1.0000
  C   C350      1.0  0.88290  0.12259  0.38799  1.0000
  H   H598      1.0  0.54160  0.10554  0.33039  1.0000
  H   H599      1.0  0.91730  0.16525  0.26322  1.0000
  H   H600      1.0  0.71614  0.01557  0.37342  1.0000
  H   H601      1.0  0.50515  0.24819  0.23516  1.0000
  H   H602      1.0  0.85901  0.00665  0.31947  1.0000
  C   C351      1.0  0.92666  0.15380  0.28474  1.0000
  C   C352      1.0  0.65666  0.06568  0.01274  1.0000
  C   C353      1.0  0.51609  0.23687  0.33207  1.0000
  C   C354      1.0  0.93329  0.11976  0.35755  1.0000
  Fe  Fe50      1.0  0.50834  0.13136  0.24476  1.0000
  H   H603      1.0  0.59512  0.31192  0.11457  1.0000
  S   S99       1.0  0.79234  0.03509  0.46930  1.0000
  H   H604      1.0  0.74608  0.00728  0.41930  1.0000
  S   S100      1.0  0.52552  0.09415  0.25006  1.0000
  S   S101      1.0  0.52096  0.16812  0.26367  1.0000
  Fe  Fe51      1.0  0.64055  0.02616  0.17978  1.0000
  S   S102      1.0  0.63129  0.06621  0.18376  1.0000
  H   H605      1.0  0.72407  0.04864  0.47124  1.0000
  H   H606      1.0  0.52697  0.26447  0.05652  1.0000
  H   H607      1.0  0.93370  0.11184  0.38747  1.0000
  C   C355      1.0  0.55469  0.08688  0.23013  1.0000
  C   C356      1.0  0.56273  0.06266  0.22979  1.0000
  C   C357      1.0  0.58607  0.05615  0.21512  1.0000
  C   C358      1.0  0.60166  0.07389  0.20118  1.0000
  C   C359      1.0  0.59361  0.09814  0.20136  1.0000
  C   C360      1.0  0.57012  0.10463  0.21562  1.0000
  H   H608      1.0  0.55089  0.04885  0.24094  1.0000
  H   H609      1.0  0.59207  0.03742  0.21499  1.0000
  H   H610      1.0  0.60561  0.11194  0.19066  1.0000
  H   H611      1.0  0.56407  0.12335  0.21583  1.0000
  S   S103      1.0  0.84020  0.01465  0.41920  1.0000
  H   H612      1.0  0.69931  0.05722  0.44281  1.0000
  H   H613      1.0  0.87271  0.12305  0.36052  1.0000
  H   H614      1.0  0.89780  0.13446  0.31161  1.0000
  H   H615      1.0  0.75415  0.03696  0.29236  1.0000
  Fe  Fe52      1.0  0.50118  0.18189  0.21055  1.0000
  H   H616      1.0  0.54031  0.09559  0.40123  1.0000
  H   H617      1.0  0.59980  0.29180  0.05452  1.0000
  S   S104      1.0  0.95238  0.12005  0.46244  1.0000
  C   C361      1.0  0.90935  0.14964  0.32062  1.0000
  C   C362      1.0  0.68980  0.01331  0.46646  1.0000
  H   H618      1.0  0.62999  0.99795  0.03100  1.0000
  C   C363      1.0  0.92719  0.18964  0.37419  1.0000
  H   H619      1.0  0.91982  0.19541  0.34585  1.0000
  H   H620      1.0  0.69681  0.04904  0.04652  1.0000
  H   H621      1.0  0.94287  0.16403  0.29193  1.0000
  H   H622      1.0  0.55070  0.22723  0.27018  1.0000
  C   C364      1.0  0.50790  0.27691  0.30464  1.0000
  C   C365      1.0  0.95980  0.11863  0.34187  1.0000
  H   H623      1.0  0.89634  0.16524  0.32341  1.0000
  C   C366      1.0  0.58340  0.30012  0.04181  1.0000
  C   C367      1.0  0.50901  0.23210  0.13782  1.0000
  H   H624      1.0  0.67849  0.03354  0.08298  1.0000
  H   H625      1.0  0.89414  0.05431  0.45289  1.0000
  H   H626      1.0  0.72794  0.05390  0.38055  1.0000
  H   H627      1.0  0.94506  0.15931  0.40098  1.0000
  H   H628      1.0  0.52379  0.29610  0.25387  1.0000
  S   S105      1.0  0.51978  0.20776  0.16694  1.0000
  H   H629      1.0  0.90832  0.14297  0.42078  1.0000
  H   H630      1.0  0.52478  0.13347  0.34015  1.0000
  C   C368      1.0  0.72915  0.00913  0.27722  1.0000
  C   C369      1.0  0.49859  0.08456  0.35410  1.0000
  C   C370      1.0  0.64266  0.99859  0.00596  1.0000
  Fe  Fe53      1.0  0.79986  0.01159  0.41512  1.0000
  C   C371      1.0  0.50743  0.24327  0.37499  1.0000
  C   C372      1.0  0.89690  0.07245  0.46402  1.0000
  H   H631      1.0  0.59838  0.06772  0.04577  1.0000
  H   H632      1.0  0.52796  0.12416  0.41460  1.0000
  C   C373      1.0  0.70116  0.01408  0.39586  1.0000
  H   H633      1.0  0.89197  0.10468  0.39068  1.0000
  Fe  Fe54      1.0  0.97486  0.15421  0.46988  1.0000
  C   C374      1.0  0.93781  0.16362  0.37164  1.0000
  C   C375      1.0  0.73395  0.05566  0.41127  1.0000
  H   H634      1.0  0.52544  0.17422  0.38082  1.0000
  H   H635      1.0  0.86941  0.12419  0.41311  1.0000
  H   H636      1.0  0.51952  0.23398  0.39559  1.0000
  H   H637      1.0  0.72136  0.01927  0.25368  1.0000
  N   N27       1.0  0.57622  0.32356  0.06332  1.0000
  C   C376      1.0  0.74782  0.01909  0.29921  1.0000
  H   H638      1.0  0.53934  0.22913  0.09608  1.0000
  H   H639      1.0  0.74067  0.00927  0.47082  1.0000
  H   H640      1.0  0.50787  0.04612  0.36205  1.0000
  C   C377      1.0  0.90064  0.14370  0.39093  1.0000
  C   C378      1.0  0.51349  0.23981  0.26085  1.0000
  N   N28       1.0  0.92065  0.14428  0.35935  1.0000
  S   S106      1.0  0.67875  0.01380  0.16406  1.0000
  N   N29       1.0  0.64804  0.07166  0.05474  1.0000
  C   C379      1.0  0.67002  0.07269  0.07978  1.0000
  C   C380      1.0  0.63603  0.09638  0.05713  1.0000
  H   H641      1.0  0.93216  0.13637  0.26989  1.0000
  C   C381      1.0  0.63201  0.05222  0.07098  1.0000
  C   C382      1.0  0.68758  0.05064  0.07615  1.0000
  C   C383      1.0  0.62575  0.10442  0.09843  1.0000
  C   C384      1.0  0.52433  0.17175  0.44466  1.0000
  C   C385      1.0  0.60629  0.05047  0.05540  1.0000
  H   H642      1.0  0.68088  0.08890  0.07273  1.0000
  H   H643      1.0  0.66470  0.07455  0.11177  1.0000
  S   S107      1.0  0.98097  0.31560  0.15668  1.0000
  H   H644      1.0  0.95407  0.16434  0.35165  1.0000
  H   H645      1.0  0.92313  0.10666  0.33960  1.0000
  H   H646      1.0  0.75207  0.04714  0.41334  1.0000
  H   H647      1.0  0.64069  0.03415  0.06572  1.0000
  H   H648      1.0  0.63015  0.05353  0.10372  1.0000
  C   C386      1.0  0.73209  0.00400  0.44288  1.0000
  C   C387      1.0  0.87786  0.08504  0.48411  1.0000
  H   H649      1.0  0.51169  0.06971  0.42737  1.0000
  H   H650      1.0  0.64007  0.10656  0.12009  1.0000
  H   H651      1.0  0.61656  0.12235  0.09632  1.0000
  H   H652      1.0  0.61204  0.09179  0.11014  1.0000
  H   H653      1.0  0.54341  0.16746  0.44601  1.0000
  N   N30       1.0  0.50188  0.09973  0.39080  1.0000
  H   H654      1.0  0.51387  0.10778  0.47135  1.0000
  H   H655      1.0  0.50807  0.26291  0.38166  1.0000
  H   H656      1.0  0.73612  0.07526  0.41743  1.0000
  H   H657      1.0  0.59389  0.04448  0.07973  1.0000
  H   H658      1.0  0.64895  0.11034  0.04689  1.0000
  C   C388      1.0  0.51419  0.17555  0.40761  1.0000
  H   H659      1.0  0.56899  0.28650  0.04535  1.0000
  H   H660      1.0  0.55434  0.12933  0.35838  1.0000
  C   C389      1.0  0.55836  0.30007  0.12236  1.0000
  H   H661      1.0  0.67422  0.02612  0.46412  1.0000
  H   H662      1.0  0.91337  0.19198  0.39859  1.0000
  C   C390      1.0  0.52301  0.23927  0.10455  1.0000
  H   H663      1.0  0.97182  0.12685  0.36365  1.0000
  H   H664      1.0  0.94187  0.20230  0.38074  1.0000
  C   C391      1.0  0.53722  0.12001  0.35277  1.0000
  S   S108      1.0  0.96665  0.19356  0.45773  1.0000
  C   C392      1.0  0.71586  0.04548  0.44219  1.0000
  H   H665      1.0  0.56244  0.28159  0.11036  1.0000
  C   C393      1.0  0.51007  0.17342  0.48003  1.0000
  H   H666      1.0  0.51910  0.05863  0.31604  1.0000
  H   H667      1.0  0.88933  0.16054  0.39115  1.0000
  Fe  Fe55      1.0  0.83283  0.03552  0.47604  1.0000
  S   S109      1.0  0.78160  0.01992  0.35685  1.0000
  C   C394      1.0  0.57680  0.31856  0.10692  1.0000
  C   C395      1.0  0.92366  0.10692  0.47271  1.0000
  H   H668      1.0  0.53385  0.06509  0.36006  1.0000
  H   H669      1.0  0.70189  0.05279  0.09792  1.0000
  H   H670      1.0  0.68464  0.04951  0.38156  1.0000
  H   H671      1.0  0.67325  0.07590  0.00492  1.0000
  H   H672      1.0  0.96255  0.12731  0.31298  1.0000
  H   H673      1.0  0.93413  0.07336  0.44281  1.0000
  H   H674      1.0  0.50891  0.22039  0.25795  1.0000
  H   H675      1.0  0.67582  0.02462  0.35178  1.0000
  H   H676      1.0  0.66204  0.04621  0.00956  1.0000
  H   H677      1.0  0.62088  0.09799  0.03694  1.0000
  C   C396      1.0  0.75827  0.00623  0.32996  1.0000
  S   S110      1.0  0.84859  0.07255  0.49150  1.0000
  C   C397      1.0  0.91960  0.08333  0.45840  1.0000
  C   C398      1.0  0.52708  0.10952  0.39180  1.0000
  H   H678      1.0  0.60578  0.03692  0.03092  1.0000
  S   S111      1.0  0.62419  0.00290  0.13352  1.0000
  C   C399      1.0  0.51604  0.25934  0.08201  1.0000
  H   H679      1.0  0.53580  0.24028  0.33082  1.0000
  C   C400      1.0  0.68004  0.03013  0.38247  1.0000
  H   H680      1.0  0.54579  0.23813  0.22197  1.0000
  H   H681      1.0  0.66338  0.02773  0.40102  1.0000
  S   S112      1.0  0.99394  0.20315  0.34972  1.0000
  S   S113      1.0  0.63514  0.99960  0.22846  1.0000
  H   H682      1.0  0.53941  0.31533  0.04894  1.0000
  H   H683      1.0  0.51295  0.01796  0.19811  1.0000
  H   H684      1.0  0.54797  0.25944  0.26192  1.0000
  H   H685      1.0  0.52650  0.27975  0.31492  1.0000
  C   C401      1.0  0.50566  0.29254  0.26739  1.0000
  C   C402      1.0  0.51580  0.06233  0.34820  1.0000
  C   C403      1.0  0.99191  0.23539  0.28855  1.0000
  H   H686      1.0  0.96569  0.09938  0.33816  1.0000
  H   H687      1.0  0.49950  0.09561  0.32698  1.0000
  H   H688      1.0  0.55924  0.29904  0.15499  1.0000
  H   H689      1.0  0.53953  0.30538  0.11590  1.0000
  C   C404      1.0  0.54109  0.24146  0.25383  1.0000
  H   H690      1.0  0.51444  0.21692  0.32794  1.0000
  H   H691      1.0  0.98390  0.22074  0.27245  1.0000
  N   N31       1.0  0.50354  0.25019  0.29982  1.0000
  H   H692      1.0  0.99119  0.25976  0.23908  1.0000
  C   C405      1.0  0.58894  0.30175  0.99693  1.0000
  H   H693      1.0  0.82916  0.00009  0.33588  1.0000
  H   H694      1.0  0.49791  0.31058  0.27645  1.0000
  C   C406      1.0  0.49751  0.08422  0.42637  1.0000
  C   C407      1.0  0.49713  0.09761  0.46684  1.0000
  C   C408      1.0  0.90464  0.11950  0.49288  1.0000
  C   C409      1.0  0.99604  0.25754  0.26946  1.0000
  H   H695      1.0  0.64709  0.06340  0.95128  1.0000
  S   S114      1.0  0.52505  0.30012  0.96444  1.0000
  C   C410      1.0  0.92231  0.30630  0.62546  1.0000
  H   H696      1.0  0.54247  0.22834  0.68373  1.0000
  H   H697      1.0  0.52313  0.17021  0.76979  1.0000
  Fe  Fe56      1.0  0.99437  0.20230  0.50314  1.0000
  S   S115      1.0  0.52403  0.16810  0.52574  1.0000
  H   H698      1.0  0.55607  0.21919  0.83333  1.0000
  S   S116      1.0  0.83313  0.00233  0.51453  1.0000
  H   H699      1.0  0.68025  0.01035  0.52919  1.0000
  C   C411      1.0  0.55321  0.22500  0.80250  1.0000
  Fe  Fe57      1.0  0.52781  0.14772  0.66993  1.0000
  S   S117      1.0  0.52833  0.18358  0.64023  1.0000
  S   S118      1.0  0.56028  0.13677  0.70463  1.0000
  C   C412      1.0  0.55849  0.18126  0.79072  1.0000
  H   H700      1.0  0.57418  0.31082  0.98158  1.0000
  H   H701      1.0  0.53012  0.20476  0.74020  1.0000
  H   H702      1.0  0.86738  0.11855  0.51407  1.0000
  H   H703      1.0  0.59110  0.28321  0.98397  1.0000
  C   C413      1.0  0.60575  0.20429  0.80022  1.0000
  Fe  Fe58      1.0  0.62248  0.01269  0.74694  1.0000
  S   S119      1.0  0.59057  0.02593  0.71287  1.0000
  S   S120      1.0  0.65195  0.03346  0.77471  1.0000
  C   C414      1.0  0.56782  0.10579  0.70797  1.0000
  C   C415      1.0  0.58547  0.09844  0.73412  1.0000
  C   C416      1.0  0.59232  0.07390  0.73654  1.0000
  C   C417      1.0  0.58170  0.05666  0.71246  1.0000
  C   C418      1.0  0.56386  0.06398  0.68669  1.0000
  C   C419      1.0  0.55690  0.08847  0.68447  1.0000
  H   H704      1.0  0.59389  0.11176  0.75253  1.0000
  H   H705      1.0  0.60580  0.06833  0.75693  1.0000
  H   H706      1.0  0.55558  0.05070  0.66802  1.0000
  H   H707      1.0  0.54333  0.09397  0.66418  1.0000
  H   H708      1.0  0.92473  0.30924  0.56036  1.0000
  C   C420      1.0  0.50346  0.00204  0.73135  1.0000
  C   C421      1.0  0.65096  0.00677  0.93570  1.0000
  C   C422      1.0  0.63908  0.07093  0.97964  1.0000
  H   H709      1.0  0.93495  0.28425  0.69316  1.0000
  C   C423      1.0  0.56398  0.25054  0.79950  1.0000
  H   H710      1.0  0.50807  0.09311  0.72562  1.0000
  S   S121      1.0  0.51190  0.12944  0.61794  1.0000
  C   C424      1.0  0.54985  0.20696  0.73507  1.0000
  S   S122      1.0  0.99323  0.27458  0.72015  1.0000
  H   H711      1.0  0.50112  0.05813  0.76607  1.0000
  C   C425      1.0  0.72478  0.00993  0.66509  1.0000
  C   C426      1.0  0.58964  0.20741  0.76445  1.0000
  H   H712      1.0  0.90710  0.30241  0.64650  1.0000
  H   H713      1.0  0.55600  0.19170  0.71493  1.0000
  H   H714      1.0  0.75335  0.03562  0.66926  1.0000
  H   H715      1.0  0.49990  0.28901  0.80407  1.0000
  Fe  Fe59      1.0  0.79294  0.00089  0.50416  1.0000
  H   H716      1.0  0.61635  0.01231  0.96609  1.0000
  H   H717      1.0  0.68759  0.99950  0.91486  1.0000
  H   H718      1.0  0.59560  0.19335  0.74187  1.0000
  H   H719      1.0  0.52070  0.01161  0.73447  1.0000
  N   N32       1.0  0.66446  0.06670  0.64720  1.0000
  H   H720      1.0  0.51216  0.04913  0.71797  1.0000
  C   C427      1.0  0.64948  0.04617  0.66258  1.0000
  C   C428      1.0  0.67612  0.07908  0.68143  1.0000
  C   C429      1.0  0.65021  0.08453  0.62358  1.0000
  S   S123      1.0  0.71092  0.01923  0.71159  1.0000
  C   C430      1.0  0.65910  0.09120  0.71323  1.0000
  C   C431      1.0  0.62387  0.09029  0.63822  1.0000
  H   H721      1.0  0.59456  0.22470  0.75073  1.0000
  H   H722      1.0  0.62964  0.04027  0.60784  1.0000
  H   H723      1.0  0.63427  0.05250  0.68248  1.0000
  H   H724      1.0  0.89954  0.32630  0.58412  1.0000
  H   H725      1.0  0.68800  0.06601  0.69670  1.0000
  H   H726      1.0  0.68803  0.09376  0.67101  1.0000
  H   H727      1.0  0.65980  0.10197  0.62145  1.0000
  H   H728      1.0  0.64890  0.07765  0.59263  1.0000
  S   S124      1.0  0.64070  0.01890  0.89078  1.0000
  H   H729      1.0  0.57205  0.25513  0.77038  1.0000
  C   C432      1.0  0.99395  0.24741  0.59001  1.0000
  H   H730      1.0  0.64602  0.07856  0.72646  1.0000
  H   H731      1.0  0.64966  0.10729  0.70167  1.0000
  H   H732      1.0  0.67008  0.09779  0.73781  1.0000
  H   H733      1.0  0.61929  0.10942  0.63172  1.0000
  H   H734      1.0  0.62020  0.08824  0.67014  1.0000
  H   H735      1.0  0.61092  0.07936  0.62163  1.0000
  H   H736      1.0  0.71577  0.06316  0.58265  1.0000
  H   H737      1.0  0.57729  0.25345  0.82269  1.0000
  H   H738      1.0  0.69351  0.04047  0.63578  1.0000
  H   H739      1.0  0.56687  0.17973  0.81991  1.0000
  C   C433      1.0  0.63871  0.02978  0.63071  1.0000
  H   H740      1.0  0.54294  0.24590  0.72777  1.0000
  C   C434      1.0  0.88193  0.10863  0.49842  1.0000
  H   H741      1.0  0.93357  0.28933  0.62322  1.0000
  C   C435      1.0  0.55211  0.23046  0.71167  1.0000
  C   C436      1.0  0.91094  0.30965  0.58500  1.0000
  Fe  Fe60      1.0  0.50913  0.16594  0.59007  1.0000
  H   H742      1.0  0.57100  0.23466  0.70308  1.0000
  H   H743      1.0  0.62437  0.20994  0.79199  1.0000
  H   H744      1.0  0.60609  0.31116  0.99035  1.0000
  H   H745      1.0  0.91512  0.30849  0.71250  1.0000
  H   H746      1.0  0.65275  0.01746  0.61669  1.0000
  H   H747      1.0  0.69703  0.08943  0.59356  1.0000
  H   H748      1.0  0.67706  0.04731  0.59360  1.0000
  C   C437      1.0  0.63492  0.00644  0.96898  1.0000
  C   C438      1.0  0.68442  0.05555  0.62067  1.0000
  H   H749      1.0  0.53338  0.22711  0.80036  1.0000
  H   H750      1.0  0.66055  0.03430  0.68138  1.0000
  H   H751      1.0  0.97876  0.23015  0.68381  1.0000
  C   C439      1.0  0.98542  0.24151  0.66029  1.0000
  C   C440      1.0  0.70442  0.07262  0.60617  1.0000
  H   H752      1.0  0.60708  0.18504  0.80873  1.0000
  C   C441      1.0  0.74556  0.02180  0.65100  1.0000
  N   N33       1.0  0.56285  0.20584  0.77332  1.0000
  H   H753      1.0  0.62498  0.01806  0.64490  1.0000
  H   H754      1.0  0.97889  0.21508  0.61409  1.0000
  H   H755      1.0  0.53116  0.15757  0.81533  1.0000
  C   C442      1.0  0.53187  0.17439  0.79793  1.0000
  H   H756      1.0  0.71678  0.07703  0.63020  1.0000
  H   H757      1.0  0.56726  0.16672  0.77165  1.0000
  H   H758      1.0  0.70317  0.03192  0.51975  1.0000
  H   H759      1.0  0.89895  0.29420  0.57941  1.0000
  H   H760      1.0  0.54932  0.26421  0.80616  1.0000
  H   H761      1.0  0.59928  0.21546  0.82614  1.0000
  H   H762      1.0  0.52129  0.18853  0.81497  1.0000
  C   C443      1.0  0.98555  0.23287  0.62076  1.0000
  C   C444      1.0  0.69654  0.01406  0.51033  1.0000
  H   H763      1.0  0.77260  0.02507  0.60343  1.0000
  C   C445      1.0  0.75652  0.01590  0.61355  1.0000
  Fe  Fe61      1.0  0.64855  0.00758  0.82570  1.0000
  C   C446      1.0  0.99381  0.26469  0.66971  1.0000
  S   S125      1.0  0.99424  0.23787  0.53939  1.0000
  H   H764      1.0  0.90737  0.13762  0.50412  1.0000
  Fe  Fe62      1.0  0.49737  0.29941  0.91721  1.0000
  H   H765      1.0  0.62148  0.06225  0.98416  1.0000
  N   N34       1.0  0.93722  0.32688  0.64027  1.0000
  H   H766      1.0  0.96787  0.31302  0.60456  1.0000
  H   H767      1.0  0.96630  0.31189  0.67456  1.0000
  Fe  Fe63      1.0  0.67716  0.00538  0.74475  1.0000
  H   H768      1.0  0.63646  0.09063  0.97540  1.0000
  C   C447      1.0  0.94809  0.32057  0.67929  1.0000
  C   C448      1.0  0.67490  0.99906  0.93993  1.0000
  H   H769      1.0  0.71019  0.99996  0.51691  1.0000
  H   H770      1.0  0.94296  0.30163  0.73487  1.0000
  C   C449      1.0  0.93414  0.30285  0.70611  1.0000
  C   C450      1.0  0.74677  0.99804  0.58952  1.0000
  H   H771      1.0  0.49694  0.27403  0.73472  1.0000
  C   C451      1.0  0.95760  0.33037  0.61016  1.0000
  H   H772      1.0  0.50072  0.99763  0.69982  1.0000
  C   C452      1.0  0.58661  0.51457  0.05566  1.0000
  S   S126      1.0  0.65331  0.50893  0.01756  1.0000
  H   H773      1.0  0.94468  0.48349  0.24880  1.0000
  S   S127      1.0  0.98245  0.63861  0.12826  1.0000
  S   S128      1.0  0.71779  0.51830  0.06361  1.0000
  H   H774      1.0  0.73219  0.46831  0.08349  1.0000
  C   C453      1.0  0.84394  0.57527  0.10293  1.0000
  Fe  Fe64      1.0  0.82948  0.51040  0.31957  1.0000
  S   S129      1.0  0.86884  0.50437  0.30265  1.0000
  S   S130      1.0  0.81852  0.52730  0.38036  1.0000
  Fe  Fe65      1.0  0.81264  0.49014  0.23927  1.0000
  S   S131      1.0  0.85099  0.48210  0.21838  1.0000
  S   S132      1.0  0.78427  0.47487  0.19804  1.0000
  Fe  Fe66      1.0  0.85733  0.46859  0.27876  1.0000
  S   S133      1.0  0.87972  0.43558  0.29331  1.0000
  Fe  Fe67      1.0  0.85964  0.51864  0.24337  1.0000
  S   S134      1.0  0.88657  0.53640  0.20162  1.0000
  S   S135      1.0  0.81841  0.47352  0.29894  1.0000
  S   S136      1.0  0.82082  0.52783  0.26102  1.0000
  Fe  Fe68      1.0  0.96527  0.35324  0.16709  1.0000
  S   S137      1.0  0.92637  0.36528  0.16104  1.0000
  S   S138      1.0  0.55145  0.62666  0.01122  1.0000
  Fe  Fe69      1.0  0.96281  0.65268  0.18388  1.0000
  S   S139      1.0  0.92670  0.64280  0.21276  1.0000
  C   C454      1.0  0.82299  0.41482  0.23157  1.0000
  H   H775      1.0  0.83451  0.59319  0.10191  1.0000
  H   H776      1.0  0.81486  0.58978  0.21137  1.0000
  C   C455      1.0  0.82050  0.51353  0.42751  1.0000
  C   C456      1.0  0.83050  0.49034  0.43168  1.0000
  C   C457      1.0  0.81224  0.52646  0.46187  1.0000
  H   H777      1.0  0.83680  0.48006  0.40567  1.0000
  H   H778      1.0  0.80432  0.54435  0.45908  1.0000
  C   C458      1.0  0.89846  0.56550  0.20786  1.0000
  C   C459      1.0  0.88727  0.58290  0.23327  1.0000
  C   C460      1.0  0.89622  0.60653  0.23472  1.0000
  C   C461      1.0  0.91656  0.61276  0.21126  1.0000
  C   C462      1.0  0.92793  0.59524  0.18638  1.0000
  C   C463      1.0  0.91877  0.57176  0.18448  1.0000
  H   H779      1.0  0.87149  0.57830  0.25116  1.0000
  H   H780      1.0  0.88731  0.62004  0.25395  1.0000
  H   H781      1.0  0.94354  0.59988  0.16812  1.0000
  H   H782      1.0  0.92740  0.55843  0.16454  1.0000
  C   C464      1.0  0.89423  0.41753  0.25590  1.0000
  C   C465      1.0  0.89172  0.42241  0.21588  1.0000
  C   C466      1.0  0.90172  0.40629  0.18680  1.0000
  C   C467      1.0  0.91501  0.38578  0.19764  1.0000
  C   C468      1.0  0.91849  0.38156  0.23758  1.0000
  C   C469      1.0  0.90789  0.39726  0.26662  1.0000
  H   H783      1.0  0.88160  0.43822  0.20737  1.0000
  H   H784      1.0  0.89937  0.40976  0.15583  1.0000
  H   H785      1.0  0.92870  0.36574  0.24610  1.0000
  H   H786      1.0  0.90997  0.39346  0.29755  1.0000
  H   H787      1.0  0.80867  0.42847  0.22520  1.0000
  C   C470      1.0  0.82053  0.42993  0.14942  1.0000
  C   C471      1.0  0.80097  0.38460  0.19417  1.0000
  H   H788      1.0  0.82536  0.44604  0.16716  1.0000
  C   C472      1.0  0.96251  0.43110  0.28432  1.0000
  H   H789      1.0  0.80074  0.42757  0.15228  1.0000
  H   H790      1.0  0.82757  0.60237  0.16747  1.0000
  C   C473      1.0  0.97680  0.44893  0.25818  1.0000
  H   H791      1.0  0.58605  0.59422  0.04367  1.0000
  C   C474      1.0  0.73607  0.50556  0.10077  1.0000
  C   C475      1.0  0.74683  0.52123  0.12792  1.0000
  C   C476      1.0  0.76161  0.51225  0.15770  1.0000
  C   C477      1.0  0.76595  0.48736  0.16077  1.0000
  C   C478      1.0  0.75510  0.47166  0.13377  1.0000
  C   C479      1.0  0.74034  0.48065  0.10393  1.0000
  H   H792      1.0  0.74343  0.54049  0.12616  1.0000
  H   H793      1.0  0.76932  0.52455  0.17868  1.0000
  H   H794      1.0  0.75806  0.45237  0.13596  1.0000
  C   C480      1.0  0.84360  0.37691  0.21225  1.0000
  C   C481      1.0  0.81680  0.40553  0.27340  1.0000
  H   H795      1.0  0.92397  0.65878  0.29662  1.0000
  H   H796      1.0  0.83993  0.42520  0.23344  1.0000
  H   H797      1.0  0.85950  0.38591  0.22447  1.0000
  H   H798      1.0  0.83597  0.36612  0.23700  1.0000
  H   H799      1.0  0.81217  0.42115  0.29350  1.0000
  H   H800      1.0  0.80103  0.39355  0.27395  1.0000
  H   H801      1.0  0.83260  0.39617  0.28594  1.0000
  C   C482      1.0  0.59396  0.36622  0.07567  1.0000
  C   C483      1.0  0.55147  0.33117  0.05054  1.0000
  S   S140      1.0  0.99548  0.65079  0.22104  1.0000
  H   H802      1.0  0.83985  0.46226  0.47219  1.0000
  N   N35       1.0  0.82543  0.39562  0.19923  1.0000
  H   H803      1.0  0.85383  0.41324  0.16587  1.0000
  H   H804      1.0  0.85671  0.53098  0.13405  1.0000
  H   H805      1.0  0.86838  0.34763  0.19441  1.0000
  C   C484      1.0  0.98455  0.46915  0.19588  1.0000
  C   C485      1.0  0.83986  0.53227  0.11738  1.0000
  H   H806      1.0  0.97916  0.43353  0.13825  1.0000
  H   H807      1.0  0.92853  0.53108  0.49337  1.0000
  H   H808      1.0  0.86684  0.58721  0.15141  1.0000
  H   H809      1.0  0.97425  0.50583  0.21857  1.0000
  N   N36       1.0  0.82810  0.55699  0.12307  1.0000
  H   H810      1.0  0.83605  0.39464  0.13662  1.0000
  H   H811      1.0  0.81195  0.54981  0.18082  1.0000
  H   H812      1.0  0.79768  0.37023  0.21621  1.0000
  H   H813      1.0  0.87901  0.59234  0.10298  1.0000
  C   C486      1.0  0.82450  0.51072  0.13076  1.0000
  H   H814      1.0  0.90306  0.49770  0.47797  1.0000
  H   H815      1.0  0.84214  0.55922  0.18197  1.0000
  Fe  Fe70      1.0  0.69404  0.50429  0.01384  1.0000
  C   C487      1.0  0.83224  0.48030  0.46955  1.0000
  H   H816      1.0  0.79691  0.59139  0.16896  1.0000
  H   H817      1.0  0.84576  0.52887  0.08594  1.0000
  H   H818      1.0  0.81296  0.56268  0.04187  1.0000
  H   H819      1.0  0.84791  0.56987  0.07150  1.0000
  H   H820      1.0  0.54520  0.35575  0.10416  1.0000
  H   H821      1.0  0.81927  0.51192  0.16264  1.0000
  H   H822      1.0  0.97203  0.42862  0.31224  1.0000
  C   C488      1.0  0.83496  0.40747  0.16222  1.0000
  C   C489      1.0  0.79591  0.37359  0.15318  1.0000
  H   H823      1.0  0.60825  0.37796  0.06302  1.0000
  C   C490      1.0  0.81555  0.58805  0.17859  1.0000
  H   H824      1.0  0.96147  0.41293  0.27015  1.0000
  H   H825      1.0  0.83538  0.49374  0.12625  1.0000
  H   H826      1.0  0.80949  0.53140  0.05570  1.0000
  H   H827      1.0  0.57620  0.52995  0.06987  1.0000
  H   H828      1.0  0.97849  0.46564  0.27655  1.0000
  H   H829      1.0  0.79060  0.54683  0.12224  1.0000
  H   H830      1.0  0.78374  0.55085  0.05245  1.0000
  C   C491      1.0  0.57061  0.49927  0.02899  1.0000
  H   H831      1.0  0.90607  0.53766  0.43609  1.0000
  S   S141      1.0  0.98586  0.36003  0.22141  1.0000
  H   H832      1.0  0.57681  0.37640  0.07277  1.0000
  H   H833      1.0  0.79579  0.57666  0.10724  1.0000
  S   S142      1.0  0.62035  0.44956  0.00592  1.0000
  C   C492      1.0  0.87682  0.53900  0.48269  1.0000
  H   H834      1.0  0.97896  0.47272  0.16547  1.0000
  H   H835      1.0  0.88288  0.51518  0.43021  1.0000
  H   H836      1.0  0.59329  0.50317  0.07979  1.0000
  H   H837      1.0  0.87496  0.55901  0.48599  1.0000
  H   H838      1.0  0.57992  0.48130  0.02549  1.0000
  H   H839      1.0  0.82528  0.43387  0.11807  1.0000
  C   C493      1.0  0.80362  0.55799  0.10526  1.0000
  H   H840      1.0  0.56739  0.54671  0.01121  1.0000
  N   N37       1.0  0.96623  0.45464  0.21887  1.0000
  H   H841      1.0  0.55480  0.39074  0.00393  1.0000
  H   H842      1.0  0.91837  0.49428  0.20118  1.0000
  C   C494      1.0  0.96204  0.43094  0.19761  1.0000
  C   C495      1.0  0.94272  0.46840  0.22702  1.0000
  H   H843      1.0  0.95448  0.41343  0.14165  1.0000
  H   H844      1.0  0.87670  0.54589  0.41964  1.0000
  C   C496      1.0  0.96090  0.43123  0.15221  1.0000
  H   H845      1.0  0.55347  0.49598  0.04618  1.0000
  C   C497      1.0  0.53750  0.35094  0.07568  1.0000
  H   H846      1.0  0.59807  0.36390  0.10714  1.0000
  C   C498      1.0  0.58393  0.41630  0.00428  1.0000
  H   H847      1.0  0.94209  0.48554  0.16798  1.0000
  H   H848      1.0  0.61824  0.56679  0.01413  1.0000
  H   H849      1.0  0.94518  0.42285  0.20921  1.0000
  H   H850      1.0  0.92927  0.45672  0.24210  1.0000
  S   S143      1.0  0.99210  0.37146  0.12704  1.0000
  H   H851      1.0  0.99547  0.44121  0.25375  1.0000
  H   H852      1.0  0.80813  0.50867  0.11338  1.0000
  H   H853      1.0  0.60264  0.52149  0.03933  1.0000
  C   C499      1.0  0.86867  0.57928  0.12114  1.0000
  C   C500      1.0  0.80284  0.55021  0.06134  1.0000
  H   H854      1.0  0.79393  0.38777  0.13074  1.0000
  H   H855      1.0  0.94832  0.44512  0.14149  1.0000
  H   H856      1.0  0.86258  0.36704  0.15496  1.0000
  C   C501      1.0  0.58890  0.59316  0.01189  1.0000
  C   C502      1.0  0.59474  0.34212  0.05207  1.0000
  H   H857      1.0  0.59321  0.34718  0.02054  1.0000
  H   H858      1.0  0.97651  0.41741  0.20360  1.0000
  H   H859      1.0  0.57640  0.42636  0.02968  1.0000
  C   C503      1.0  0.82497  0.56238  0.16680  1.0000
  H   H860      1.0  0.78616  0.39826  0.20045  1.0000
  H   H861      1.0  0.87977  0.56241  0.12164  1.0000
  C   C504      1.0  0.99053  0.49395  0.21418  1.0000
  H   H862      1.0  0.91793  0.46470  0.17832  1.0000
  C   C505      1.0  0.88656  0.53398  0.43995  1.0000
  C   C506      1.0  0.92979  0.47845  0.19121  1.0000
  H   H863      1.0  0.94407  0.43799  0.29272  1.0000
  C   C507      1.0  0.85382  0.35847  0.18098  1.0000
  H   H864      1.0  0.85818  0.53222  0.48453  1.0000
  H   H865      1.0  0.77845  0.36409  0.15511  1.0000
  H   H866      1.0  0.84014  0.34539  0.17215  1.0000
  H   H867      1.0  0.80979  0.36023  0.14243  1.0000
  H   H868      1.0  0.61333  0.33436  0.05456  1.0000
  H   H869      1.0  0.53590  0.36780  0.05861  1.0000
  H   H870      1.0  0.88381  0.65809  0.33112  1.0000
  H   H871      1.0  0.53850  0.53378  0.01753  1.0000
  H   H872      1.0  0.55253  0.33774  0.01970  1.0000
  C   C508      1.0  0.99241  0.34364  0.00757  1.0000
  H   H873      1.0  0.98228  0.34985  0.03388  1.0000
  H   H874      1.0  0.51883  0.34488  0.08265  1.0000
  H   H875      1.0  0.57390  0.33507  0.12548  1.0000
  C   C509      1.0  0.98794  0.65659  0.99844  1.0000
  H   H876      1.0  0.98409  0.64496  0.02309  1.0000
  C   C510      1.0  0.60719  0.57754  0.99521  1.0000
  H   H877      1.0  0.55059  0.45787  0.99574  1.0000
  C   C511      1.0  0.55450  0.53466  0.99664  1.0000
  Fe  Fe71      1.0  0.69406  0.48751  0.92702  1.0000
  H   H878      1.0  0.92871  0.49100  0.53223  1.0000
  S   S144      1.0  0.71503  0.47404  0.87054  1.0000
  Fe  Fe72      1.0  0.65634  0.52587  0.95794  1.0000
  H   H879      1.0  0.54348  0.49986  0.93982  1.0000
  S   S145      1.0  0.65343  0.49034  0.92528  1.0000
  H   H880      1.0  0.85243  0.56374  0.54628  1.0000
  S   S146      1.0  0.98320  0.62769  0.77847  1.0000
  H   H881      1.0  0.79848  0.44105  0.75268  1.0000
  Fe  Fe73      1.0  0.81637  0.50904  0.70083  1.0000
  S   S147      1.0  0.85396  0.50372  0.72263  1.0000
  S   S148      1.0  0.78894  0.52414  0.74838  1.0000
  Fe  Fe74      1.0  0.83200  0.49199  0.61558  1.0000
  S   S149      1.0  0.86997  0.48459  0.63377  1.0000
  S   S150      1.0  0.82788  0.47966  0.55088  1.0000
  Fe  Fe75      1.0  0.85402  0.46860  0.68858  1.0000
  S   S151      1.0  0.86510  0.43395  0.71855  1.0000
  Fe  Fe76      1.0  0.86679  0.52042  0.66602  1.0000
  S   S152      1.0  0.90051  0.54262  0.65698  1.0000
  S   S153      1.0  0.81589  0.47294  0.66905  1.0000
  S   S154      1.0  0.82942  0.52881  0.64565  1.0000
  H   H882      1.0  0.53355  0.53861  0.94243  1.0000
  C   C512      1.0  0.92840  0.54237  0.55471  1.0000
  S   S155      1.0  0.69285  0.46723  0.98478  1.0000
  S   S156      1.0  0.97285  0.39289  0.70221  1.0000
  S   S157      1.0  0.63411  0.55669  0.93148  1.0000
  C   C513      1.0  0.89417  0.50166  0.50740  1.0000
  C   C514      1.0  0.90922  0.48727  0.53648  1.0000
  S   S158      1.0  0.91804  0.64406  0.74147  1.0000
  C   C515      1.0  0.90490  0.57047  0.68189  1.0000
  C   C516      1.0  0.88579  0.58346  0.70107  1.0000
  C   C517      1.0  0.88996  0.60604  0.71923  1.0000
  C   C518      1.0  0.91328  0.61553  0.71899  1.0000
  C   C519      1.0  0.93238  0.60242  0.70009  1.0000
  C   C520      1.0  0.92814  0.58011  0.68130  1.0000
  H   H883      1.0  0.86780  0.57624  0.70157  1.0000
  H   H884      1.0  0.87510  0.61608  0.73380  1.0000
  H   H885      1.0  0.95041  0.60957  0.69963  1.0000
  H   H886      1.0  0.94299  0.57020  0.66647  1.0000
  C   C521      1.0  0.94317  0.40474  0.70889  1.0000
  C   C522      1.0  0.93588  0.42383  0.68506  1.0000
  C   C523      1.0  0.91212  0.43325  0.68829  1.0000
  C   C524      1.0  0.89537  0.42334  0.71497  1.0000
  C   C525      1.0  0.90264  0.40417  0.73876  1.0000
  C   C526      1.0  0.92653  0.39497  0.73593  1.0000
  H   H887      1.0  0.94861  0.43137  0.66391  1.0000
  H   H888      1.0  0.90667  0.44796  0.66979  1.0000
  H   H889      1.0  0.88975  0.39638  0.75941  1.0000
  H   H890      1.0  0.93198  0.38019  0.75433  1.0000
  H   H891      1.0  0.57450  0.52232  0.90767  1.0000
  C   C527      1.0  0.83287  0.49211  0.82407  1.0000
  C   C528      1.0  0.82446  0.46903  0.80291  1.0000
  N   N38       1.0  0.89143  0.52854  0.51526  1.0000
  H   H892      1.0  0.88700  0.52631  0.57926  1.0000
  H   H893      1.0  0.92996  0.52497  0.56998  1.0000
  H   H894      1.0  0.80790  0.52673  0.52590  1.0000
  C   C529      1.0  0.54725  0.49391  0.97010  1.0000
  C   C530      1.0  0.78852  0.45436  0.86885  1.0000
  C   C531      1.0  0.57431  0.60747  0.98797  1.0000
  H   H895      1.0  0.90708  0.46765  0.53030  1.0000
  C   C532      1.0  0.61136  0.57620  0.95422  1.0000
  C   C533      1.0  0.79496  0.42924  0.77839  1.0000
  H   H896      1.0  0.82814  0.50800  0.80608  1.0000
  C   C534      1.0  0.57841  0.60605  0.94693  1.0000
  C   C535      1.0  0.59693  0.59064  0.93025  1.0000
  H   H897      1.0  0.56746  0.61697  0.92810  1.0000
  H   H898      1.0  0.59997  0.58984  0.89852  1.0000
  C   C536      1.0  0.73630  0.48799  0.83777  1.0000
  C   C537      1.0  0.74755  0.50962  0.84736  1.0000
  C   C538      1.0  0.76398  0.52010  0.82002  1.0000
  C   C539      1.0  0.76969  0.50901  0.78297  1.0000
  C   C540      1.0  0.75883  0.48711  0.77373  1.0000
  C   C541      1.0  0.74223  0.47675  0.80091  1.0000
  H   H899      1.0  0.74367  0.51826  0.87588  1.0000
  H   H900      1.0  0.77231  0.53699  0.82759  1.0000
  H   H901      1.0  0.76281  0.47844  0.74525  1.0000
  H   H902      1.0  0.73376  0.45997  0.79314  1.0000
  H   H903      1.0  0.61140  0.37914  0.91518  1.0000
  C   C542      1.0  0.86200  0.41693  0.84579  1.0000
  H   H904      1.0  0.86436  0.44376  0.80080  1.0000
  H   H905      1.0  0.83194  0.41858  0.77812  1.0000
  H   H906      1.0  0.85750  0.40174  0.82575  1.0000
  H   H907      1.0  0.88197  0.41639  0.84787  1.0000
  H   H908      1.0  0.85425  0.41392  0.87590  1.0000
  N   N39       1.0  0.68125  0.55066  0.81742  1.0000
  C   C543      1.0  0.68550  0.52621  0.79736  1.0000
  C   C544      1.0  0.69561  0.56857  0.79359  1.0000
  C   C545      1.0  0.65465  0.55678  0.81590  1.0000
  C   C546      1.0  0.68878  0.54902  0.85967  1.0000
  C   C547      1.0  0.67041  0.50531  0.81395  1.0000
  C   C548      1.0  0.72315  0.56380  0.79078  1.0000
  C   C549      1.0  0.64629  0.58221  0.83063  1.0000
  C   C550      1.0  0.69476  0.57291  0.88143  1.0000
  H   H909      1.0  0.68214  0.52713  0.76517  1.0000
  H   H910      1.0  0.70466  0.52014  0.79920  1.0000
  H   H911      1.0  0.69290  0.58733  0.80490  1.0000
  H   H912      1.0  0.68924  0.56910  0.76279  1.0000
  H   H913      1.0  0.64853  0.55460  0.78509  1.0000
  H   H914      1.0  0.64383  0.54410  0.83423  1.0000
  H   H915      1.0  0.67468  0.53993  0.87798  1.0000
  H   H916      1.0  0.70509  0.53709  0.86131  1.0000
  H   H917      1.0  0.67195  0.50364  0.84624  1.0000
  H   H918      1.0  0.65115  0.50710  0.80654  1.0000
  H   H919      1.0  0.67739  0.48798  0.80034  1.0000
  H   H920      1.0  0.72808  0.54798  0.77124  1.0000
  H   H921      1.0  0.73214  0.57961  0.77735  1.0000
  H   H922      1.0  0.73079  0.56123  0.82016  1.0000
  H   H923      1.0  0.64900  0.58485  0.86262  1.0000
  H   H924      1.0  0.62650  0.58407  0.82709  1.0000
  H   H925      1.0  0.65465  0.59687  0.81339  1.0000
  H   H926      1.0  0.68591  0.57310  0.91148  1.0000
  H   H927      1.0  0.68880  0.58972  0.86746  1.0000
  H   H928      1.0  0.71445  0.57372  0.88613  1.0000
  Fe  Fe77      1.0  0.53012  0.33958  0.94990  1.0000
  H   H929      1.0  0.96805  0.36833  0.61893  1.0000
  H   H930      1.0  0.82526  0.45904  0.88612  1.0000
  H   H931      1.0  0.77684  0.43850  0.86484  1.0000
  H   H932      1.0  0.58339  0.49083  0.90925  1.0000
  H   H933      1.0  0.91915  0.55572  0.57525  1.0000
  H   H934      1.0  0.81669  0.42908  0.87998  1.0000
  C   C551      1.0  0.85426  0.44171  0.82960  1.0000
  C   C552      1.0  0.60350  0.38959  0.93992  1.0000
  H   H935      1.0  0.85273  0.49214  0.82673  1.0000
  H   H936      1.0  0.86164  0.45557  0.84977  1.0000
  Fe  Fe78      1.0  0.95687  0.65327  0.75218  1.0000
  H   H937      1.0  0.60550  0.51360  0.90606  1.0000
  H   H938      1.0  0.81502  0.40891  0.82018  1.0000
  C   C553      1.0  0.61544  0.41028  0.95364  1.0000
  S   S159      1.0  0.56800  0.35526  0.94041  1.0000
  H   H939      1.0  0.83426  0.46749  0.77362  1.0000
  N   N40       1.0  0.56550  0.50972  0.98918  1.0000
  S   S160      1.0  0.69712  0.52408  0.95584  1.0000
  S   S161      1.0  0.50494  0.33753  0.89927  1.0000
  H   H940      1.0  0.77992  0.43703  0.79716  1.0000
  C   C554      1.0  0.81428  0.51653  0.49988  1.0000
  H   H941      1.0  0.86038  0.52163  0.55407  1.0000
  H   H942      1.0  0.78358  0.46856  0.84811  1.0000
  H   H943      1.0  0.99172  0.44243  0.71981  1.0000
  C   C555      1.0  0.81818  0.42482  0.80112  1.0000
  H   H944      1.0  0.99517  0.46586  0.61121  1.0000
  H   H945      1.0  0.57336  0.46352  0.95772  1.0000
  H   H946      1.0  0.78415  0.46261  0.89850  1.0000
  H   H947      1.0  0.78885  0.41173  0.76620  1.0000
  C   C556      1.0  0.89991  0.34992  0.67142  1.0000
  C   C557      1.0  0.86876  0.55904  0.56276  1.0000
  C   C558      1.0  0.60582  0.42371  0.98615  1.0000
  C   C559      1.0  0.58150  0.38233  0.95774  1.0000
  H   H948      1.0  0.86374  0.56111  0.59476  1.0000
  H   H949      1.0  0.95125  0.33720  0.69725  1.0000
  H   H950      1.0  0.59861  0.52763  0.97241  1.0000
  H   H951      1.0  0.63228  0.41558  0.93943  1.0000
  H   H952      1.0  0.98384  0.46407  0.66050  1.0000
  C   C560      1.0  0.87700  0.53264  0.55361  1.0000
  H   H953      1.0  0.60173  0.49598  0.97285  1.0000
  H   H954      1.0  0.98844  0.62756  0.95474  1.0000
  H   H955      1.0  0.82358  0.49501  0.85339  1.0000
  H   H956      1.0  0.80551  0.47268  0.79554  1.0000
  C   C561      1.0  0.54647  0.54858  0.96036  1.0000
  H   H957      1.0  0.88307  0.57214  0.55577  1.0000
  H   H958      1.0  0.90327  0.49048  0.56766  1.0000
  N   N41       1.0  0.82747  0.44580  0.82498  1.0000
  C   C562      1.0  0.58757  0.50934  0.91961  1.0000
  C   C563      1.0  0.58899  0.51083  0.96508  1.0000
  C   C564      1.0  0.81549  0.44700  0.86576  1.0000
  H   H959      1.0  0.94701  0.54893  0.54925  1.0000
  H   H960      1.0  0.52951  0.49546  0.98672  1.0000
  H   H961      1.0  0.90435  0.34635  0.70239  1.0000
  C   C565      1.0  0.57165  0.39601  0.98985  1.0000
  Fe  Fe79      1.0  0.65217  0.47299  0.98464  1.0000
  Fe  Fe80      1.0  0.98931  0.36546  0.74293  1.0000
  C   C566      1.0  0.97598  0.34982  0.62071  1.0000
  H   H962      1.0  0.56224  0.55420  0.94197  1.0000
  C   C567      1.0  0.55414  0.46674  0.96703  1.0000
  H   H963      1.0  0.98325  0.34740  0.65032  1.0000
  C   C568      1.0  0.82445  0.49336  0.50397  1.0000
  C   C569      1.0  0.98412  0.34925  0.96980  1.0000
  C   C570      1.0  0.99022  0.64681  0.95954  1.0000
  H   H964      1.0  0.54288  0.45763  0.94503  1.0000
  H   H965      1.0  0.53713  0.56566  0.97073  1.0000
  H   H966      1.0  0.99155  0.34861  0.59906  1.0000
  C   C571      1.0  0.91571  0.54050  0.51493  1.0000
  H   H967      1.0  0.88657  0.33686  0.66097  1.0000
  S   S162      1.0  0.50140  0.35313  0.99393  1.0000
  H   H968      1.0  0.91742  0.35664  0.61488  1.0000
  H   H969      1.0  0.93395  0.36492  0.65635  1.0000
  C   C572      1.0  0.92278  0.35026  0.64428  1.0000
  H   H970      1.0  0.87609  0.49326  0.50669  1.0000
  H   H971      1.0  0.95066  0.33578  0.58121  1.0000
  S   S163      1.0  0.98219  0.66371  0.70257  1.0000
  H   H972      1.0  0.96761  0.35980  0.96753  1.0000
  H   H973      1.0  0.91434  0.55940  0.50427  1.0000
  Fe  Fe81      1.0  0.99465  0.65950  0.81568  1.0000
  S   S164      1.0  0.98503  0.34867  0.88816  1.0000
  C   C573      1.0  0.99508  0.66162  0.92686  1.0000
  S   S165      1.0  0.97272  0.33505  0.77657  1.0000
  H   H974      1.0  0.89101  0.36812  0.67153  1.0000
  Fe  Fe82      1.0  0.52021  0.65117  0.99159  1.0000
  S   S166      1.0  0.50041  0.84879  0.23815  1.0000
  C   C574      1.0  0.92211  0.90157  0.49010  1.0000
  H   H975      1.0  0.53489  0.70276  0.39747  1.0000
  C   C575      1.0  0.92448  0.72920  0.24117  1.0000
  C   C576      1.0  0.99092  0.68136  0.00537  1.0000
  H   H976      1.0  0.78878  0.92774  0.33355  1.0000
  Fe  Fe83      1.0  0.67248  0.98539  0.20999  1.0000
  H   H977      1.0  0.91223  0.73417  0.21729  1.0000
  H   H978      1.0  0.95392  0.67708  0.25820  1.0000
  C   C577      1.0  0.90586  0.72960  0.34229  1.0000
  H   H979      1.0  0.92441  0.74474  0.26231  1.0000
  S   S167      1.0  0.79858  0.97733  0.44915  1.0000
  H   H980      1.0  0.97453  0.69501  0.33687  1.0000
  Fe  Fe84      1.0  0.83863  0.98132  0.45672  1.0000
  S   S168      1.0  0.86415  0.95025  0.43416  1.0000
  Fe  Fe85      1.0  0.52409  0.85179  0.29003  1.0000
  S   S169      1.0  0.56309  0.86247  0.28318  1.0000
  S   S170      1.0  0.51506  0.81527  0.31382  1.0000
  H   H981      1.0  0.92746  0.88634  0.43147  1.0000
  H   H982      1.0  0.89623  0.91275  0.40235  1.0000
  C   C578      1.0  0.86946  0.91790  0.30312  1.0000
  H   H983      1.0  0.92280  0.67265  0.34426  1.0000
  H   H984      1.0  0.54290  0.79344  0.42035  1.0000
  S   S171      1.0  0.69776  0.97206  0.25806  1.0000
  Fe  Fe86      1.0  0.62176  0.97493  0.18088  1.0000
  S   S172      1.0  0.58545  0.95650  0.18432  1.0000
  S   S173      1.0  0.65847  0.95871  0.16491  1.0000
  C   C579      1.0  0.72086  0.98595  0.28534  1.0000
  H   H985      1.0  0.99116  0.91501  0.42172  1.0000
  H   H986      1.0  0.60430  0.85699  0.17777  1.0000
  H   H987      1.0  0.62704  0.83564  0.19006  1.0000
  H   H988      1.0  0.57300  0.78766  0.25162  1.0000
  C   C580      1.0  0.56924  0.88878  0.25609  1.0000
  C   C581      1.0  0.59293  0.89729  0.25306  1.0000
  C   C582      1.0  0.59823  0.91812  0.23133  1.0000
  C   C583      1.0  0.57989  0.93034  0.21207  1.0000
  C   C584      1.0  0.55631  0.92156  0.21459  1.0000
  C   C585      1.0  0.55094  0.90099  0.23678  1.0000
  H   H989      1.0  0.60718  0.88791  0.26789  1.0000
  H   H990      1.0  0.61647  0.92474  0.22948  1.0000
  H   H991      1.0  0.54211  0.93083  0.19949  1.0000
  H   H992      1.0  0.53263  0.89463  0.23892  1.0000
  C   C586      1.0  0.74987  0.98313  0.33831  1.0000
  C   C587      1.0  0.73139  0.97306  0.31605  1.0000
  H   H993      1.0  0.91623  0.69135  0.23730  1.0000
  H   H994      1.0  0.75762  0.97303  0.36181  1.0000
  H   H995      1.0  0.72516  0.95511  0.32260  1.0000
  H   H996      1.0  0.85378  0.92500  0.36142  1.0000
  C   C588      1.0  0.91745  0.89955  0.44987  1.0000
  C   C589      1.0  0.89971  0.91461  0.43342  1.0000
  C   C590      1.0  0.88644  0.93196  0.45681  1.0000
  C   C591      1.0  0.80180  0.96350  0.27421  1.0000
  H   H997      1.0  0.53492  0.79572  0.12399  1.0000
  H   H998      1.0  0.54819  0.77093  0.14950  1.0000
  H   H999      1.0  0.58814  0.78962  0.14685  1.0000
  C   C592      1.0  0.55640  0.84197  0.16883  1.0000
  H   H1000     1.0  0.89754  0.71947  0.36714  1.0000
  C   C593      1.0  0.97338  0.77151  0.29471  1.0000
  H   H1001     1.0  0.55672  0.76367  0.42449  1.0000
  C   C594      1.0  0.54580  0.77799  0.44027  1.0000
  H   H1002     1.0  0.54551  0.81889  0.23380  1.0000
  H   H1003     1.0  0.53298  0.80134  0.19617  1.0000
  C   C595      1.0  0.55042  0.80600  0.20899  1.0000
  H   H1004     1.0  0.54537  0.77298  0.24215  1.0000
  H   H1005     1.0  0.51067  0.72177  0.45769  1.0000
  S   S174      1.0  0.67794  0.98291  0.05700  1.0000
  H   H1006     1.0  0.95985  0.78370  0.28357  1.0000
  C   C596      1.0  0.79727  0.93312  0.36134  1.0000
  H   H1007     1.0  0.52572  0.75733  0.48322  1.0000
  H   H1008     1.0  0.90948  0.74827  0.35292  1.0000
  H   H1009     1.0  0.50039  0.71177  0.12962  1.0000
  H   H1010     1.0  0.86767  0.96466  0.29985  1.0000
  C   C597      1.0  0.55198  0.78577  0.12873  1.0000
  H   H1011     1.0  0.78445  0.95404  0.27872  1.0000
  C   C598      1.0  0.53586  0.72166  0.40890  1.0000
  H   H1012     1.0  0.50214  0.78731  0.39271  1.0000
  H   H1013     1.0  0.93817  0.71036  0.35443  1.0000
  H   H1014     1.0  0.78271  0.93989  0.38239  1.0000
  C   C599      1.0  0.81598  0.95311  0.35509  1.0000
  H   H1015     1.0  0.65253  0.93097  0.00274  1.0000
  H   H1016     1.0  0.55663  0.78495  0.46480  1.0000
  H   H1017     1.0  0.89588  0.70902  0.26713  1.0000
  H   H1018     1.0  0.82511  0.95549  0.38347  1.0000
  C   C600      1.0  0.95406  0.69091  0.28245  1.0000
  C   C601      1.0  0.91542  0.70588  0.26054  1.0000
  H   H1019     1.0  0.80102  0.98068  0.29133  1.0000
  C   C602      1.0  0.51062  0.83501  0.46130  1.0000
  C   C603      1.0  0.66680  0.99167  0.01054  1.0000
  H   H1020     1.0  0.72281  0.96933  0.41420  1.0000
  S   S175      1.0  0.96742  0.69196  0.16891  1.0000
  C   C604      1.0  0.88956  0.67394  0.31368  1.0000
  C   C605      1.0  0.52157  0.76893  0.45771  1.0000
  H   H1021     1.0  0.88535  0.92887  0.31005  1.0000
  S   S176      1.0  0.97023  0.80067  0.36141  1.0000
  S   S177      1.0  0.98923  0.85527  0.42741  1.0000
  H   H1022     1.0  0.99265  0.90125  0.48412  1.0000
  H   H1023     1.0  0.88037  0.69013  0.32722  1.0000
  C   C606      1.0  0.91731  0.67533  0.31335  1.0000
  H   H1024     1.0  0.80250  0.96850  0.24257  1.0000
  N   N42       1.0  0.92860  0.69774  0.29633  1.0000
  C   C607      1.0  0.97070  0.68102  0.31425  1.0000
  H   H1025     1.0  0.94251  0.73186  0.31809  1.0000
  H   H1026     1.0  0.51036  0.97073  0.20235  1.0000
  C   C608      1.0  0.82353  0.94638  0.28197  1.0000
  H   H1027     1.0  0.83496  0.90947  0.32866  1.0000
  C   C609      1.0  0.57245  0.80210  0.14269  1.0000
  H   H1028     1.0  0.60001  0.80499  0.20588  1.0000
  H   H1029     1.0  0.57804  0.81348  0.11727  1.0000
  H   H1030     1.0  0.87478  0.89879  0.30840  1.0000
  C   C610      1.0  0.50641  0.76761  0.38968  1.0000
  H   H1031     1.0  0.55769  0.77700  0.10000  1.0000
  Fe  Fe87      1.0  0.66172  0.98856  0.12031  1.0000
  H   H1032     1.0  0.94264  0.72659  0.22681  1.0000
  H   H1033     1.0  0.69513  0.99510  0.39294  1.0000
  C   C611      1.0  0.60929  0.83742  0.17611  1.0000
  C   C612      1.0  0.56051  0.78293  0.22796  1.0000
  H   H1034     1.0  0.61182  0.83133  0.14484  1.0000
  H   H1035     1.0  0.86550  0.91931  0.27142  1.0000
  C   C613      1.0  0.84744  0.92491  0.33056  1.0000
  H   H1036     1.0  0.80573  0.97026  0.35179  1.0000
  C   C614      1.0  0.59060  0.82232  0.19927  1.0000
  H   H1037     1.0  0.58713  0.83160  0.22842  1.0000
  H   H1038     1.0  0.95524  0.96316  0.47563  1.0000
  N   N43       1.0  0.56718  0.81773  0.17924  1.0000
  H   H1039     1.0  0.96343  0.70654  0.26953  1.0000
  C   C615      1.0  0.85303  0.96814  0.32269  1.0000
  H   H1040     1.0  0.81681  0.92774  0.27735  1.0000
  H   H1041     1.0  0.53619  0.83590  0.11522  1.0000
  H   H1042     1.0  0.80544  0.91702  0.37513  1.0000
  C   C616      1.0  0.72859  0.97638  0.44308  1.0000
  H   H1043     1.0  0.55316  0.85340  0.19604  1.0000
  N   N44       1.0  0.83455  0.94849  0.32196  1.0000
  H   H1044     1.0  0.86192  0.96847  0.35170  1.0000
  H   H1045     1.0  0.89265  0.73201  0.31904  1.0000
  H   H1046     1.0  0.83750  0.94908  0.25801  1.0000
  H   H1047     1.0  0.56901  0.85225  0.14953  1.0000
  C   C617      1.0  0.53274  0.84165  0.14651  1.0000
  H   H1048     1.0  0.50878  0.98883  0.24550  1.0000
  H   H1049     1.0  0.74616  0.96735  0.44870  1.0000
  H   H1050     1.0  0.68250  0.99511  0.46011  1.0000
  H   H1051     1.0  0.51872  0.83036  0.16057  1.0000
  C   C618      1.0  0.92988  0.71746  0.32748  1.0000
  H   H1052     1.0  0.52080  0.83972  0.43473  1.0000
  H   H1053     1.0  0.56996  0.77056  0.20612  1.0000
  Fe  Fe88      1.0  0.98322  0.81524  0.42059  1.0000
  S   S178      1.0  0.96074  0.81382  0.47738  1.0000
  C   C619      1.0  0.98154  0.77523  0.33313  1.0000
  Fe  Fe89      1.0  0.98981  0.67758  0.11570  1.0000
  H   H1054     1.0  0.52511  0.86038  0.14611  1.0000
  H   H1055     1.0  0.96291  0.93169  0.47076  1.0000
  C   C620      1.0  0.49987  0.95198  0.25543  1.0000
  C   C621      1.0  0.49891  0.97468  0.22963  1.0000
  H   H1056     1.0  0.98844  0.67574  0.29994  1.0000
  C   C622      1.0  0.84398  0.99403  0.31503  1.0000
  Fe  Fe90      1.0  0.96958  0.85312  0.48624  1.0000
  H   H1057     1.0  0.97736  0.75060  0.24007  1.0000
  H   H1058     1.0  0.51238  0.78533  0.47104  1.0000
  H   H1059     1.0  0.55007  0.72242  0.43111  1.0000
  S   S179      1.0  0.99017  0.69454  0.05410  1.0000
  H   H1060     1.0  0.71585  0.97071  0.46696  1.0000
  H   H1061     1.0  0.52486  0.76680  0.37592  1.0000
  N   N45       1.0  0.50515  0.75616  0.42982  1.0000
  C   C623      1.0  0.98316  0.75264  0.27003  1.0000
  H   H1062     1.0  0.96351  0.66463  0.32841  1.0000
  C   C624      1.0  0.96480  0.94797  0.48979  1.0000
  H   H1063     1.0  0.51877  0.94872  0.26409  1.0000
  C   C625      1.0  0.51104  0.72944  0.42756  1.0000
  H   H1064     1.0  0.54142  0.73217  0.38281  1.0000
  H   H1065     1.0  0.50071  0.72846  0.19827  1.0000
  H   H1066     1.0  0.88325  0.67085  0.28328  1.0000
  H   H1067     1.0  0.50918  0.77096  0.99896  1.0000
  S   S180      1.0  0.49659  0.87112  0.32985  1.0000
  H   H1068     1.0  0.49687  0.71914  0.41254  1.0000
  C   C626      1.0  0.49654  0.74032  0.17429  1.0000
  H   H1069     1.0  0.83861  0.99608  0.28406  1.0000
  H   H1070     1.0  0.53124  0.88740  0.61788  1.0000
  H   H1071     1.0  0.53685  0.76860  0.97049  1.0000
  H   H1072     1.0  0.55308  0.90795  0.59983  1.0000
  C   C627      1.0  0.91024  0.73977  0.66317  1.0000
  C   C628      1.0  0.72578  0.98641  0.60339  1.0000
  H   H1073     1.0  0.89783  0.74040  0.63807  1.0000
  H   H1074     1.0  0.95525  0.94523  0.51872  1.0000
  H   H1075     1.0  0.63795  0.90611  0.97997  1.0000
  S   S181      1.0  0.64764  0.98614  0.71436  1.0000
  Fe  Fe91      1.0  0.51681  0.86451  0.70947  1.0000
  S   S182      1.0  0.53158  0.90189  0.71810  1.0000
  S   S183      1.0  0.53573  0.83001  0.68981  1.0000
  Fe  Fe92      1.0  0.64441  0.96434  0.76942  1.0000
  S   S184      1.0  0.63748  0.92426  0.76995  1.0000
  S   S185      1.0  0.67612  0.98118  0.79818  1.0000
  C   C629      1.0  0.56077  0.90732  0.73428  1.0000
  C   C630      1.0  0.57583  0.88878  0.74749  1.0000
  C   C631      1.0  0.59939  0.89402  0.75874  1.0000
  C   C632      1.0  0.60789  0.91773  0.75664  1.0000
  C   C633      1.0  0.59274  0.93613  0.74352  1.0000
  C   C634      1.0  0.56925  0.93096  0.73262  1.0000
  H   H1076     1.0  0.56933  0.87051  0.74900  1.0000
  H   H1077     1.0  0.61105  0.87971  0.76890  1.0000
  H   H1078     1.0  0.59914  0.95439  0.74130  1.0000
  H   H1079     1.0  0.55769  0.94535  0.72238  1.0000
  H   H1080     1.0  0.99046  0.70755  0.64325  1.0000
  C   C635      1.0  0.62473  0.88509  0.55913  1.0000
  C   C636      1.0  0.59834  0.88228  0.57434  1.0000
  H   H1081     1.0  0.88573  0.71041  0.74951  1.0000
  H   H1082     1.0  0.58903  0.94739  0.91118  1.0000
  H   H1083     1.0  0.91233  0.92076  0.54457  1.0000
  H   H1084     1.0  0.52625  0.72388  0.87786  1.0000
  C   C637      1.0  0.64991  0.92155  0.97396  1.0000
  H   H1085     1.0  0.92773  0.77315  0.64626  1.0000
  H   H1086     1.0  0.54089  0.83858  0.49918  1.0000
  C   C638      1.0  0.56790  0.87498  0.62816  1.0000
  H   H1087     1.0  0.71806  0.97254  0.58518  1.0000
  H   H1088     1.0  0.63377  0.90012  0.57427  1.0000
  H   H1089     1.0  0.54167  0.75803  0.83795  1.0000
  C   C639      1.0  0.92555  0.70073  0.63864  1.0000
  C   C640      1.0  0.51572  0.73099  0.85433  1.0000
  C   C641      1.0  0.90891  0.91897  0.51344  1.0000
  H   H1090     1.0  0.93156  0.69326  0.72043  1.0000
  H   H1091     1.0  0.91486  0.70465  0.61220  1.0000
  H   H1092     1.0  0.87156  0.73263  0.71810  1.0000
  C   C642      1.0  0.54940  0.88855  0.60321  1.0000
  C   C643      1.0  0.51099  0.76003  0.80088  1.0000
  H   H1093     1.0  0.91332  0.74220  0.74291  1.0000
  C   C644      1.0  0.52442  0.75037  0.83159  1.0000
  H   H1094     1.0  0.59716  0.92992  0.60350  1.0000
  H   H1095     1.0  0.97986  0.91705  0.54369  1.0000
  H   H1096     1.0  0.88121  0.94728  0.51541  1.0000
  H   H1097     1.0  0.93965  0.66585  0.61607  1.0000
  C   C645      1.0  0.87641  0.71331  0.72156  1.0000
  H   H1098     1.0  0.90061  0.75067  0.68669  1.0000
  C   C646      1.0  0.92929  0.73002  0.74294  1.0000
  H   H1099     1.0  0.87918  0.70229  0.66015  1.0000
  C   C647      1.0  0.52196  0.83436  0.49794  1.0000
  H   H1100     1.0  0.61501  0.86003  0.69185  1.0000
  H   H1101     1.0  0.54831  0.87984  0.57353  1.0000
  H   H1102     1.0  0.50557  0.98453  0.74659  1.0000
  H   H1103     1.0  0.69881  0.98307  0.65101  1.0000
  C   C648      1.0  0.51716  0.76537  0.96979  1.0000
  H   H1104     1.0  0.57455  0.92608  0.64331  1.0000
  H   H1105     1.0  0.92796  0.72010  0.77113  1.0000
  C   C649      1.0  0.89112  0.70231  0.68588  1.0000
  H   H1106     1.0  0.70141  0.98611  0.98012  1.0000
  H   H1107     1.0  0.94560  0.74130  0.74457  1.0000
  C   C650      1.0  0.93226  0.71167  0.70783  1.0000
  N   N46       1.0  0.91479  0.71393  0.67493  1.0000
  H   H1108     1.0  0.99057  0.72305  0.57476  1.0000
  H   H1109     1.0  0.56355  0.87969  0.65971  1.0000
  S   S186      1.0  0.96622  0.68451  0.79191  1.0000
  H   H1110     1.0  0.94656  0.75380  0.67390  1.0000
  Fe  Fe93      1.0  0.50792  0.81128  0.72869  1.0000
  H   H1111     1.0  0.67585  0.95897  0.87748  1.0000
  Fe  Fe94      1.0  0.99585  0.80526  0.50641  1.0000
  S   S187      1.0  0.94473  0.88354  0.51242  1.0000
  H   H1112     1.0  0.89403  0.68302  0.69360  1.0000
  N   N47       1.0  0.59444  0.87857  0.61815  1.0000
  C   C651      1.0  0.60797  0.85570  0.62840  1.0000
  H   H1113     1.0  0.58847  0.89861  0.56457  1.0000
  C   C652      1.0  0.60415  0.89907  0.64239  1.0000
  C   C653      1.0  0.60521  0.84787  0.67190  1.0000
  H   H1114     1.0  0.62572  0.89614  0.84269  1.0000
  C   C654      1.0  0.59398  0.92450  0.63455  1.0000
  H   H1115     1.0  0.60228  0.84026  0.60950  1.0000
  H   H1116     1.0  0.62772  0.85743  0.62258  1.0000
  S   S188      1.0  0.52273  0.78508  0.77437  1.0000
  H   H1117     1.0  0.94129  0.74709  0.62241  1.0000
  H   H1118     1.0  0.60049  0.89620  0.67437  1.0000
  H   H1119     1.0  0.62416  0.89966  0.63878  1.0000
  H   H1120     1.0  0.61340  0.82951  0.67464  1.0000
  S   S189      1.0  0.75952  0.98977  0.54176  1.0000
  H   H1121     1.0  0.58614  0.84684  0.68256  1.0000
  H   H1122     1.0  0.66792  0.91475  0.96298  1.0000
  S   S190      1.0  0.52474  0.82530  0.57754  1.0000
  C   C655      1.0  0.93293  0.75393  0.65085  1.0000
  H   H1123     1.0  0.95118  0.71324  0.69599  1.0000
  N   N48       1.0  0.63574  0.93043  0.90393  1.0000
  C   C656      1.0  0.65982  0.92283  0.88472  1.0000
  C   C657      1.0  0.61964  0.90878  0.90461  1.0000
  C   C658      1.0  0.63843  0.93958  0.94564  1.0000
  C   C659      1.0  0.62519  0.95058  0.88030  1.0000
  C   C660      1.0  0.68050  0.94090  0.88873  1.0000
  C   C661      1.0  0.61059  0.90041  0.86420  1.0000
  H   H1124     1.0  0.94407  0.70710  0.63131  1.0000
  C   C662      1.0  0.60005  0.96056  0.89479  1.0000
  H   H1125     1.0  0.66636  0.90529  0.89633  1.0000
  H   H1126     1.0  0.65805  0.91947  0.85243  1.0000
  H   H1127     1.0  0.60358  0.91184  0.92493  1.0000
  H   H1128     1.0  0.62919  0.89288  0.91694  1.0000
  H   H1129     1.0  0.64915  0.95627  0.94602  1.0000
  H   H1130     1.0  0.62059  0.94516  0.95951  1.0000
  H   H1131     1.0  0.63718  0.96639  0.88013  1.0000
  H   H1132     1.0  0.62455  0.94551  0.84843  1.0000
  H   H1133     1.0  0.68620  0.94280  0.91963  1.0000
  H   H1134     1.0  0.69652  0.93406  0.87083  1.0000
  C   C663      1.0  0.68273  0.99159  0.97710  1.0000
  H   H1135     1.0  0.59819  0.91397  0.85157  1.0000
  C   C664      1.0  0.71485  0.99227  0.64085  1.0000
  H   H1136     1.0  0.60019  0.88361  0.86797  1.0000
  H   H1137     1.0  0.62478  0.88948  0.52724  1.0000
  H   H1138     1.0  0.59074  0.86687  0.55752  1.0000
  C   C665      1.0  0.50913  0.82797  0.53280  1.0000
  H   H1139     1.0  0.60330  0.93778  0.65336  1.0000
  Fe  Fe95      1.0  0.50897  0.82824  0.64131  1.0000
  H   H1140     1.0  0.56315  0.85557  0.62480  1.0000
  C   C666      1.0  0.50662  0.77943  0.93528  1.0000
  H   H1141     1.0  0.60194  0.97687  0.91397  1.0000
  C   C667      1.0  0.92773  0.67293  0.64095  1.0000
  C   C668      1.0  0.99519  0.69624  0.97262  1.0000
  H   H1142     1.0  0.99419  0.94130  0.56777  1.0000
  H   H1143     1.0  0.85912  0.70358  0.72468  1.0000
  H   H1144     1.0  0.51574  0.77118  0.90824  1.0000
  C   C669      1.0  0.99336  0.73536  0.59926  1.0000
  S   S191      1.0  0.52084  0.69065  0.97425  1.0000
  C   C670      1.0  0.99345  0.72646  0.63808  1.0000
  H   H1145     1.0  0.58947  0.96567  0.86892  1.0000
  H   H1146     1.0  0.63547  0.86807  0.56120  1.0000
  H   H1147     1.0  0.50647  0.80419  0.86794  1.0000
  H   H1148     1.0  0.51331  0.79824  0.93722  1.0000
  H   H1149     1.0  0.51522  0.74557  0.96548  1.0000
  C   C671      1.0  0.89123  0.93409  0.49697  1.0000
  H   H1150     1.0  0.93569  0.66697  0.66862  1.0000
  Fe  Fe96      1.0  0.99365  0.69322  0.74311  1.0000
  S   S192      1.0  0.61694  0.98922  0.79943  1.0000
  H   H1151     1.0  0.99159  0.96977  0.51680  1.0000
  H   H1152     1.0  0.90994  0.66435  0.63800  1.0000
  C   C672      1.0  0.99145  0.95448  0.49489  1.0000
