data_image0
_chemical_formula_structural       HFeS2CSHC2SFeSHCH2CHC2SH2FeS2H2SH3CH3C7H7SC3H4FeCHC2HC6H10FeC2H4C7H4SH2C2H2CS2C2HNH2CSH4CH4CH6C3HCH3CHNH2SCH3NH5NC8H8CH13CH2C3H2SFeCH3C2HCH3CH2CH2NCHCH8CNCH3C2H3CH3CHS2H2SCHC2SFeH2C2H5CFeCHSCHCH5CHFeH2SHCH2SHSHCSHFeCHCH2CH7CH2CSCFeSHNCFeHSH2SH2SH2SCFeSHCSH3S3HFeS2C2H2C7H9CFeCHCHC2HFeHCHC2HCH3CHC6H4CSH3CHCFeH2NHC6H4FeHSC2HCH8SHC4HCHCHCHCH2SHCFeHNH3FeC2SH6CH4CH2CH3CHCH5CHNH2SCFeH4CH2NC8H8CHCH9CFeH3C2H2CSCH6C5H6CHC2H2SFeHC4HCH6CHC2H2SNH2SHFeH2C3HC2HCH5CH4SCH4NCH7CFe2SH3SH2SHFeSFeH2FeS2C2FeHCSHCSHFeSH2CHSFeSHFeSH2SCH2SHCH2C2HCH2C6H4C2NSHCHC7H4CH2C2SHSHC2H7Fe2H2C6H6SHCSCH5CHC5S2H2CHCH4CH4CH4CH2CNC5H17CFeHCSHCHFeSNHCSCH2SCH2CH3CH2CHC5HFeH4CNC8H13CH6CNC8H11FeCHCNHSHCHFeCHSH9C2HSHCH3NHSCHCHSCHCHCNH2CH2CH3SHSHSHFeSFeSFeHSH2FeS2CSCSCSFeSFeSFeSFeHCSCH2FeSCFeHSH2SHFeSH2CH2FeH3SFeH4SC6H6CHC4H2C6H4CH2CHCH3C2H3C6H4SCHCFeH6C2H2C2H6C2HCH2NC4HCH8NHNHCH6SCNC8H11SH10FeNC2NCH2C3HCHCH3CH2NH2SH2CH2CH2SH5C4HNC2HS2H6CHSCFeCH2SFeCH2C2H3CH2CH5C4HCHCH2C2FeHCHCHCHSCSH4CHCSC2H3CH2CS2CH2SC3HCFeS2FeSCFeSH2FeSH2SCFeH2CFeSCSCSC2FeSFeCHC3H4C6H5C2H3CFeSH2FeSCH2SH2C8H8FeH2CH3C2HC3H2C6H4NC8H14SH8CH2CNCHCH2CHSC3SNHC2HCHCH6CFeH4C4HCH2SHCSH2CH5CH4SCH2CHC2HNCHCH3CSCSH3CHC2H2CH2NC7H21CH2CHC2HCH2FeCHSH3CHCH4SH5CH3CH3CNHFeH2CH4FeCHCH4NH2SCH3SH3C2HC3Fe2S3HSH2SFeSFeS2FeCSH4SH4Fe2HCH2NH3SH3FeC7H5CHC3H2C6H5C2H3C2HCSH4C6H4CH2NH3SCH4SFeCHS2C2H2CHC2H3CHCH2SHNH2SC5HCSH6CHCNH4C2H3CSC2SHSHC2H3NC4NC3H8CH13C3H2CH2C2H2CH3NC3H2CFeH4C2HC2H4C7H10NH2CH2CH4SH6CH6CH3CH4C3SFeCSHFeCFeCH2CHC2H12SH2SNH3SCH3C2HSC3HSH3CH2SH2FeSHCH2Fe2SFeS2H2FeS2FeSHSFeSHS2HFeSHSFeSFeCSHS2HFeSFeHCH4CHC6H4CHCHNHC3H2SC4H2C6H4C4H2SC2HFeH2C3HSC2SCSC6H4CHCHCH3CHCHSHC3H3CH2CHCSCH4NCH2CNC8H22NC8H12CH6CSH2C2H2CH2SFeCH3CH2CH5CHCFeH2CHCHCHCFeH4C2HNH5C2FeHNH2NC3H4CH3SHSHSH4FeCH2C3H4CH2C2H3C2SH2CHC2SCSH2SHFeSFe2SHSHCSH2SH2FeSHCSHFeSFeCFeS2HSFeSFeSHS2CFe2SCH4SHC2H3C6H7C5SH4C2H3SC7H4FeC2HCHC4SHCH2FeH4C7H7S2NC4HC3H20C2H2CH2CSH3FeHCFeC3HFeH3CS2C2SHCH5CH5CH2FeH3C2FeCH5CHCSCH2CH2CHCS2C2HCH6CHSH2CH2NCHNH8CH2C2HNHCHSCHCHCHCSHCH4CFeCHC2H7CHSH4CNC4H2C2HNCFeCH8SH2C2H2C2H2NCH2CSC3SH2FeSCFeHSCHCHSH4S2C2SCH2SHFeSC2HSH3SHCH4C6H5C2FeHC2HFeH4C6H8CH4CNCH3CHC6H4CFeCHSHCSH9C2HCH7FeH2CHCH2C3SHCH5C2H2SCHCHCHSH9C2H2CHC2HC2NHCHNHSH2CH4CNHCH8NCH2C2H2FeCHSH5SHCH3CH2SHC4H3CNC5H2SHSCH3SHFeHCFeHCH2CH2NH4C2FeH4C2H3SNHCHC2HSH3FeHC3H2S2CHCFeSCHSFeS2C2SHFeSCHS3H2C3FeHSH3S2H4CHC7H4CH3CHC2SCH2SCH5FeC6H7FeHSCH3NHSHFeC6H5CH2CSHSH5C2SH3SH10CHNC2NC8SH4SH3CH2CFeH8CH2CSC3H3C2H2CH4CH6CNH5CHCHCHC2H3CHCHCHCH2C3HSCHNH6CHCH3CSH4NCHC4H5FeH4FeCNC6SH2FeH2CH4FeCHC3H6C2HCH2CH7CH4C3NHSH2SH3C2H5SFeSHFeSFe2SHSH4FeSH2CHCSCFeSH2S3H2CFeS2H2SCH2FeSC2HFeSCH2CHFeS2CSH2CHC6H7FeSHCHC7HCH2SHC2HCH2FeH3C2FeNC6H4C4HCH4CHC2HCHCHSH2CH3SHC3H3SC2H9CH4C2HC2HCH2CH7C2H4CH5SHC2H2CH4FeNHCH2C2HNH4C2HC2H5C2HCSC3H3CH2CSFeSC2NCNH2CH5SCH7CHSHCH4CH3CNHCH3NH3CH6FeH3CHSH3SH3CHNC5H2CHCHSHC3FeC2H4C3FeHC2HCSC3SFeSHCHSCH3FeCSCS2HFeS2FeCFeS3HCFeSFeSC2SFeHFeS2FeSFeS3FeS2FeHCFeHSHCHSC6H4C7H3C4H2CH3C3SC3H2CH2C3H4C6H4C4HC3H3CHCH2CH3C2H3CH2NHFeH4C3H2CH5CH4SH2CSC2HC2SHCSH5FeH2NHCH2NC4SHCH8CFeH2FeH3SNHC3NHSC2H6CH2SCHCHCH2CH2C2H2SH2CH4NC3FeC2H18C2H10CH2CH7CH2CH4CHCH4NH2CSH3CSCHCH3CH2CHCH3CSH3CH2CH3C2SH5CHCH2CHCHFeHCHNHCH3C3HCHSNFeSHCH2FeSH2CFeSHFeHSHSH3S2CFeSHCSCH2CSHSH4C7H7NCH3SHC6H5CH3SH3C2HC2H3C2H7C6H6C2H2CHCH3SH2CH2C2HCHCHCH3C2H3CNHC2HSH2C2H2CHCHC2HC2SH3NHC3HSH6SHSH3FeH5C2FeH6CSH2CH4NS2HC2HCH4FeC4HC4H5CH2NH4CH3NC2H2CH2C2FeHCHCHC2H6CHCHCSH5CH2C2HCHSCSH2NH3FeH2SHCFeS2CHNSC2HSFeS2HSHFeHSH2SH3SCH3CSC6H4CHCHCH2CHC7H8S2HC6H5C3H3CHC2SCSH3CNHNH5CH3CH2NCFeH4CFe2HNC6H9FeH6CH3CSH7C2HCH2CH2CHCH4C2H4SH2NC4HC3H9CHCH3NH5C2H4FeC2H3CH3CHCH2CS2CHS2FeCH2CSH3C2HCH8CH3C2H2CH3CFeC2H2CHCH2SHC3HFeHSH3SHCFeHSHCSC4HCHFeSFeHSFeNS2FeSH3SCHFeHSH2SHFeS2HFeHSHSH3C6H4C2HCH3NH3C2H2CHCH2C9H5SCHCH4FeC3SHC2H3C8H3CH8CHCHCH2SHCH4CH3CHC2H2CH3C2H3CHCH3CHSH3C2H5C2H5C4H5FeSHC4H2CH3CH2CHSCH4NFeC2H2CFeCH2C2HSHCHFeH4NHSCH2NC5FeC2HSH10SCH6SH2C4HCHCH2NCH2CSH6SHFeSHCH3C2HNH3C2HCHCH4CH5CH3CH2CH3NC2HC2SC2H2CSH2S2HFeS5HFeS2HCHS2HSHFeSFeS2H2C2FeS2CH2SHSHSHSH5FeS2FeH2CH2C6H7SHFeC3NCH6C4H3C7H4CHFeC2SFeH4C8H3CHCH4CHC2HSHCHC2H3CFeH2CNC2FeH3FeC2H4CH2NC4HC3H9CH5C2H3NC8H11FeH6SHNC8H13CH6FeH2C3H2C3H2CHCFeNC8H8SCSH2CFeCHSCH8CH2SCH14FeC
_chemical_formula_sum              "H2880 Fe240 S480 C1680 N120"
_cell_length_a       62.0952
_cell_length_b       62.0271
_cell_length_c       61.9381
_cell_angle_alpha    87.5802
_cell_angle_beta     86.6575
_cell_angle_gamma    86.8088

_space_group_name_H-M_alt    "P 1"
_space_group_IT_number       1

loop_
  _space_group_symop_operation_xyz
  'x, y, z'

loop_
  _atom_site_type_symbol
  _atom_site_label
  _atom_site_symmetry_multiplicity
  _atom_site_fract_x
  _atom_site_fract_y
  _atom_site_fract_z
  _atom_site_occupancy
  H   H1        1.0  0.09163  0.02050  0.27930  1.0000
  Fe  Fe1       1.0  0.37239  0.19145  0.49327  1.0000
  S   S1        1.0  0.38238  0.19813  0.45778  1.0000
  S   S2        1.0  0.49530  0.17159  0.35231  1.0000
  C   C1        1.0  0.10878  0.25689  0.02489  1.0000
  S   S3        1.0  0.47489  0.16794  0.41646  1.0000
  H   H2        1.0  0.37140  0.14865  0.47277  1.0000
  C   C2        1.0  0.11668  0.08840  0.36161  1.0000
  C   C3        1.0  0.12141  0.04367  0.22441  1.0000
  S   S4        1.0  0.29972  0.04419  0.11732  1.0000
  Fe  Fe2       1.0  0.33625  0.13419  0.03162  1.0000
  S   S5        1.0  0.34636  0.12023  0.06427  1.0000
  H   H3        1.0  0.11937  0.13024  0.41462  1.0000
  C   C4        1.0  0.29665  0.02237  0.23433  1.0000
  H   H4        1.0  0.49001  0.19684  0.27565  1.0000
  H   H5        1.0  0.11491  0.04769  0.26850  1.0000
  C   C5        1.0  0.44810  0.17511  0.50493  1.0000
  H   H6        1.0  0.27879  0.02238  0.23688  1.0000
  C   C6        1.0  0.34045  0.02944  0.25047  1.0000
  C   C7        1.0  0.49586  0.01855  0.18330  1.0000
  S   S6        1.0  0.03874  0.16663  0.30763  1.0000
  H   H7        1.0  0.34765  0.16932  0.43035  1.0000
  H   H8        1.0  0.46571  0.23184  0.44860  1.0000
  Fe  Fe3       1.0  0.04029  0.13087  0.30250  1.0000
  S   S7        1.0  0.07339  0.11557  0.29227  1.0000
  S   S8        1.0  0.50083  0.22226  0.31354  1.0000
  H   H9        1.0  0.46580  0.18611  0.47603  1.0000
  H   H10       1.0  0.43923  0.21110  0.46262  1.0000
  S   S9        1.0  0.03656  0.17441  0.36756  1.0000
  H   H11       1.0  0.47946  0.14586  0.31307  1.0000
  H   H12       1.0  0.05990  0.13040  0.36358  1.0000
  H   H13       1.0  0.05662  0.26022  0.01699  1.0000
  C   C8        1.0  0.50710  0.17015  0.25780  1.0000
  H   H14       1.0  0.02287  0.20400  0.33105  1.0000
  H   H15       1.0  0.09043  0.17008  0.32933  1.0000
  H   H16       1.0  0.08395  0.13547  0.39767  1.0000
  C   C9        1.0  0.09069  0.15242  0.33319  1.0000
  C   C10       1.0  0.10054  0.04954  0.31810  1.0000
  C   C11       1.0  0.11420  0.06430  0.30757  1.0000
  C   C12       1.0  0.10565  0.08448  0.29977  1.0000
  C   C13       1.0  0.08352  0.09034  0.30298  1.0000
  C   C14       1.0  0.07003  0.07592  0.31430  1.0000
  C   C15       1.0  0.07850  0.05558  0.32171  1.0000
  H   H17       1.0  0.13127  0.06001  0.30515  1.0000
  H   H18       1.0  0.11622  0.09567  0.29125  1.0000
  H   H19       1.0  0.05298  0.08025  0.31693  1.0000
  H   H20       1.0  0.06784  0.04436  0.33006  1.0000
  H   H21       1.0  0.37841  0.09013  0.04168  1.0000
  H   H22       1.0  0.19221  0.22471  0.50966  1.0000
  H   H23       1.0  0.39234  0.10279  0.47415  1.0000
  S   S10       1.0  0.50460  0.02281  0.24244  1.0000
  C   C16       1.0  0.15457  0.04468  0.24517  1.0000
  C   C17       1.0  0.09711  0.12502  0.38978  1.0000
  C   C18       1.0  0.50021  0.25202  0.27895  1.0000
  H   H24       1.0  0.38170  0.15441  0.43694  1.0000
  H   H25       1.0  0.09521  0.10881  0.39762  1.0000
  H   H26       1.0  0.11132  0.15474  0.35921  1.0000
  H   H27       1.0  0.49093  0.04131  0.37847  1.0000
  Fe  Fe4       1.0  0.50507  0.02294  0.27875  1.0000
  C   C19       1.0  0.10428  0.06168  0.23087  1.0000
  H   H28       1.0  0.30095  0.01439  0.21895  1.0000
  C   C20       1.0  0.01785  0.22020  0.32406  1.0000
  C   C21       1.0  0.49869  0.19392  0.25982  1.0000
  H   H29       1.0  0.47879  0.18991  0.50016  1.0000
  C   C22       1.0  0.31272  0.06579  0.10340  1.0000
  C   C23       1.0  0.33387  0.07054  0.10729  1.0000
  C   C24       1.0  0.34385  0.08749  0.09539  1.0000
  C   C25       1.0  0.33289  0.09962  0.07934  1.0000
  C   C26       1.0  0.31171  0.09493  0.07551  1.0000
  C   C27       1.0  0.30164  0.07817  0.08759  1.0000
  H   H30       1.0  0.34253  0.06115  0.11945  1.0000
  H   H31       1.0  0.36022  0.09104  0.09850  1.0000
  H   H32       1.0  0.30302  0.10434  0.06339  1.0000
  H   H33       1.0  0.28524  0.07466  0.08458  1.0000
  H   H34       1.0  0.21540  0.07303  0.50944  1.0000
  H   H35       1.0  0.14044  0.07098  0.26561  1.0000
  H   H36       1.0  0.35828  0.17544  0.11285  1.0000
  H   H37       1.0  0.10619  0.07756  0.35368  1.0000
  H   H38       1.0  0.07471  0.14698  0.32943  1.0000
  H   H39       1.0  0.03394  0.19428  0.24824  1.0000
  Fe  Fe5       1.0  0.49681  0.17904  0.38754  1.0000
  C   C28       1.0  0.36842  0.13127  0.47132  1.0000
  C   C29       1.0  0.07267  0.11719  0.36126  1.0000
  H   H40       1.0  0.44446  0.02076  0.22919  1.0000
  H   H41       1.0  0.07229  0.11271  0.34407  1.0000
  H   H42       1.0  0.08335  0.15884  0.36678  1.0000
  H   H43       1.0  0.10338  0.14473  0.32226  1.0000
  C   C30       1.0  0.15149  0.06850  0.25117  1.0000
  C   C31       1.0  0.40762  0.18901  0.44574  1.0000
  C   C32       1.0  0.42014  0.17229  0.45541  1.0000
  C   C33       1.0  0.44047  0.16585  0.44589  1.0000
  C   C34       1.0  0.44868  0.17623  0.42678  1.0000
  C   C35       1.0  0.43607  0.19281  0.41693  1.0000
  C   C36       1.0  0.41552  0.19902  0.42629  1.0000
  H   H44       1.0  0.41423  0.16444  0.47031  1.0000
  H   H45       1.0  0.45007  0.15288  0.45349  1.0000
  H   H46       1.0  0.44217  0.20085  0.40216  1.0000
  H   H47       1.0  0.40590  0.21194  0.41865  1.0000
  S   S11       1.0  0.02490  0.12286  0.33510  1.0000
  H   H48       1.0  0.03558  0.24719  0.30823  1.0000
  H   H49       1.0  0.47847  0.14698  0.28454  1.0000
  C   C37       1.0  0.50744  0.16133  0.29782  1.0000
  C   C38       1.0  0.21053  0.26102  0.48701  1.0000
  H   H50       1.0  0.38359  0.11458  0.49863  1.0000
  H   H51       1.0  0.41068  0.03717  0.21433  1.0000
  C   C39       1.0  0.36326  0.10312  0.44419  1.0000
  S   S12       1.0  0.24128  0.02150  0.50164  1.0000
  S   S13       1.0  0.28501  0.06137  0.48626  1.0000
  C   C40       1.0  0.42466  0.24024  0.47608  1.0000
  C   C41       1.0  0.29961  0.25375  0.50828  1.0000
  H   H52       1.0  0.41227  0.13735  0.41864  1.0000
  N   N1        1.0  0.13433  0.03295  0.24224  1.0000
  H   H53       1.0  0.30979  0.07390  0.03557  1.0000
  H   H54       1.0  0.41029  0.12370  0.44435  1.0000
  C   C42       1.0  0.02430  0.18435  0.39213  1.0000
  S   S14       1.0  0.33002  0.16979  0.02436  1.0000
  H   H55       1.0  0.32130  0.16670  0.44290  1.0000
  H   H56       1.0  0.49673  0.03564  0.18774  1.0000
  H   H57       1.0  0.29086  0.10688  0.48116  1.0000
  H   H58       1.0  0.16417  0.03617  0.25792  1.0000
  C   C43       1.0  0.03679  0.19576  0.40558  1.0000
  H   H59       1.0  0.35049  0.07265  0.45637  1.0000
  H   H60       1.0  0.34353  0.07721  0.04198  1.0000
  H   H61       1.0  0.16891  0.25256  0.49745  1.0000
  H   H62       1.0  0.13282  0.12297  0.38951  1.0000
  C   C44       1.0  0.03375  0.22246  0.22631  1.0000
  H   H63       1.0  0.35952  0.04177  0.07261  1.0000
  H   H64       1.0  0.13378  0.08333  0.35726  1.0000
  H   H65       1.0  0.11489  0.08572  0.37934  1.0000
  H   H66       1.0  0.05355  0.19820  0.40086  1.0000
  H   H67       1.0  0.43615  0.25178  0.46859  1.0000
  H   H68       1.0  0.51195  0.20520  0.25732  1.0000
  C   C45       1.0  0.02247  0.24160  0.21933  1.0000
  C   C46       1.0  0.50906  0.24633  0.29901  1.0000
  C   C47       1.0  0.50621  0.07268  0.30857  1.0000
  H   H69       1.0  0.38889  0.07410  0.01994  1.0000
  C   C48       1.0  0.02519  0.20910  0.24337  1.0000
  H   H70       1.0  0.08041  0.25231  0.04526  1.0000
  H   H71       1.0  0.47280  0.17096  0.29994  1.0000
  H   H72       1.0  0.24456  0.01448  0.38929  1.0000
  C   C49       1.0  0.49469  0.08906  0.32018  1.0000
  H   H73       1.0  0.24381  0.06995  0.51104  1.0000
  N   N2        1.0  0.36356  0.12689  0.44836  1.0000
  H   H74       1.0  0.33249  0.03995  0.26305  1.0000
  H   H75       1.0  0.35088  0.09201  0.47682  1.0000
  S   S15       1.0  0.38679  0.16428  0.51339  1.0000
  C   C50       1.0  0.11883  0.13256  0.39676  1.0000
  H   H76       1.0  0.05958  0.10275  0.39199  1.0000
  H   H77       1.0  0.49263  0.23646  0.45483  1.0000
  H   H78       1.0  0.49647  0.11780  0.33858  1.0000
  N   N3        1.0  0.34920  0.04899  0.02212  1.0000
  H   H79       1.0  0.13243  0.05071  0.21145  1.0000
  H   H80       1.0  0.50762  0.17762  0.30463  1.0000
  H   H81       1.0  0.11945  0.24598  0.03479  1.0000
  H   H82       1.0  0.33070  0.09447  0.45667  1.0000
  H   H83       1.0  0.32910  0.13069  0.45683  1.0000
  N   N4        1.0  0.38292  0.18575  0.06831  1.0000
  C   C51       1.0  0.37908  0.19517  0.04594  1.0000
  C   C52       1.0  0.40176  0.16932  0.06649  1.0000
  C   C53       1.0  0.38832  0.20299  0.08321  1.0000
  C   C54       1.0  0.36265  0.17562  0.07734  1.0000
  C   C55       1.0  0.36166  0.21381  0.04436  1.0000
  C   C56       1.0  0.39688  0.14742  0.05745  1.0000
  C   C57       1.0  0.40758  0.21654  0.07530  1.0000
  C   C58       1.0  0.36394  0.16422  0.09995  1.0000
  H   H84       1.0  0.39422  0.20123  0.03804  1.0000
  H   H85       1.0  0.37434  0.18248  0.03527  1.0000
  H   H86       1.0  0.40907  0.16585  0.08233  1.0000
  H   H87       1.0  0.41517  0.17582  0.05589  1.0000
  H   H88       1.0  0.37408  0.21428  0.08661  1.0000
  H   H89       1.0  0.39225  0.19566  0.09933  1.0000
  H   H90       1.0  0.34907  0.18799  0.07900  1.0000
  H   H91       1.0  0.35673  0.16422  0.06591  1.0000
  C   C59       1.0  0.02781  0.20406  0.42519  1.0000
  H   H92       1.0  0.36548  0.22798  0.05344  1.0000
  H   H93       1.0  0.48871  0.24175  0.27271  1.0000
  H   H94       1.0  0.41232  0.13836  0.05295  1.0000
  H   H95       1.0  0.38810  0.13732  0.06987  1.0000
  H   H96       1.0  0.38742  0.14922  0.04282  1.0000
  H   H97       1.0  0.41070  0.22794  0.08798  1.0000
  H   H98       1.0  0.40420  0.22645  0.06043  1.0000
  H   H99       1.0  0.42265  0.20636  0.07239  1.0000
  H   H100      1.0  0.38031  0.15758  0.10343  1.0000
  H   H101      1.0  0.35354  0.15014  0.10095  1.0000
  H   H102      1.0  0.37945  0.09480  0.44494  1.0000
  H   H103      1.0  0.10894  0.11133  0.33644  1.0000
  H   H104      1.0  0.34425  0.01715  0.03683  1.0000
  C   C60       1.0  0.41526  0.02037  0.21169  1.0000
  H   H105      1.0  0.04908  0.21774  0.21819  1.0000
  H   H106      1.0  0.14616  0.07885  0.23724  1.0000
  C   C61       1.0  0.50553  0.10545  0.32951  1.0000
  C   C62       1.0  0.11237  0.11209  0.35381  1.0000
  C   C63       1.0  0.40205  0.12652  0.42911  1.0000
  H   H107      1.0  0.33580  0.13180  0.42853  1.0000
  H   H108      1.0  0.40221  0.12835  0.48047  1.0000
  S   S16       1.0  0.49170  0.05214  0.29769  1.0000
  Fe  Fe6       1.0  0.27675  0.02686  0.49682  1.0000
  C   C64       1.0  0.30130  0.10054  0.49358  1.0000
  H   H109      1.0  0.44693  0.16089  0.49482  1.0000
  H   H110      1.0  0.11070  0.07455  0.24006  1.0000
  H   H111      1.0  0.40170  0.11122  0.42051  1.0000
  C   C65       1.0  0.37931  0.13759  0.43236  1.0000
  C   C66       1.0  0.03833  0.23000  0.31337  1.0000
  H   H112      1.0  0.48425  0.20942  0.45559  1.0000
  C   C67       1.0  0.34123  0.13670  0.44438  1.0000
  H   H113      1.0  0.33352  0.05223  0.06446  1.0000
  H   H114      1.0  0.16531  0.04477  0.23019  1.0000
  H   H115      1.0  0.09784  0.06954  0.21595  1.0000
  C   C68       1.0  0.48798  0.04254  0.36097  1.0000
  H   H116      1.0  0.34360  0.16814  0.45951  1.0000
  H   H117      1.0  0.07621  0.08387  0.37582  1.0000
  C   C69       1.0  0.12160  0.03159  0.26371  1.0000
  H   H118      1.0  0.50192  0.11820  0.28313  1.0000
  H   H119      1.0  0.50153  0.12603  0.25442  1.0000
  N   N5        1.0  0.09452  0.12507  0.36571  1.0000
  C   C70       1.0  0.09523  0.14827  0.35730  1.0000
  H   H120      1.0  0.35408  0.12888  0.48265  1.0000
  C   C71       1.0  0.33862  0.16162  0.44433  1.0000
  H   H121      1.0  0.09029  0.05507  0.24040  1.0000
  H   H122      1.0  0.02950  0.22058  0.36351  1.0000
  H   H123      1.0  0.38295  0.06168  0.04657  1.0000
  H   H124      1.0  0.16739  0.07421  0.25519  1.0000
  H   H125      1.0  0.33691  0.03776  0.23468  1.0000
  H   H126      1.0  0.11244  0.03158  0.21622  1.0000
  H   H127      1.0  0.47726  0.08902  0.32207  1.0000
  H   H128      1.0  0.12062  0.15004  0.39305  1.0000
  C   C72       1.0  0.31441  0.11458  0.50361  1.0000
  N   N6        1.0  0.45430  0.21489  0.49272  1.0000
  C   C73       1.0  0.06445  0.09786  0.37529  1.0000
  H   H129      1.0  0.35872  0.10082  0.42732  1.0000
  H   H130      1.0  0.47119  0.04935  0.35942  1.0000
  H   H131      1.0  0.49290  0.16074  0.25537  1.0000
  C   C74       1.0  0.48333  0.15597  0.29828  1.0000
  C   C75       1.0  0.38779  0.11849  0.48125  1.0000
  H   H132      1.0  0.37266  0.13909  0.41598  1.0000
  H   H133      1.0  0.03763  0.21270  0.43542  1.0000
  H   H134      1.0  0.48969  0.01856  0.16690  1.0000
  C   C76       1.0  0.47878  0.22626  0.45930  1.0000
  H   H135      1.0  0.13230  0.02603  0.27691  1.0000
  H   H136      1.0  0.04972  0.09230  0.36833  1.0000
  H   H137      1.0  0.49861  0.05440  0.35262  1.0000
  C   C77       1.0  0.34789  0.09012  0.45954  1.0000
  H   H138      1.0  0.05189  0.22826  0.32434  1.0000
  S   S17       1.0  0.50974  0.21197  0.37990  1.0000
  S   S18       1.0  0.11003  0.02337  0.32686  1.0000
  H   H139      1.0  0.42183  0.20709  0.48580  1.0000
  H   H140      1.0  0.04353  0.22096  0.29867  1.0000
  S   S19       1.0  0.03318  0.25652  0.19629  1.0000
  C   C78       1.0  0.35414  0.07140  0.02830  1.0000
  H   H141      1.0  0.12794  0.12025  0.35319  1.0000
  C   C79       1.0  0.35255  0.03205  0.04006  1.0000
  C   C80       1.0  0.34536  0.03844  0.06334  1.0000
  S   S20       1.0  0.03390  0.22235  0.50493  1.0000
  Fe  Fe7       1.0  0.04203  0.25757  0.50005  1.0000
  H   H142      1.0  0.30088  0.03952  0.23281  1.0000
  H   H143      1.0  0.09291  0.01841  0.25038  1.0000
  C   C81       1.0  0.46278  0.19162  0.49286  1.0000
  C   C82       1.0  0.43501  0.21721  0.47900  1.0000
  H   H144      1.0  0.31396  0.13161  0.49900  1.0000
  H   H145      1.0  0.21500  0.24352  0.48617  1.0000
  H   H146      1.0  0.46758  0.24630  0.48581  1.0000
  H   H147      1.0  0.36098  0.21934  0.02708  1.0000
  H   H148      1.0  0.36934  0.04746  0.25106  1.0000
  C   C83       1.0  0.51185  0.12155  0.26806  1.0000
  Fe  Fe8       1.0  0.51127  0.20338  0.34458  1.0000
  C   C84       1.0  0.30155  0.07838  0.49955  1.0000
  H   H149      1.0  0.34531  0.20857  0.04949  1.0000
  S   S21       1.0  0.33796  0.18415  0.50363  1.0000
  C   C85       1.0  0.47202  0.22888  0.48353  1.0000
  H   H150      1.0  0.37002  0.02696  0.04056  1.0000
  C   C86       1.0  0.30807  0.05717  0.03062  1.0000
  H   H151      1.0  0.41736  0.24634  0.49157  1.0000
  H   H152      1.0  0.41125  0.23973  0.46499  1.0000
  H   H153      1.0  0.48715  0.19817  0.24707  1.0000
  H   H154      1.0  0.31243  0.24549  0.49874  1.0000
  H   H155      1.0  0.48697  0.22554  0.49242  1.0000
  C   C87       1.0  0.37752  0.07413  0.03444  1.0000
  H   H156      1.0  0.02529  0.25105  0.38934  1.0000
  Fe  Fe9       1.0  0.02156  0.15861  0.33971  1.0000
  H   H157      1.0  0.44338  0.16259  0.02334  1.0000
  H   H158      1.0  0.03471  0.24662  0.35238  1.0000
  S   S22       1.0  0.47161  0.19780  0.02356  1.0000
  H   H159      1.0  0.21825  0.01735  0.21611  1.0000
  C   C88       1.0  0.49023  0.02031  0.35056  1.0000
  H   H160      1.0  0.29260  0.05750  0.02242  1.0000
  H   H161      1.0  0.51033  0.25818  0.08541  1.0000
  S   S23       1.0  0.31846  0.02230  0.17581  1.0000
  H   H162      1.0  0.48588  0.02266  0.33339  1.0000
  S   S24       1.0  0.17652  0.01888  0.31305  1.0000
  H   H163      1.0  0.30613  0.04592  0.04490  1.0000
  C   C89       1.0  0.10251  0.01660  0.26494  1.0000
  S   S25       1.0  0.37771  0.02057  0.19009  1.0000
  H   H164      1.0  0.33771  0.02462  0.07220  1.0000
  Fe  Fe10      1.0  0.31643  0.01952  0.13983  1.0000
  C   C90       1.0  0.02141  0.23633  0.35860  1.0000
  H   H165      1.0  0.05423  0.26370  0.06859  1.0000
  C   C91       1.0  0.16850  0.26037  0.51332  1.0000
  H   H166      1.0  0.01429  0.22512  0.13078  1.0000
  H   H167      1.0  0.43142  0.18135  0.50893  1.0000
  C   C92       1.0  0.36499  0.03030  0.25224  1.0000
  H   H168      1.0  0.30121  0.01952  0.26805  1.0000
  H   H169      1.0  0.35071  0.08333  0.01481  1.0000
  H   H170      1.0  0.50977  0.25825  0.12561  1.0000
  H   H171      1.0  0.33689  0.02135  0.29473  1.0000
  H   H172      1.0  0.37049  0.02347  0.26792  1.0000
  H   H173      1.0  0.37405  0.02231  0.23865  1.0000
  H   H174      1.0  0.51240  0.01819  0.13417  1.0000
  C   C93       1.0  0.43571  0.17619  0.01471  1.0000
  H   H175      1.0  0.14855  0.01695  0.20100  1.0000
  H   H176      1.0  0.45841  0.11991  0.61531  1.0000
  C   C94       1.0  0.02453  0.25072  0.71273  1.0000
  S   S26       1.0  0.48714  0.20651  0.68708  1.0000
  C   C95       1.0  0.43755  0.18250  0.66453  1.0000
  Fe  Fe11      1.0  0.48992  0.20995  0.65073  1.0000
  S   S27       1.0  0.46121  0.22664  0.63438  1.0000
  H   H177      1.0  0.13402  0.25554  0.51607  1.0000
  N   N7        1.0  0.18966  0.25624  0.52408  1.0000
  C   C96       1.0  0.49682  0.12006  0.70779  1.0000
  Fe  Fe12      1.0  0.38764  0.18811  0.53969  1.0000
  H   H178      1.0  0.42681  0.17183  0.62638  1.0000
  S   S28       1.0  0.41982  0.18334  0.55601  1.0000
  H   H179      1.0  0.17319  0.19970  0.97386  1.0000
  H   H180      1.0  0.41691  0.12674  0.61179  1.0000
  S   S29       1.0  0.02117  0.12614  0.67490  1.0000
  H   H181      1.0  0.21298  0.07184  0.60691  1.0000
  H   H182      1.0  0.02338  0.22518  0.66482  1.0000
  S   S30       1.0  0.35449  0.18051  0.55339  1.0000
  H   H183      1.0  0.49448  0.25951  0.68921  1.0000
  H   H184      1.0  0.15632  0.24727  0.97227  1.0000
  S   S31       1.0  0.32845  0.15736  0.97289  1.0000
  C   C97       1.0  0.40491  0.19181  0.99573  1.0000
  Fe  Fe13      1.0  0.33482  0.12253  0.98412  1.0000
  S   S32       1.0  0.34145  0.09018  0.96766  1.0000
  H   H185      1.0  0.44309  0.04918  0.83223  1.0000
  C   C98       1.0  0.03281  0.20710  0.58718  1.0000
  S   S33       1.0  0.31873  0.05867  0.87535  1.0000
  H   H186      1.0  0.26930  0.06417  0.53367  1.0000
  H   H187      1.0  0.45434  0.11342  0.67530  1.0000
  H   H188      1.0  0.45533  0.16873  0.52005  1.0000
  S   S34       1.0  0.03845  0.24184  0.81384  1.0000
  S   S35       1.0  0.37550  0.21613  0.51846  1.0000
  S   S36       1.0  0.03778  0.16025  0.70847  1.0000
  H   H189      1.0  0.27658  0.04433  0.57884  1.0000
  Fe  Fe14      1.0  0.02982  0.12522  0.70950  1.0000
  S   S37       1.0  0.04696  0.09533  0.72428  1.0000
  S   S38       1.0  0.13951  0.05663  0.69046  1.0000
  C   C99       1.0  0.27028  0.03423  0.91411  1.0000
  C   C100      1.0  0.23588  0.06548  0.57967  1.0000
  H   H190      1.0  0.43709  0.14493  0.60029  1.0000
  H   H191      1.0  0.21996  0.05424  0.54326  1.0000
  C   C101      1.0  0.04270  0.19838  0.60580  1.0000
  C   C102      1.0  0.07241  0.08459  0.71408  1.0000
  C   C103      1.0  0.08487  0.09568  0.69816  1.0000
  C   C104      1.0  0.10533  0.08686  0.69098  1.0000
  C   C105      1.0  0.11333  0.06674  0.69931  1.0000
  C   C106      1.0  0.10063  0.05546  0.71489  1.0000
  C   C107      1.0  0.08037  0.06446  0.72238  1.0000
  H   H192      1.0  0.07895  0.11122  0.69168  1.0000
  H   H193      1.0  0.11506  0.09571  0.67897  1.0000
  H   H194      1.0  0.10663  0.04004  0.72152  1.0000
  H   H195      1.0  0.07093  0.05585  0.73480  1.0000
  H   H196      1.0  0.45375  0.18403  0.65636  1.0000
  H   H197      1.0  0.40907  0.05462  0.81396  1.0000
  H   H198      1.0  0.02351  0.20347  0.86143  1.0000
  H   H199      1.0  0.04273  0.23937  0.74085  1.0000
  H   H200      1.0  0.40814  0.22470  0.98384  1.0000
  C   C108      1.0  0.02580  0.23021  0.79231  1.0000
  Fe  Fe15      1.0  0.35282  0.15842  0.52568  1.0000
  C   C109      1.0  0.42142  0.14375  0.60966  1.0000
  H   H201      1.0  0.43641  0.24983  0.70451  1.0000
  C   C110      1.0  0.06243  0.21068  0.71300  1.0000
  H   H202      1.0  0.05083  0.20489  0.78866  1.0000
  C   C111      1.0  0.24902  0.09677  0.55808  1.0000
  C   C112      1.0  0.44644  0.19558  0.01171  1.0000
  H   H203      1.0  0.37603  0.03902  0.79744  1.0000
  Fe  Fe16      1.0  0.35382  0.16520  0.99583  1.0000
  H   H204      1.0  0.32227  0.03289  0.01041  1.0000
  C   C113      1.0  0.43648  0.21293  0.00025  1.0000
  H   H205      1.0  0.03290  0.18601  0.76056  1.0000
  C   C114      1.0  0.44752  0.22192  0.51525  1.0000
  C   C115      1.0  0.28040  0.26008  0.54264  1.0000
  H   H206      1.0  0.42888  0.11834  0.69019  1.0000
  C   C116      1.0  0.21378  0.26088  0.93971  1.0000
  H   H207      1.0  0.20042  0.07030  0.58200  1.0000
  H   H208      1.0  0.44454  0.22793  0.99773  1.0000
  H   H209      1.0  0.28508  0.07129  0.57163  1.0000
  C   C117      1.0  0.50161  0.25784  0.73586  1.0000
  H   H210      1.0  0.38117  0.01473  0.86401  1.0000
  C   C118      1.0  0.33549  0.08215  0.94162  1.0000
  C   C119      1.0  0.32355  0.09555  0.92749  1.0000
  C   C120      1.0  0.31859  0.08807  0.90727  1.0000
  C   C121      1.0  0.32521  0.06706  0.90111  1.0000
  C   C122      1.0  0.33731  0.05369  0.91516  1.0000
  C   C123      1.0  0.34251  0.06127  0.93526  1.0000
  H   H211      1.0  0.31810  0.11166  0.93215  1.0000
  H   H212      1.0  0.30940  0.09861  0.89641  1.0000
  H   H213      1.0  0.34286  0.03763  0.91045  1.0000
  H   H214      1.0  0.35198  0.05089  0.94598  1.0000
  C   C124      1.0  0.43181  0.15867  0.66807  1.0000
  S   S39       1.0  0.31502  0.23033  0.54419  1.0000
  H   H215      1.0  0.37396  0.01851  0.97999  1.0000
  H   H216      1.0  0.26285  0.10171  0.52432  1.0000
  H   H217      1.0  0.28265  0.09782  0.54437  1.0000
  C   C125      1.0  0.29873  0.02866  0.95822  1.0000
  H   H218      1.0  0.24399  0.02776  0.76868  1.0000
  C   C126      1.0  0.42678  0.12296  0.65490  1.0000
  Fe  Fe17      1.0  0.50542  0.26080  0.98136  1.0000
  H   H219      1.0  0.41476  0.15860  0.67479  1.0000
  H   H220      1.0  0.19107  0.22595  0.91519  1.0000
  N   N8        1.0  0.43503  0.14486  0.64848  1.0000
  H   H221      1.0  0.47919  0.24351  0.83494  1.0000
  C   C127      1.0  0.44954  0.21435  0.61283  1.0000
  C   C128      1.0  0.42910  0.22199  0.60624  1.0000
  C   C129      1.0  0.41953  0.21259  0.58904  1.0000
  C   C130      1.0  0.43046  0.19557  0.57816  1.0000
  C   C131      1.0  0.45092  0.18800  0.58474  1.0000
  C   C132      1.0  0.46038  0.19725  0.60201  1.0000
  H   H222      1.0  0.42060  0.23524  0.61448  1.0000
  H   H223      1.0  0.40379  0.21860  0.58411  1.0000
  H   H224      1.0  0.45957  0.17493  0.57635  1.0000
  H   H225      1.0  0.47622  0.19139  0.60670  1.0000
  Fe  Fe18      1.0  0.15110  0.02173  0.69714  1.0000
  H   H226      1.0  0.21665  0.22106  0.55059  1.0000
  S   S40       1.0  0.32161  0.01997  0.82770  1.0000
  C   C133      1.0  0.49453  0.08395  0.72524  1.0000
  C   C134      1.0  0.02535  0.20064  0.76716  1.0000
  H   H227      1.0  0.29797  0.06197  0.96774  1.0000
  C   C135      1.0  0.29721  0.24911  0.53055  1.0000
  H   H228      1.0  0.38942  0.02274  0.88936  1.0000
  H   H229      1.0  0.15796  0.21467  0.99387  1.0000
  H   H230      1.0  0.21041  0.08122  0.54806  1.0000
  H   H231      1.0  0.24834  0.06778  0.59146  1.0000
  H   H232      1.0  0.27746  0.04520  0.90132  1.0000
  H   H233      1.0  0.49206  0.24518  0.73066  1.0000
  H   H234      1.0  0.25668  0.04235  0.54702  1.0000
  H   H235      1.0  0.29082  0.05944  0.94072  1.0000
  S   S41       1.0  0.36185  0.13048  0.00473  1.0000
  H   H236      1.0  0.06623  0.25069  0.69456  1.0000
  C   C136      1.0  0.04042  0.21465  0.70251  1.0000
  C   C137      1.0  0.32800  0.10650  0.51963  1.0000
  C   C138      1.0  0.03550  0.21141  0.78312  1.0000
  C   C139      1.0  0.18686  0.22051  0.93222  1.0000
  H   H237      1.0  0.20724  0.23774  0.96571  1.0000
  C   C140      1.0  0.39172  0.02569  0.87158  1.0000
  H   H238      1.0  0.46770  0.10749  0.72291  1.0000
  C   C141      1.0  0.24120  0.24525  0.99740  1.0000
  H   H239      1.0  0.46749  0.19969  0.53572  1.0000
  C   C142      1.0  0.20679  0.20661  0.93955  1.0000
  H   H240      1.0  0.07932  0.24509  0.65848  1.0000
  C   C143      1.0  0.48472  0.10415  0.71898  1.0000
  H   H241      1.0  0.22187  0.21538  0.93693  1.0000
  H   H242      1.0  0.06006  0.19546  0.60536  1.0000
  S   S42       1.0  0.04319  0.18110  0.64752  1.0000
  H   H243      1.0  0.23369  0.04777  0.58012  1.0000
  C   C144      1.0  0.42863  0.05662  0.84108  1.0000
  Fe  Fe19      1.0  0.31711  0.02454  0.86344  1.0000
  H   H244      1.0  0.21203  0.23189  0.01112  1.0000
  N   N9        1.0  0.17932  0.23947  0.94582  1.0000
  H   H245      1.0  0.23433  0.10775  0.55662  1.0000
  H   H246      1.0  0.01474  0.25246  0.66949  1.0000
  H   H247      1.0  0.14924  0.23493  0.53019  1.0000
  Fe  Fe20      1.0  0.50158  0.17269  0.68272  1.0000
  C   C145      1.0  0.36021  0.02230  0.99175  1.0000
  C   C146      1.0  0.43665  0.11173  0.67509  1.0000
  S   S43       1.0  0.37812  0.19102  0.98716  1.0000
  H   H248      1.0  0.40712  0.15923  0.00898  1.0000
  H   H249      1.0  0.42944  0.11159  0.64154  1.0000
  H   H250      1.0  0.06027  0.19971  0.72754  1.0000
  H   H251      1.0  0.03850  0.14322  0.61300  1.0000
  H   H252      1.0  0.21454  0.09420  0.58767  1.0000
  H   H253      1.0  0.39607  0.08808  0.85106  1.0000
  C   C147      1.0  0.41582  0.21105  0.99237  1.0000
  H   H254      1.0  0.40921  0.15220  0.59940  1.0000
  H   H255      1.0  0.42531  0.19210  0.65529  1.0000
  H   H256      1.0  0.04050  0.05454  0.69681  1.0000
  H   H257      1.0  0.25788  0.02568  0.90608  1.0000
  C   C148      1.0  0.46430  0.21724  0.53248  1.0000
  H   H258      1.0  0.24028  0.03053  0.68957  1.0000
  H   H259      1.0  0.28918  0.21581  0.98839  1.0000
  C   C149      1.0  0.28821  0.01796  0.92213  1.0000
  H   H260      1.0  0.04697  0.02815  0.68820  1.0000
  H   H261      1.0  0.40429  0.15772  0.63733  1.0000
  H   H262      1.0  0.17936  0.26202  0.91797  1.0000
  C   C150      1.0  0.46767  0.12352  0.62928  1.0000
  H   H263      1.0  0.47966  0.22505  0.52818  1.0000
  C   C151      1.0  0.03026  0.19294  0.62475  1.0000
  H   H264      1.0  0.32512  0.05973  0.99962  1.0000
  H   H265      1.0  0.14278  0.26308  0.90919  1.0000
  H   H266      1.0  0.43786  0.18996  0.68049  1.0000
  H   H267      1.0  0.26225  0.04474  0.92642  1.0000
  H   H268      1.0  0.46256  0.15806  0.63048  1.0000
  C   C152      1.0  0.26308  0.24047  0.99119  1.0000
  H   H269      1.0  0.23003  0.01651  0.71346  1.0000
  N   N10       1.0  0.03440  0.23737  0.69449  1.0000
  H   H270      1.0  0.46494  0.24562  0.70398  1.0000
  H   H271      1.0  0.01643  0.14761  0.63213  1.0000
  S   S44       1.0  0.48384  0.14524  0.70026  1.0000
  C   C153      1.0  0.14778  0.25012  0.92112  1.0000
  Fe  Fe21      1.0  0.30507  0.16007  0.00219  1.0000
  H   H272      1.0  0.02049  0.22042  0.88407  1.0000
  H   H273      1.0  0.15053  0.23493  0.91233  1.0000
  H   H274      1.0  0.01430  0.07936  0.69811  1.0000
  H   H275      1.0  0.40892  0.12420  0.65822  1.0000
  C   C154      1.0  0.28078  0.05580  0.56518  1.0000
  H   H276      1.0  0.20896  0.19206  0.92962  1.0000
  H   H277      1.0  0.22190  0.20849  0.52503  1.0000
  N   N11       1.0  0.38701  0.05648  0.84234  1.0000
  C   C155      1.0  0.38579  0.04971  0.86607  1.0000
  C   C156      1.0  0.38473  0.08083  0.84050  1.0000
  C   C157      1.0  0.40821  0.04903  0.83130  1.0000
  C   C158      1.0  0.36913  0.04633  0.83163  1.0000
  C   C159      1.0  0.16827  0.25666  0.93166  1.0000
  C   C160      1.0  0.36208  0.09100  0.84670  1.0000
  C   C161      1.0  0.17078  0.21596  0.98065  1.0000
  C   C162      1.0  0.36737  0.05181  0.80718  1.0000
  H   H278      1.0  0.39628  0.05945  0.87539  1.0000
  H   H279      1.0  0.36915  0.05301  0.87330  1.0000
  H   H280      1.0  0.38955  0.08705  0.82392  1.0000
  H   H281      1.0  0.20533  0.20083  0.95667  1.0000
  H   H282      1.0  0.40964  0.03115  0.83082  1.0000
  H   H283      1.0  0.43374  0.09420  0.67550  1.0000
  H   H284      1.0  0.37110  0.02841  0.83301  1.0000
  H   H285      1.0  0.35315  0.04990  0.84019  1.0000
  C   C163      1.0  0.01304  0.03263  0.69950  1.0000
  H   H286      1.0  0.14889  0.22579  0.95671  1.0000
  C   C164      1.0  0.16298  0.23284  0.96352  1.0000
  H   H287      1.0  0.34988  0.08677  0.83540  1.0000
  H   H288      1.0  0.35656  0.08639  0.86353  1.0000
  H   H289      1.0  0.36267  0.10888  0.84577  1.0000
  H   H290      1.0  0.04253  0.21076  0.57254  1.0000
  H   H291      1.0  0.31552  0.05333  0.52023  1.0000
  H   H292      1.0  0.05366  0.23920  0.64939  1.0000
  H   H293      1.0  0.07420  0.20191  0.70186  1.0000
  H   H294      1.0  0.37372  0.06755  0.80180  1.0000
  H   H295      1.0  0.35010  0.05280  0.80327  1.0000
  C   C165      1.0  0.06400  0.23735  0.66346  1.0000
  Fe  Fe22      1.0  0.34188  0.20703  0.53032  1.0000
  H   H296      1.0  0.46897  0.14465  0.65528  1.0000
  H   H297      1.0  0.46866  0.10904  0.64038  1.0000
  H   H298      1.0  0.44191  0.15210  0.68134  1.0000
  C   C166      1.0  0.31500  0.07037  0.51567  1.0000
  C   C167      1.0  0.03713  0.03743  0.70057  1.0000
  H   H299      1.0  0.23032  0.23465  0.52779  1.0000
  H   H300      1.0  0.27180  0.05332  0.96345  1.0000
  C   C168      1.0  0.01764  0.23636  0.67782  1.0000
  S   S45       1.0  0.50199  0.17567  0.64647  1.0000
  C   C169      1.0  0.36443  0.04327  0.00302  1.0000
  H   H301      1.0  0.45769  0.22394  0.54802  1.0000
  H   H302      1.0  0.18280  0.22418  0.53676  1.0000
  H   H303      1.0  0.01626  0.06101  0.73171  1.0000
  H   H304      1.0  0.22912  0.26281  0.94763  1.0000
  H   H305      1.0  0.06804  0.21993  0.66674  1.0000
  H   H306      1.0  0.04087  0.20347  0.68887  1.0000
  C   C170      1.0  0.45870  0.14378  0.64121  1.0000
  C   C171      1.0  0.48696  0.25734  0.82620  1.0000
  C   C172      1.0  0.28889  0.05199  0.95728  1.0000
  C   C173      1.0  0.21472  0.07633  0.58935  1.0000
  C   C174      1.0  0.24477  0.01892  0.70294  1.0000
  H   H307      1.0  0.17353  0.20939  0.93103  1.0000
  H   H308      1.0  0.01500  0.13512  0.58448  1.0000
  H   H309      1.0  0.27296  0.25328  0.98468  1.0000
  H   H310      1.0  0.42968  0.07440  0.83916  1.0000
  H   H311      1.0  0.38143  0.04140  0.00790  1.0000
  H   H312      1.0  0.48980  0.25737  0.66162  1.0000
  C   C175      1.0  0.26630  0.10490  0.54115  1.0000
  H   H313      1.0  0.02774  0.20875  0.71438  1.0000
  C   C176      1.0  0.42144  0.15540  0.63111  1.0000
  C   C177      1.0  0.03901  0.25457  0.73140  1.0000
  H   H314      1.0  0.40886  0.02113  0.86706  1.0000
  H   H315      1.0  0.33861  0.07798  0.53802  1.0000
  S   S46       1.0  0.48456  0.25984  0.01239  1.0000
  Fe  Fe23      1.0  0.02564  0.16188  0.67470  1.0000
  H   H316      1.0  0.42970  0.05150  0.85835  1.0000
  C   C178      1.0  0.22908  0.07798  0.51857  1.0000
  C   C179      1.0  0.27237  0.21920  0.99330  1.0000
  C   C180      1.0  0.02193  0.13824  0.61785  1.0000
  C   C181      1.0  0.05326  0.24856  0.68347  1.0000
  H   H317      1.0  0.36429  0.05657  0.99035  1.0000
  C   C182      1.0  0.22497  0.07125  0.54259  1.0000
  H   H318      1.0  0.25514  0.10012  0.57410  1.0000
  H   H319      1.0  0.31573  0.02996  0.95201  1.0000
  H   H320      1.0  0.29537  0.04860  0.55640  1.0000
  H   H321      1.0  0.25515  0.02489  0.95499  1.0000
  H   H322      1.0  0.13391  0.24874  0.93313  1.0000
  H   H323      1.0  0.48448  0.12624  0.62298  1.0000
  C   C183      1.0  0.26218  0.05875  0.54966  1.0000
  H   H324      1.0  0.43228  0.21456  0.52137  1.0000
  C   C184      1.0  0.21709  0.22401  0.53276  1.0000
  C   C185      1.0  0.14815  0.25251  0.52620  1.0000
  H   H325      1.0  0.06978  0.22511  0.71850  1.0000
  H   H326      1.0  0.26711  0.12267  0.54215  1.0000
  S   S47       1.0  0.27021  0.17489  0.00326  1.0000
  N   N12       1.0  0.24330  0.07344  0.55720  1.0000
  H   H327      1.0  0.29939  0.02349  0.97564  1.0000
  H   H328      1.0  0.01716  0.05945  0.66345  1.0000
  S   S48       1.0  0.34524  0.12312  0.53254  1.0000
  H   H329      1.0  0.51161  0.22532  0.84412  1.0000
  Fe  Fe24      1.0  0.49470  0.22448  0.01409  1.0000
  H   H330      1.0  0.48510  0.07188  0.73390  1.0000
  H   H331      1.0  0.18544  0.22044  0.98833  1.0000
  C   C186      1.0  0.19766  0.24964  0.95583  1.0000
  C   C187      1.0  0.19464  0.23215  0.52533  1.0000
  C   C188      1.0  0.25978  0.20230  0.00136  1.0000
  H   H332      1.0  0.17769  0.25428  0.55773  1.0000
  C   C189      1.0  0.32813  0.08437  0.52566  1.0000
  C   C190      1.0  0.23788  0.20711  0.00752  1.0000
  H   H333      1.0  0.34556  0.02434  0.98228  1.0000
  C   C191      1.0  0.45176  0.25830  0.70298  1.0000
  H   H334      1.0  0.25679  0.02666  0.71224  1.0000
  H   H335      1.0  0.10289  0.24714  0.01207  1.0000
  H   H336      1.0  0.14444  0.26163  0.54111  1.0000
  H   H337      1.0  0.48585  0.25411  0.80874  1.0000
  H   H338      1.0  0.21952  0.25662  0.55817  1.0000
  C   C192      1.0  0.22871  0.22845  0.00581  1.0000
  H   H339      1.0  0.30402  0.02440  0.91651  1.0000
  H   H340      1.0  0.19445  0.02161  0.59249  1.0000
  H   H341      1.0  0.04302  0.03289  0.71682  1.0000
  H   H342      1.0  0.22946  0.09577  0.51627  1.0000
  S   S49       1.0  0.30967  0.12442  0.01179  1.0000
  C   C193      1.0  0.41513  0.17425  0.00666  1.0000
  H   H343      1.0  0.50572  0.22231  0.80459  1.0000
  H   H344      1.0  0.48734  0.24652  0.86872  1.0000
  H   H345      1.0  0.45214  0.25890  0.66851  1.0000
  H   H346      1.0  0.27838  0.25660  0.55988  1.0000
  N   N13       1.0  0.51026  0.25846  0.83164  1.0000
  C   C194      1.0  0.50099  0.25592  0.87295  1.0000
  H   H347      1.0  0.02329  0.12079  0.62252  1.0000
  H   H348      1.0  0.21163  0.01556  0.75185  1.0000
  H   H349      1.0  0.05397  0.26260  0.72599  1.0000
  H   H350      1.0  0.21769  0.25152  0.92501  1.0000
  H   H351      1.0  0.19130  0.26192  0.96751  1.0000
  H   H352      1.0  0.44358  0.23964  0.51521  1.0000
  H   H353      1.0  0.22801  0.19422  0.01390  1.0000
  C   C195      1.0  0.32647  0.04932  0.01464  1.0000
  Fe  Fe25      1.0  0.49635  0.35962  0.19907  1.0000
  Fe  Fe26      1.0  0.19760  0.36171  0.48261  1.0000
  S   S50       1.0  0.19450  0.37557  0.44816  1.0000
  H   H354      1.0  0.45866  0.26890  0.15378  1.0000
  H   H355      1.0  0.48821  0.35595  0.12104  1.0000
  H   H356      1.0  0.12827  0.47789  0.35874  1.0000
  S   S51       1.0  0.19377  0.32586  0.48763  1.0000
  H   H357      1.0  0.03216  0.37021  0.16725  1.0000
  H   H358      1.0  0.15323  0.46834  0.38765  1.0000
  S   S52       1.0  0.19617  0.47867  0.35370  1.0000
  H   H359      1.0  0.06182  0.37614  0.11320  1.0000
  Fe  Fe27      1.0  0.19212  0.49205  0.38681  1.0000
  S   S53       1.0  0.18991  0.47551  0.42027  1.0000
  Fe  Fe28      1.0  0.22196  0.50252  0.34641  1.0000
  H   H360      1.0  0.24869  0.45332  0.07333  1.0000
  H   H361      1.0  0.32633  0.42894  0.12557  1.0000
  Fe  Fe29      1.0  0.37586  0.47380  0.21864  1.0000
  S   S54       1.0  0.37886  0.48651  0.18418  1.0000
  S   S55       1.0  0.39569  0.44535  0.23349  1.0000
  C   C196      1.0  0.27949  0.46999  0.24450  1.0000
  C   C197      1.0  0.44757  0.34128  0.17020  1.0000
  Fe  Fe30      1.0  0.34254  0.49218  0.18663  1.0000
  H   H362      1.0  0.40076  0.31498  0.13349  1.0000
  C   C198      1.0  0.12472  0.46384  0.36994  1.0000
  S   S56       1.0  0.33939  0.47656  0.22020  1.0000
  H   H363      1.0  0.03011  0.39269  0.10376  1.0000
  C   C199      1.0  0.01984  0.38660  0.11769  1.0000
  S   S57       1.0  0.47076  0.38537  0.18826  1.0000
  H   H364      1.0  0.27141  0.40369  0.06888  1.0000
  Fe  Fe31      1.0  0.28201  0.50001  0.04015  1.0000
  S   S58       1.0  0.24730  0.49181  0.04581  1.0000
  H   H365      1.0  0.20721  0.36535  0.03018  1.0000
  H   H366      1.0  0.23938  0.47565  0.18701  1.0000
  C   C200      1.0  0.45407  0.30272  0.16153  1.0000
  H   H367      1.0  0.48542  0.32738  0.14885  1.0000
  S   S59       1.0  0.49288  0.32375  0.20605  1.0000
  Fe  Fe32      1.0  0.15767  0.30037  0.03276  1.0000
  S   S60       1.0  0.14132  0.28910  0.06479  1.0000
  H   H368      1.0  0.14144  0.30869  0.48928  1.0000
  Fe  Fe33      1.0  0.03243  0.31523  0.13668  1.0000
  S   S61       1.0  0.05497  0.33036  0.11054  1.0000
  H   H369      1.0  0.05561  0.41987  0.12308  1.0000
  H   H370      1.0  0.43165  0.47413  0.18036  1.0000
  S   S62       1.0  0.03465  0.31830  0.17264  1.0000
  C   C201      1.0  0.43341  0.33487  0.19050  1.0000
  H   H371      1.0  0.07444  0.46551  0.38261  1.0000
  H   H372      1.0  0.27838  0.45671  0.23326  1.0000
  S   S63       1.0  0.03627  0.49641  0.24715  1.0000
  H   H373      1.0  0.34568  0.50204  0.13140  1.0000
  C   C202      1.0  0.31199  0.41916  0.12459  1.0000
  H   H374      1.0  0.44155  0.32175  0.20029  1.0000
  H   H375      1.0  0.11048  0.41158  0.33034  1.0000
  C   C203      1.0  0.47105  0.33078  0.13905  1.0000
  C   C204      1.0  0.29332  0.48988  0.12792  1.0000
  H   H376      1.0  0.07807  0.33137  0.03796  1.0000
  C   C205      1.0  0.06636  0.37116  0.17104  1.0000
  H   H377      1.0  0.04838  0.36357  0.14420  1.0000
  H   H378      1.0  0.01769  0.41707  0.13203  1.0000
  C   C206      1.0  0.11783  0.30125  0.07791  1.0000
  C   C207      1.0  0.10969  0.32194  0.07182  1.0000
  C   C208      1.0  0.09065  0.33075  0.08231  1.0000
  C   C209      1.0  0.07941  0.31887  0.09877  1.0000
  C   C210      1.0  0.08755  0.29818  0.10487  1.0000
  C   C211      1.0  0.10676  0.28951  0.09459  1.0000
  H   H379      1.0  0.11814  0.33122  0.05914  1.0000
  H   H380      1.0  0.11371  0.28862  0.47230  1.0000
  H   H381      1.0  0.07910  0.28891  0.11756  1.0000
  H   H382      1.0  0.43120  0.34902  0.20101  1.0000
  C   C212      1.0  0.12628  0.44106  0.33882  1.0000
  C   C213      1.0  0.32799  0.50506  0.10220  1.0000
  N   N14       1.0  0.45063  0.32547  0.15225  1.0000
  S   S64       1.0  0.29009  0.47354  0.01680  1.0000
  H   H383      1.0  0.06298  0.37719  0.18758  1.0000
  C   C214      1.0  0.09449  0.28311  0.50192  1.0000
  H   H384      1.0  0.06997  0.35345  0.17296  1.0000
  C   C215      1.0  0.28814  0.48564  0.30075  1.0000
  C   C216      1.0  0.41631  0.42862  0.22061  1.0000
  C   C217      1.0  0.42919  0.41436  0.23337  1.0000
  C   C218      1.0  0.44593  0.40096  0.22384  1.0000
  C   C219      1.0  0.44991  0.40165  0.20138  1.0000
  C   C220      1.0  0.43696  0.41584  0.18861  1.0000
  C   C221      1.0  0.42026  0.42925  0.19813  1.0000
  H   H385      1.0  0.42620  0.41368  0.25077  1.0000
  H   H386      1.0  0.45569  0.39010  0.23388  1.0000
  H   H387      1.0  0.43988  0.41649  0.17121  1.0000
  H   H388      1.0  0.41036  0.43998  0.18811  1.0000
  C   C222      1.0  0.31312  0.49222  0.13732  1.0000
  H   H389      1.0  0.23272  0.38983  0.04482  1.0000
  H   H390      1.0  0.44617  0.48410  0.15695  1.0000
  C   C223      1.0  0.47459  0.48019  0.21627  1.0000
  C   C224      1.0  0.02844  0.39324  0.22235  1.0000
  S   S65       1.0  0.22928  0.36006  0.49831  1.0000
  H   H391      1.0  0.14398  0.44170  0.39120  1.0000
  S   S66       1.0  0.30712  0.50694  0.06424  1.0000
  H   H392      1.0  0.11301  0.27353  0.09950  1.0000
  C   C225      1.0  0.22460  0.39469  0.03028  1.0000
  C   C226      1.0  0.27075  0.49874  0.30937  1.0000
  H   H393      1.0  0.08694  0.38100  0.12505  1.0000
  H   H394      1.0  0.29005  0.38095  0.07055  1.0000
  H   H395      1.0  0.45633  0.45167  0.20779  1.0000
  H   H396      1.0  0.27959  0.39264  0.09504  1.0000
  H   H397      1.0  0.03331  0.28435  0.06967  1.0000
  H   H398      1.0  0.46349  0.34436  0.17644  1.0000
  H   H399      1.0  0.44674  0.48042  0.25268  1.0000
  Fe  Fe34      1.0  0.34214  0.50985  0.23218  1.0000
  Fe  Fe35      1.0  0.22430  0.32487  0.50575  1.0000
  H   H400      1.0  0.25074  0.35096  0.02743  1.0000
  H   H401      1.0  0.45972  0.35897  0.11874  1.0000
  C   C227      1.0  0.19214  0.40344  0.44084  1.0000
  C   C228      1.0  0.19257  0.41928  0.45616  1.0000
  C   C229      1.0  0.19123  0.44130  0.44960  1.0000
  C   C230      1.0  0.18959  0.44769  0.42769  1.0000
  C   C231      1.0  0.18894  0.43186  0.41235  1.0000
  C   C232      1.0  0.19020  0.40982  0.41893  1.0000
  H   H402      1.0  0.19400  0.41455  0.47306  1.0000
  H   H403      1.0  0.19176  0.45345  0.46156  1.0000
  H   H404      1.0  0.18770  0.43656  0.39546  1.0000
  H   H405      1.0  0.18981  0.39761  0.40702  1.0000
  H   H406      1.0  0.26322  0.32395  0.02352  1.0000
  H   H407      1.0  0.45996  0.46549  0.17456  1.0000
  S   S67       1.0  0.24800  0.43110  0.03033  1.0000
  H   H408      1.0  0.08452  0.34681  0.07756  1.0000
  C   C233      1.0  0.28631  0.35174  0.50887  1.0000
  S   S68       1.0  0.07612  0.26744  0.48913  1.0000
  C   C234      1.0  0.09038  0.30207  0.02138  1.0000
  H   H409      1.0  0.29582  0.47636  0.24271  1.0000
  H   H410      1.0  0.08164  0.48827  0.28329  1.0000
  H   H411      1.0  0.22430  0.26973  0.47927  1.0000
  H   H412      1.0  0.20207  0.28574  0.50998  1.0000
  H   H413      1.0  0.44132  0.28400  0.13595  1.0000
  C   C235      1.0  0.04658  0.37534  0.15719  1.0000
  H   H414      1.0  0.31693  0.40276  0.11913  1.0000
  C   C236      1.0  0.11147  0.49233  0.29879  1.0000
  C   C237      1.0  0.45615  0.28473  0.14496  1.0000
  C   C238      1.0  0.26893  0.28048  0.51044  1.0000
  C   C239      1.0  0.02158  0.40015  0.13769  1.0000
  C   C240      1.0  0.40997  0.32069  0.14681  1.0000
  S   S69       1.0  0.03213  0.43399  0.23733  1.0000
  S   S70       1.0  0.19102  0.31307  0.02648  1.0000
  H   H415      1.0  0.26046  0.45478  0.19112  1.0000
  H   H416      1.0  0.25473  0.42895  0.08827  1.0000
  C   C241      1.0  0.06114  0.40565  0.13329  1.0000
  H   H417      1.0  0.47188  0.36605  0.14329  1.0000
  C   C242      1.0  0.04059  0.41271  0.16757  1.0000
  H   H418      1.0  0.47365  0.32050  0.12476  1.0000
  H   H419      1.0  0.02762  0.40729  0.17924  1.0000
  H   H420      1.0  0.02353  0.36915  0.12093  1.0000
  H   H421      1.0  0.03686  0.44587  0.17767  1.0000
  C   C243      1.0  0.47239  0.35436  0.13018  1.0000
  H   H422      1.0  0.27749  0.46280  0.26118  1.0000
  H   H423      1.0  0.42935  0.34505  0.13205  1.0000
  H   H424      1.0  0.47999  0.48363  0.23254  1.0000
  H   H425      1.0  0.46884  0.30136  0.17101  1.0000
  C   C244      1.0  0.12136  0.50123  0.31600  1.0000
  H   H426      1.0  0.31621  0.48358  0.27827  1.0000
  H   H427      1.0  0.11896  0.26953  0.01736  1.0000
  H   H428      1.0  0.13176  0.45557  0.32931  1.0000
  H   H429      1.0  0.14129  0.43178  0.34337  1.0000
  C   C245      1.0  0.22860  0.41483  0.01991  1.0000
  H   H430      1.0  0.30494  0.41729  0.14143  1.0000
  H   H431      1.0  0.44091  0.35728  0.16405  1.0000
  C   C246      1.0  0.07615  0.50721  0.31158  1.0000
  N   N15       1.0  0.11251  0.44763  0.35865  1.0000
  C   C247      1.0  0.09147  0.45793  0.35107  1.0000
  C   C248      1.0  0.10866  0.42750  0.37254  1.0000
  C   C249      1.0  0.11555  0.42714  0.32279  1.0000
  C   C250      1.0  0.07829  0.47316  0.36654  1.0000
  C   C251      1.0  0.09740  0.43045  0.39517  1.0000
  H   H432      1.0  0.11509  0.47104  0.38368  1.0000
  H   H433      1.0  0.09443  0.46786  0.33591  1.0000
  H   H434      1.0  0.08048  0.44537  0.34678  1.0000
  H   H435      1.0  0.09848  0.41659  0.36425  1.0000
  H   H436      1.0  0.12395  0.41751  0.37460  1.0000
  H   H437      1.0  0.10166  0.43597  0.31529  1.0000
  H   H438      1.0  0.12752  0.42318  0.30931  1.0000
  H   H439      1.0  0.04426  0.38972  0.22851  1.0000
  H   H440      1.0  0.01554  0.47561  0.33223  1.0000
  H   H441      1.0  0.06271  0.47806  0.35929  1.0000
  H   H442      1.0  0.10124  0.44536  0.40293  1.0000
  H   H443      1.0  0.15836  0.45027  0.36618  1.0000
  H   H444      1.0  0.43612  0.31946  0.12207  1.0000
  H   H445      1.0  0.02681  0.36166  0.20900  1.0000
  H   H446      1.0  0.29041  0.46909  0.30677  1.0000
  H   H447      1.0  0.05560  0.41188  0.17661  1.0000
  H   H448      1.0  0.08660  0.48832  0.36834  1.0000
  C   C252      1.0  0.44778  0.47923  0.17428  1.0000
  Fe  Fe36      1.0  0.25480  0.46639  0.02094  1.0000
  H   H449      1.0  0.10317  0.41713  0.40632  1.0000
  C   C253      1.0  0.14624  0.45520  0.37911  1.0000
  S   S71       1.0  0.25230  0.30051  0.49699  1.0000
  H   H450      1.0  0.28855  0.39874  0.39258  1.0000
  C   C254      1.0  0.08901  0.49530  0.29656  1.0000
  H   H451      1.0  0.07960  0.42984  0.39454  1.0000
  Fe  Fe37      1.0  0.01747  0.46604  0.25012  1.0000
  S   S72       1.0  0.02045  0.28168  0.14001  1.0000
  N   N16       1.0  0.07596  0.28424  0.02966  1.0000
  H   H452      1.0  0.42993  0.47453  0.21554  1.0000
  C   C255      1.0  0.12793  0.30263  0.49909  1.0000
  S   S73       1.0  0.25321  0.48765  0.33026  1.0000
  C   C256      1.0  0.11217  0.29123  0.48949  1.0000
  H   H453      1.0  0.48464  0.31333  0.02275  1.0000
  H   H454      1.0  0.26228  0.49878  0.25523  1.0000
  S   S74       1.0  0.14949  0.49562  0.31866  1.0000
  C   C257      1.0  0.03541  0.43699  0.16262  1.0000
  H   H455      1.0  0.25777  0.45471  0.09999  1.0000
  H   H456      1.0  0.27982  0.48397  0.13783  1.0000
  C   C258      1.0  0.46956  0.45599  0.21758  1.0000
  H   H457      1.0  0.04679  0.44394  0.15011  1.0000
  H   H458      1.0  0.48410  0.44615  0.21179  1.0000
  H   H459      1.0  0.24360  0.46355  0.21343  1.0000
  C   C259      1.0  0.04514  0.27577  0.05841  1.0000
  H   H460      1.0  0.03574  0.26764  0.04679  1.0000
  H   H461      1.0  0.09719  0.27191  0.05440  1.0000
  C   C260      1.0  0.20651  0.26812  0.51054  1.0000
  H   H462      1.0  0.41715  0.33028  0.18682  1.0000
  C   C261      1.0  0.43213  0.32784  0.13748  1.0000
  C   C262      1.0  0.25185  0.46928  0.19812  1.0000
  C   C263      1.0  0.01811  0.41380  0.22527  1.0000
  C   C264      1.0  0.06003  0.29245  0.04719  1.0000
  C   C265      1.0  0.26170  0.48801  0.24134  1.0000
  H   H463      1.0  0.41093  0.30686  0.15860  1.0000
  Fe  Fe38      1.0  0.02779  0.49991  0.28277  1.0000
  H   H464      1.0  0.44088  0.29819  0.17337  1.0000
  H   H465      1.0  0.07429  0.41124  0.14287  1.0000
  H   H466      1.0  0.28776  0.27292  0.48111  1.0000
  H   H467      1.0  0.26567  0.43616  0.44351  1.0000
  C   C266      1.0  0.29088  0.49499  0.10574  1.0000
  N   N17       1.0  0.25534  0.44258  0.39714  1.0000
  C   C267      1.0  0.26068  0.46405  0.40563  1.0000
  C   C268      1.0  0.24594  0.42955  0.41622  1.0000
  C   C269      1.0  0.23828  0.44717  0.38095  1.0000
  C   C270      1.0  0.27557  0.43203  0.38667  1.0000
  C   C271      1.0  0.27112  0.48027  0.38909  1.0000
  C   C272      1.0  0.26160  0.42239  0.43393  1.0000
  C   C273      1.0  0.23056  0.42769  0.36944  1.0000
  C   C274      1.0  0.27571  0.40739  0.38329  1.0000
  H   H468      1.0  0.24588  0.47246  0.41313  1.0000
  H   H469      1.0  0.27223  0.46170  0.41867  1.0000
  H   H470      1.0  0.23850  0.41483  0.41140  1.0000
  H   H471      1.0  0.23232  0.43901  0.42439  1.0000
  H   H472      1.0  0.22378  0.45566  0.38878  1.0000
  H   H473      1.0  0.24407  0.45826  0.36760  1.0000
  H   H474      1.0  0.27929  0.44001  0.37050  1.0000
  H   H475      1.0  0.28973  0.43470  0.39631  1.0000
  H   H476      1.0  0.28633  0.47359  0.38109  1.0000
  H   H477      1.0  0.25994  0.48635  0.37670  1.0000
  H   H478      1.0  0.27527  0.49468  0.39774  1.0000
  H   H479      1.0  0.25341  0.41088  0.44551  1.0000
  H   H480      1.0  0.27658  0.41392  0.42741  1.0000
  C   C275      1.0  0.07224  0.38874  0.11800  1.0000
  H   H481      1.0  0.24345  0.42076  0.35824  1.0000
  H   H482      1.0  0.21713  0.43340  0.35919  1.0000
  H   H483      1.0  0.22406  0.41501  0.38068  1.0000
  H   H484      1.0  0.27981  0.40416  0.36597  1.0000
  H   H485      1.0  0.26036  0.39974  0.38773  1.0000
  H   H486      1.0  0.41808  0.48163  0.25127  1.0000
  C   C276      1.0  0.30279  0.49379  0.28453  1.0000
  N   N18       1.0  0.30073  0.43287  0.08645  1.0000
  C   C277      1.0  0.32166  0.44424  0.08369  1.0000
  C   C278      1.0  0.29488  0.43071  0.11044  1.0000
  C   C279      1.0  0.28342  0.44650  0.07514  1.0000
  C   C280      1.0  0.30431  0.41118  0.07634  1.0000
  C   C281      1.0  0.32934  0.45066  0.06025  1.0000
  C   C282      1.0  0.33037  0.50012  0.12440  1.0000
  C   C283      1.0  0.25996  0.44555  0.08492  1.0000
  C   C284      1.0  0.28504  0.39653  0.07805  1.0000
  H   H487      1.0  0.32054  0.45923  0.09306  1.0000
  H   H488      1.0  0.33524  0.43406  0.09031  1.0000
  H   H489      1.0  0.27984  0.42205  0.11384  1.0000
  H   H490      1.0  0.29139  0.44703  0.11707  1.0000
  H   H491      1.0  0.28681  0.46394  0.07481  1.0000
  H   H492      1.0  0.28332  0.44253  0.05777  1.0000
  H   H493      1.0  0.30858  0.41324  0.05871  1.0000
  H   H494      1.0  0.31831  0.40191  0.08324  1.0000
  H   H495      1.0  0.31726  0.46122  0.05190  1.0000
  H   H496      1.0  0.34394  0.46019  0.06071  1.0000
  H   H497      1.0  0.33399  0.43641  0.05048  1.0000
  Fe  Fe39      1.0  0.01970  0.28565  0.17618  1.0000
  C   C285      1.0  0.30836  0.50228  0.09266  1.0000
  H   H498      1.0  0.27555  0.49321  0.09876  1.0000
  C   C286      1.0  0.01861  0.37732  0.21125  1.0000
  N   N19       1.0  0.04284  0.39825  0.14844  1.0000
  H   H499      1.0  0.24587  0.48049  0.24401  1.0000
  S   S75       1.0  0.31582  0.48384  0.16485  1.0000
  H   H500      1.0  0.34158  0.51080  0.09227  1.0000
  C   C287      1.0  0.50579  0.27106  0.26699  1.0000
  H   H501      1.0  0.40049  0.33440  0.15436  1.0000
  Fe  Fe40      1.0  0.17251  0.50556  0.34350  1.0000
  C   C288      1.0  0.21014  0.38075  0.02200  1.0000
  H   H502      1.0  0.07810  0.39716  0.10278  1.0000
  S   S76       1.0  0.01671  0.26554  0.47567  1.0000
  H   H503      1.0  0.04923  0.30590  0.04107  1.0000
  H   H504      1.0  0.12123  0.48297  0.28713  1.0000
  H   H505      1.0  0.10472  0.30242  0.03136  1.0000
  H   H506      1.0  0.23598  0.32762  0.03338  1.0000
  H   H507      1.0  0.49864  0.27518  0.25175  1.0000
  H   H508      1.0  0.08102  0.37843  0.16356  1.0000
  H   H509      1.0  0.46609  0.45035  0.23463  1.0000
  H   H510      1.0  0.06885  0.29941  0.06017  1.0000
  H   H511      1.0  0.47034  0.28633  0.13346  1.0000
  C   C289      1.0  0.43300  0.48970  0.24549  1.0000
  C   C290      1.0  0.28557  0.26935  0.49833  1.0000
  H   H512      1.0  0.28499  0.36415  0.49548  1.0000
  S   S77       1.0  0.04764  0.51041  0.31026  1.0000
  H   H513      1.0  0.48893  0.48203  0.20482  1.0000
  C   C291      1.0  0.10853  0.51328  0.33095  1.0000
  H   H514      1.0  0.01874  0.48995  0.35589  1.0000
  H   H515      1.0  0.01849  0.44018  0.15806  1.0000
  H   H516      1.0  0.27373  0.34023  0.50662  1.0000
  N   N20       1.0  0.45647  0.49620  0.21030  1.0000
  H   H517      1.0  0.16549  0.27800  0.50965  1.0000
  S   S78       1.0  0.17808  0.37051  0.51315  1.0000
  C   C292      1.0  0.08053  0.32553  0.02126  1.0000
  H   H518      1.0  0.30263  0.34364  0.50678  1.0000
  C   C293      1.0  0.24841  0.33457  0.02190  1.0000
  H   H519      1.0  0.28480  0.47850  0.20183  1.0000
  S   S79       1.0  0.37839  0.50619  0.23337  1.0000
  C   C294      1.0  0.09001  0.26630  0.03970  1.0000
  H   H520      1.0  0.19649  0.26544  0.47714  1.0000
  C   C295      1.0  0.26831  0.48651  0.20127  1.0000
  H   H521      1.0  0.22858  0.50164  0.21771  1.0000
  C   C296      1.0  0.43482  0.49037  0.22050  1.0000
  N   N21       1.0  0.26324  0.50089  0.22009  1.0000
  H   H522      1.0  0.26920  0.49625  0.18576  1.0000
  H   H523      1.0  0.29699  0.50697  0.22237  1.0000
  C   C297      1.0  0.24189  0.51301  0.21691  1.0000
  H   H524      1.0  0.48194  0.34153  0.01552  1.0000
  H   H525      1.0  0.47110  0.50238  0.17808  1.0000
  C   C298      1.0  0.45515  0.49867  0.18605  1.0000
  H   H526      1.0  0.43146  0.50625  0.25177  1.0000
  H   H527      1.0  0.42195  0.50209  0.21471  1.0000
  H   H528      1.0  0.44396  0.51267  0.18184  1.0000
  S   S80       1.0  0.21966  0.51393  0.38062  1.0000
  H   H529      1.0  0.48926  0.37290  0.94637  1.0000
  S   S81       1.0  0.23249  0.48344  0.64399  1.0000
  H   H530      1.0  0.20733  0.27734  0.93492  1.0000
  S   S82       1.0  0.19957  0.47012  0.68443  1.0000
  H   H531      1.0  0.26294  0.37190  0.57027  1.0000
  Fe  Fe41      1.0  0.23130  0.48625  0.68028  1.0000
  S   S83       1.0  0.25839  0.47343  0.70194  1.0000
  Fe  Fe42      1.0  0.19952  0.47037  0.64807  1.0000
  S   S84       1.0  0.18568  0.44356  0.62974  1.0000
  Fe  Fe43      1.0  0.50763  0.33236  0.79774  1.0000
  H   H532      1.0  0.24787  0.34650  0.54864  1.0000
  S   S85       1.0  0.20678  0.33101  0.53782  1.0000
  H   H533      1.0  0.45603  0.27542  0.82469  1.0000
  H   H534      1.0  0.02993  0.26546  0.74293  1.0000
  Fe  Fe44      1.0  0.20973  0.36650  0.52941  1.0000
  S   S86       1.0  0.22624  0.38951  0.55026  1.0000
  S   S87       1.0  0.49363  0.33384  0.83223  1.0000
  C   C299      1.0  0.49614  0.30347  0.91439  1.0000
  S   S88       1.0  0.46959  0.39393  0.84306  1.0000
  C   C300      1.0  0.50506  0.28897  0.75844  1.0000
  S   S89       1.0  0.34163  0.47234  0.80750  1.0000
  C   C301      1.0  0.12645  0.30562  0.52140  1.0000
  S   S90       1.0  0.37795  0.48961  0.83888  1.0000
  Fe  Fe45      1.0  0.37736  0.47724  0.80536  1.0000
  S   S91       1.0  0.39961  0.45043  0.79121  1.0000
  Fe  Fe46      1.0  0.34186  0.48700  0.84018  1.0000
  S   S92       1.0  0.37339  0.51023  0.78878  1.0000
  Fe  Fe47      1.0  0.28032  0.49744  0.99045  1.0000
  S   S93       1.0  0.24553  0.48854  0.99268  1.0000
  Fe  Fe48      1.0  0.19633  0.28791  0.00115  1.0000
  H   H535      1.0  0.49529  0.36893  0.99156  1.0000
  C   C302      1.0  0.23167  0.49107  0.57937  1.0000
  S   S94       1.0  0.18239  0.30939  0.97450  1.0000
  C   C303      1.0  0.25534  0.36846  0.98443  1.0000
  H   H536      1.0  0.22862  0.31083  0.96396  1.0000
  H   H537      1.0  0.28345  0.33562  0.96194  1.0000
  Fe  Fe49      1.0  0.14990  0.29698  0.98498  1.0000
  S   S95       1.0  0.12340  0.28207  0.96718  1.0000
  C   C304      1.0  0.24277  0.48782  0.77368  1.0000
  Fe  Fe50      1.0  0.04756  0.30151  0.86669  1.0000
  H   H538      1.0  0.11379  0.32901  0.90146  1.0000
  S   S96       1.0  0.07811  0.31345  0.88026  1.0000
  H   H539      1.0  0.26295  0.32474  0.53720  1.0000
  H   H540      1.0  0.36395  0.38644  0.81725  1.0000
  S   S97       1.0  0.04513  0.30236  0.83043  1.0000
  H   H541      1.0  0.46428  0.29733  0.62161  1.0000
  Fe  Fe51      1.0  0.03637  0.49290  0.74529  1.0000
  S   S98       1.0  0.04608  0.49139  0.77955  1.0000
  H   H542      1.0  0.19773  0.49518  0.72690  1.0000
  H   H543      1.0  0.50506  0.30616  0.98739  1.0000
  C   C305      1.0  0.21783  0.42097  0.00123  1.0000
  H   H544      1.0  0.32015  0.39586  0.87193  1.0000
  H   H545      1.0  0.22071  0.43640  0.99308  1.0000
  Fe  Fe52      1.0  0.49448  0.37003  0.82771  1.0000
  H   H546      1.0  0.48689  0.32821  0.70666  1.0000
  H   H547      1.0  0.22243  0.26696  0.51777  1.0000
  H   H548      1.0  0.26172  0.38370  0.95199  1.0000
  S   S99       1.0  0.01840  0.44458  0.81354  1.0000
  Fe  Fe53      1.0  0.17587  0.33395  0.00030  1.0000
  H   H549      1.0  0.30702  0.34602  0.98539  1.0000
  H   H550      1.0  0.29503  0.31288  0.52681  1.0000
  H   H551      1.0  0.45082  0.27662  0.63677  1.0000
  H   H552      1.0  0.29378  0.38750  0.58777  1.0000
  S   S100      1.0  0.03398  0.26874  0.87047  1.0000
  C   C306      1.0  0.11061  0.29168  0.94339  1.0000
  C   C307      1.0  0.11803  0.30912  0.93054  1.0000
  C   C308      1.0  0.10784  0.31558  0.91134  1.0000
  C   C309      1.0  0.09004  0.30484  0.90484  1.0000
  C   C310      1.0  0.08254  0.28749  0.91780  1.0000
  C   C311      1.0  0.09284  0.28091  0.93689  1.0000
  H   H553      1.0  0.13169  0.31754  0.93528  1.0000
  H   H554      1.0  0.32212  0.31087  0.53445  1.0000
  H   H555      1.0  0.25174  0.35094  0.94627  1.0000
  H   H556      1.0  0.47615  0.35290  0.93328  1.0000
  H   H557      1.0  0.46977  0.32164  0.99990  1.0000
  H   H558      1.0  0.17113  0.47725  0.59806  1.0000
  C   C312      1.0  0.11979  0.50809  0.73068  1.0000
  H   H559      1.0  0.23545  0.50815  0.57585  1.0000
  C   C313      1.0  0.31638  0.48041  0.89313  1.0000
  C   C314      1.0  0.30298  0.46928  0.90842  1.0000
  C   C315      1.0  0.29813  0.47728  0.92924  1.0000
  C   C316      1.0  0.30684  0.49641  0.93497  1.0000
  H   H560      1.0  0.29632  0.45440  0.90413  1.0000
  H   H561      1.0  0.28781  0.46861  0.94085  1.0000
  C   C317      1.0  0.45176  0.41076  0.82765  1.0000
  C   C318      1.0  0.44094  0.42879  0.83720  1.0000
  C   C319      1.0  0.42558  0.44172  0.82590  1.0000
  C   C320      1.0  0.42059  0.43640  0.80509  1.0000
  C   C321      1.0  0.43170  0.41860  0.79543  1.0000
  C   C322      1.0  0.44729  0.40589  0.80659  1.0000
  H   H562      1.0  0.44434  0.43269  0.85348  1.0000
  H   H563      1.0  0.41729  0.45548  0.83346  1.0000
  H   H564      1.0  0.42799  0.41442  0.77932  1.0000
  H   H565      1.0  0.45548  0.39204  0.79908  1.0000
  C   C323      1.0  0.45295  0.27114  0.68104  1.0000
  H   H566      1.0  0.45181  0.26872  0.71708  1.0000
  H   H567      1.0  0.01849  0.26685  0.70630  1.0000
  C   C324      1.0  0.49048  0.35558  0.94259  1.0000
  H   H568      1.0  0.48593  0.32463  0.95825  1.0000
  C   C325      1.0  0.27364  0.48689  0.72032  1.0000
  H   H569      1.0  0.25363  0.28393  0.54218  1.0000
  H   H570      1.0  0.16375  0.27141  0.94097  1.0000
  H   H571      1.0  0.23238  0.32082  0.93688  1.0000
  C   C326      1.0  0.30015  0.48439  0.74842  1.0000
  C   C327      1.0  0.28801  0.47456  0.73331  1.0000
  H   H572      1.0  0.08703  0.26732  0.94662  1.0000
  H   H573      1.0  0.31113  0.47464  0.75822  1.0000
  H   H574      1.0  0.28977  0.45725  0.73167  1.0000
  C   C328      1.0  0.19759  0.42810  0.60820  1.0000
  C   C329      1.0  0.21939  0.42915  0.60129  1.0000
  C   C330      1.0  0.22787  0.41720  0.58357  1.0000
  C   C331      1.0  0.21472  0.40400  0.57262  1.0000
  C   C332      1.0  0.19300  0.40280  0.57963  1.0000
  C   C333      1.0  0.18452  0.41475  0.59736  1.0000
  H   H575      1.0  0.22968  0.43921  0.60957  1.0000
  H   H576      1.0  0.24470  0.41822  0.57830  1.0000
  H   H577      1.0  0.18270  0.39270  0.57140  1.0000
  H   H578      1.0  0.16766  0.41377  0.60260  1.0000
  S   S101      1.0  0.16449  0.27352  0.00957  1.0000
  C   C334      1.0  0.39552  0.37337  0.84162  1.0000
  H   H579      1.0  0.47467  0.34685  0.97283  1.0000
  C   C335      1.0  0.08812  0.49492  0.71506  1.0000
  Fe  Fe54      1.0  0.01748  0.47100  0.78678  1.0000
  H   H580      1.0  0.13493  0.48843  0.58583  1.0000
  H   H581      1.0  0.19559  0.41172  0.97816  1.0000
  H   H582      1.0  0.18613  0.45443  0.57025  1.0000
  H   H583      1.0  0.10738  0.29986  0.55109  1.0000
  H   H584      1.0  0.20741  0.49129  0.54407  1.0000
  H   H585      1.0  0.23889  0.37647  0.98441  1.0000
  C   C336      1.0  0.47232  0.27778  0.83044  1.0000
  C   C337      1.0  0.19976  0.38667  0.00301  1.0000
  H   H586      1.0  0.24468  0.31072  0.56886  1.0000
  H   H587      1.0  0.09711  0.29904  0.00465  1.0000
  C   C338      1.0  0.24281  0.34283  0.96011  1.0000
  C   C339      1.0  0.19258  0.48612  0.55338  1.0000
  H   H588      1.0  0.23525  0.48143  0.56482  1.0000
  H   H589      1.0  0.47989  0.27443  0.63141  1.0000
  H   H590      1.0  0.29327  0.39398  0.55958  1.0000
  H   H591      1.0  0.01422  0.41204  0.84724  1.0000
  H   H592      1.0  0.41210  0.36823  0.84634  1.0000
  H   H593      1.0  0.39517  0.37004  0.82418  1.0000
  C   C340      1.0  0.24030  0.33451  0.99886  1.0000
  C   C341      1.0  0.21827  0.49271  0.77783  1.0000
  H   H594      1.0  0.28727  0.34926  0.00749  1.0000
  C   C342      1.0  0.10869  0.29765  0.53382  1.0000
  H   H595      1.0  0.45774  0.30310  0.70325  1.0000
  H   H596      1.0  0.27208  0.31127  0.57630  1.0000
  N   N22       1.0  0.36862  0.40696  0.84397  1.0000
  C   C343      1.0  0.39152  0.39769  0.84568  1.0000
  C   C344      1.0  0.36889  0.43087  0.84748  1.0000
  C   C345      1.0  0.36233  0.40376  0.82120  1.0000
  C   C346      1.0  0.35404  0.39538  0.86047  1.0000
  H   H597      1.0  0.49977  0.32000  0.68162  1.0000
  C   C347      1.0  0.37701  0.43704  0.86938  1.0000
  H   H598      1.0  0.04106  0.28105  0.98735  1.0000
  H   H599      1.0  0.33490  0.42808  0.81943  1.0000
  H   H600      1.0  0.40263  0.40629  0.83406  1.0000
  H   H601      1.0  0.39741  0.40001  0.86200  1.0000
  H   H602      1.0  0.35282  0.43918  0.84589  1.0000
  H   H603      1.0  0.37920  0.43884  0.83453  1.0000
  H   H604      1.0  0.27127  0.39763  0.97370  1.0000
  H   H605      1.0  0.33464  0.41571  0.88357  1.0000
  N   N23       1.0  0.25421  0.34463  0.98084  1.0000
  H   H606      1.0  0.36283  0.39139  0.87544  1.0000
  N   N24       1.0  0.47241  0.28457  0.67658  1.0000
  H   H607      1.0  0.21135  0.47749  0.78408  1.0000
  C   C348      1.0  0.25780  0.32155  0.57168  1.0000
  H   H608      1.0  0.37170  0.45407  0.87253  1.0000
  H   H609      1.0  0.22457  0.45675  0.73673  1.0000
  H   H610      1.0  0.39494  0.43604  0.86898  1.0000
  H   H611      1.0  0.26090  0.37175  0.00054  1.0000
  H   H612      1.0  0.34978  0.37965  0.85429  1.0000
  H   H613      1.0  0.29991  0.32342  0.00239  1.0000
  S   S102      1.0  0.50564  0.36876  0.79260  1.0000
  C   C349      1.0  0.48943  0.34098  0.96332  1.0000
  N   N25       1.0  0.07693  0.36867  0.82186  1.0000
  C   C350      1.0  0.06550  0.38969  0.81498  1.0000
  C   C351      1.0  0.06259  0.35712  0.83853  1.0000
  C   C352      1.0  0.08154  0.35426  0.80292  1.0000
  C   C353      1.0  0.09803  0.37352  0.83098  1.0000
  C   C354      1.0  0.07705  0.40302  0.79665  1.0000
  C   C355      1.0  0.05795  0.36833  0.86023  1.0000
  C   C356      1.0  0.06213  0.35048  0.78927  1.0000
  C   C357      1.0  0.11061  0.35410  0.84164  1.0000
  H   H614      1.0  0.04916  0.38684  0.80980  1.0000
  H   H615      1.0  0.06278  0.40060  0.82879  1.0000
  H   H616      1.0  0.06940  0.34051  0.84225  1.0000
  H   H617      1.0  0.04657  0.35477  0.83214  1.0000
  H   H618      1.0  0.09463  0.36051  0.79173  1.0000
  H   H619      1.0  0.08770  0.33790  0.80854  1.0000
  H   H620      1.0  0.10923  0.38026  0.81805  1.0000
  H   H621      1.0  0.09555  0.38632  0.84310  1.0000
  H   H622      1.0  0.08015  0.39400  0.78163  1.0000
  H   H623      1.0  0.06642  0.41746  0.79251  1.0000
  H   H624      1.0  0.09233  0.40911  0.80177  1.0000
  S   S103      1.0  0.18162  0.50297  0.64582  1.0000
  H   H625      1.0  0.04875  0.38403  0.85821  1.0000
  H   H626      1.0  0.04773  0.35787  0.87109  1.0000
  H   H627      1.0  0.31710  0.34448  0.54780  1.0000
  H   H628      1.0  0.06748  0.33917  0.77635  1.0000
  H   H629      1.0  0.05572  0.36551  0.78107  1.0000
  H   H630      1.0  0.10189  0.34765  0.85643  1.0000
  H   H631      1.0  0.12623  0.35949  0.84676  1.0000
  H   H632      1.0  0.11441  0.34084  0.83037  1.0000
  H   H633      1.0  0.03517  0.29624  0.01099  1.0000
  H   H634      1.0  0.16500  0.50513  0.59925  1.0000
  Fe  Fe55      1.0  0.02863  0.27095  0.83466  1.0000
  N   N26       1.0  0.28222  0.34870  0.55086  1.0000
  C   C358      1.0  0.27912  0.36317  0.56999  1.0000
  C   C359      1.0  0.26247  0.33559  0.55095  1.0000
  N   N27       1.0  0.20667  0.50279  0.75883  1.0000
  C   C360      1.0  0.30290  0.33495  0.55303  1.0000
  H   H635      1.0  0.33726  0.40943  0.79835  1.0000
  H   H636      1.0  0.48243  0.30866  0.65196  1.0000
  C   C361      1.0  0.48407  0.32522  0.00883  1.0000
  C   C362      1.0  0.30513  0.31358  0.54081  1.0000
  C   C363      1.0  0.28326  0.36306  0.53057  1.0000
  H   H637      1.0  0.22644  0.35131  0.96133  1.0000
  C   C364      1.0  0.50514  0.32234  0.99452  1.0000
  H   H638      1.0  0.20307  0.27487  0.57437  1.0000
  C   C365      1.0  0.20835  0.48876  0.58892  1.0000
  H   H639      1.0  0.17920  0.49147  0.54297  1.0000
  H   H640      1.0  0.22565  0.49269  0.73026  1.0000
  H   H641      1.0  0.30494  0.33018  0.57037  1.0000
  C   C366      1.0  0.10055  0.49201  0.69558  1.0000
  H   H642      1.0  0.07279  0.37049  0.86879  1.0000
  H   H643      1.0  0.47016  0.28103  0.84793  1.0000
  N   N28       1.0  0.50888  0.33965  0.97698  1.0000
  H   H644      1.0  0.17696  0.28089  0.54591  1.0000
  H   H645      1.0  0.05648  0.30376  0.99103  1.0000
  S   S104      1.0  0.18355  0.36871  0.99030  1.0000
  H   H646      1.0  0.49924  0.32196  0.88406  1.0000
  H   H647      1.0  0.32720  0.40044  0.82456  1.0000
  C   C367      1.0  0.32483  0.49967  0.89881  1.0000
  H   H648      1.0  0.21510  0.28458  0.54935  1.0000
  H   H649      1.0  0.30206  0.29955  0.55211  1.0000
  C   C368      1.0  0.16939  0.49222  0.58754  1.0000
  H   H650      1.0  0.20694  0.49712  0.60452  1.0000
  H   H651      1.0  0.26836  0.37393  0.52989  1.0000
  S   S105      1.0  0.49168  0.28080  0.95318  1.0000
  H   H652      1.0  0.13171  0.49494  0.67844  1.0000
  H   H653      1.0  0.20694  0.47146  0.59369  1.0000
  H   H654      1.0  0.50653  0.28535  0.85335  1.0000
  H   H655      1.0  0.38413  0.36322  0.85135  1.0000
  H   H656      1.0  0.23827  0.31723  0.99605  1.0000
  C   C369      1.0  0.06498  0.27500  0.01132  1.0000
  C   C370      1.0  0.27158  0.50928  0.72262  1.0000
  C   C371      1.0  0.12245  0.49709  0.69362  1.0000
  C   C372      1.0  0.23982  0.31972  0.95280  1.0000
  H   H657      1.0  0.25175  0.33161  0.58538  1.0000
  N   N29       1.0  0.19032  0.49686  0.57481  1.0000
  C   C373      1.0  0.32012  0.50757  0.91963  1.0000
  C   C374      1.0  0.27609  0.33284  0.97861  1.0000
  H   H658      1.0  0.47936  0.30866  0.91753  1.0000
  S   S106      1.0  0.32238  0.46957  0.86729  1.0000
  S   S107      1.0  0.30141  0.50751  0.96077  1.0000
  H   H659      1.0  0.15323  0.49179  0.77598  1.0000
  H   H660      1.0  0.21078  0.45463  0.55302  1.0000
  H   H661      1.0  0.37056  0.42698  0.88319  1.0000
  H   H662      1.0  0.25534  0.31014  0.95061  1.0000
  H   H663      1.0  0.27432  0.31503  0.98039  1.0000
  H   H664      1.0  0.49410  0.26780  0.88475  1.0000
  C   C375      1.0  0.48408  0.32103  0.69098  1.0000
  H   H665      1.0  0.06510  0.32763  0.01324  1.0000
  S   S108      1.0  0.49279  0.30743  0.77735  1.0000
  C   C376      1.0  0.29816  0.50677  0.75067  1.0000
  Fe  Fe56      1.0  0.17640  0.33435  0.51918  1.0000
  C   C377      1.0  0.19378  0.46114  0.55502  1.0000
  H   H666      1.0  0.24299  0.48471  0.59166  1.0000
  H   H667      1.0  0.37344  0.41226  0.80927  1.0000
  S   S109      1.0  0.14716  0.31760  0.53473  1.0000
  Fe  Fe57      1.0  0.33746  0.50615  0.79357  1.0000
  C   C378      1.0  0.09270  0.28660  0.52415  1.0000
  H   H668      1.0  0.21614  0.50341  0.79190  1.0000
  H   H669      1.0  0.04887  0.34284  0.79898  1.0000
  C   C379      1.0  0.18300  0.50660  0.76529  1.0000
  C   C380      1.0  0.33273  0.40770  0.86814  1.0000
  H   H670      1.0  0.32593  0.41966  0.85632  1.0000
  H   H671      1.0  0.28594  0.37365  0.96498  1.0000
  H   H672      1.0  0.31274  0.37352  0.56971  1.0000
  C   C381      1.0  0.49207  0.26932  0.67406  1.0000
  H   H673      1.0  0.27941  0.35348  0.58552  1.0000
  H   H674      1.0  0.18529  0.45481  0.54151  1.0000
  C   C382      1.0  0.33904  0.41098  0.81596  1.0000
  H   H675      1.0  0.09313  0.48596  0.68183  1.0000
  H   H676      1.0  0.19686  0.45902  0.73091  1.0000
  H   H677      1.0  0.20387  0.45859  0.75817  1.0000
  H   H678      1.0  0.25176  0.50280  0.77187  1.0000
  H   H679      1.0  0.14628  0.50198  0.56218  1.0000
  C   C383      1.0  0.47405  0.29893  0.69556  1.0000
  C   C384      1.0  0.26949  0.38123  0.96765  1.0000
  C   C385      1.0  0.49273  0.27261  0.75115  1.0000
  C   C386      1.0  0.20978  0.48967  0.73880  1.0000
  H   H680      1.0  0.47849  0.29210  0.82137  1.0000
  C   C387      1.0  0.51140  0.36085  0.98749  1.0000
  H   H681      1.0  0.50472  0.35168  0.93156  1.0000
  C   C388      1.0  0.20873  0.46478  0.74179  1.0000
  H   H682      1.0  0.22372  0.34236  0.99933  1.0000
  H   H683      1.0  0.29698  0.37381  0.53048  1.0000
  C   C389      1.0  0.29319  0.33852  0.99443  1.0000
  C   C390      1.0  0.26631  0.27561  0.53266  1.0000
  Fe  Fe58      1.0  0.18413  0.50363  0.68193  1.0000
  H   H684      1.0  0.45430  0.30928  0.65856  1.0000
  C   C391      1.0  0.20354  0.40694  0.99283  1.0000
  H   H685      1.0  0.06894  0.27901  0.91297  1.0000
  C   C392      1.0  0.13212  0.50541  0.71107  1.0000
  H   H686      1.0  0.33520  0.50836  0.88723  1.0000
  C   C393      1.0  0.09795  0.50269  0.73275  1.0000
  H   H687      1.0  0.09207  0.33631  0.01245  1.0000
  S   S110      1.0  0.06021  0.48970  0.71608  1.0000
  C   C394      1.0  0.29591  0.38039  0.57155  1.0000
  S   S111      1.0  0.23024  0.27231  0.99367  1.0000
  H   H688      1.0  0.16846  0.47711  0.75585  1.0000
  H   H689      1.0  0.15096  0.47323  0.56646  1.0000
  H   H690      1.0  0.47619  0.27135  0.75738  1.0000
  H   H691      1.0  0.24652  0.47793  0.75933  1.0000
  C   C395      1.0  0.14944  0.48895  0.57448  1.0000
  H   H692      1.0  0.48324  0.29029  0.70850  1.0000
  C   C396      1.0  0.46884  0.29809  0.65612  1.0000
  S   S112      1.0  0.02034  0.26865  0.52832  1.0000
  C   C397      1.0  0.46582  0.28559  0.63555  1.0000
  C   C398      1.0  0.04850  0.29018  0.99980  1.0000
  H   H693      1.0  0.24918  0.47847  0.78782  1.0000
  H   H694      1.0  0.17646  0.47594  0.78379  1.0000
  H   H695      1.0  0.07711  0.26968  0.99839  1.0000
  C   C399      1.0  0.20752  0.27039  0.55744  1.0000
  H   H696      1.0  0.08864  0.50480  0.74788  1.0000
  H   H697      1.0  0.43774  0.28153  0.68028  1.0000
  C   C400      1.0  0.50642  0.28923  0.92929  1.0000
  S   S113      1.0  0.01547  0.31971  0.87286  1.0000
  S   S114      1.0  0.14204  0.32321  0.00856  1.0000
  C   C401      1.0  0.16997  0.48644  0.77054  1.0000
  H   H698      1.0  0.07927  0.28037  0.53394  1.0000
  H   H699      1.0  0.47281  0.33247  0.68237  1.0000
  S   S115      1.0  0.15912  0.51375  0.70878  1.0000
  C   C402      1.0  0.50737  0.31104  0.89542  1.0000
  C   C403      1.0  0.18686  0.26531  0.54640  1.0000
  C   C404      1.0  0.01284  0.41700  0.81268  1.0000
  H   H700      1.0  0.04813  0.26536  0.67813  1.0000
  C   C405      1.0  0.51217  0.26797  0.85339  1.0000
  Fe  Fe59      1.0  0.20770  0.62673  0.49458  1.0000
  S   S116      1.0  0.20902  0.59530  0.47687  1.0000
  S   S117      1.0  0.20975  0.66041  0.48067  1.0000
  Fe  Fe60      1.0  0.19426  0.53836  0.36946  1.0000
  S   S118      1.0  0.19300  0.57337  0.37976  1.0000
  C   C406      1.0  0.30355  0.72413  0.02687  1.0000
  Fe  Fe61      1.0  0.48571  0.63245  0.21679  1.0000
  S   S119      1.0  0.45749  0.61160  0.22804  1.0000
  H   H701      1.0  0.39908  0.64760  0.17843  1.0000
  H   H702      1.0  0.48068  0.64479  0.14241  1.0000
  Fe  Fe62      1.0  0.37991  0.51918  0.19895  1.0000
  S   S120      1.0  0.47867  0.66824  0.21313  1.0000
  H   H703      1.0  0.27906  0.52581  0.23574  1.0000
  H   H704      1.0  0.27372  0.61373  0.40150  1.0000
  S   S121      1.0  0.40650  0.54006  0.18379  1.0000
  C   C407      1.0  0.45291  0.63740  0.16454  1.0000
  Fe  Fe63      1.0  0.03094  0.72418  0.51359  1.0000
  H   H705      1.0  0.42145  0.67394  0.19662  1.0000
  H   H706      1.0  0.43903  0.65114  0.20514  1.0000
  C   C408      1.0  0.46858  0.63227  0.14483  1.0000
  Fe  Fe64      1.0  0.02716  0.69329  0.14327  1.0000
  S   S122      1.0  0.04926  0.70944  0.11731  1.0000
  C   C409      1.0  0.01615  0.75441  0.30518  1.0000
  S   S123      1.0  0.03325  0.69334  0.17885  1.0000
  C   C410      1.0  0.02381  0.59588  0.22661  1.0000
  S   S124      1.0  0.18838  0.68142  0.03623  1.0000
  C   C411      1.0  0.24373  0.75236  0.48624  1.0000
  C   C412      1.0  0.42010  0.60818  0.14828  1.0000
  Fe  Fe65      1.0  0.15206  0.68218  0.03772  1.0000
  S   S125      1.0  0.13288  0.66748  0.06685  1.0000
  Fe  Fe66      1.0  0.50767  0.67293  0.23221  1.0000
  C   C413      1.0  0.30679  0.72910  0.49933  1.0000
  H   H707      1.0  0.15963  0.59960  0.48854  1.0000
  C   C414      1.0  0.42267  0.65626  0.20015  1.0000
  C   C415      1.0  0.46422  0.74388  0.35470  1.0000
  C   C416      1.0  0.08577  0.69826  0.51263  1.0000
  H   H708      1.0  0.30508  0.63354  0.39285  1.0000
  H   H709      1.0  0.29679  0.54339  0.20505  1.0000
  H   H710      1.0  0.41146  0.65292  0.21439  1.0000
  H   H711      1.0  0.21493  0.64101  0.04402  1.0000
  C   C417      1.0  0.07241  0.69738  0.10345  1.0000
  C   C418      1.0  0.07912  0.67572  0.10723  1.0000
  C   C419      1.0  0.09770  0.66686  0.09593  1.0000
  C   C420      1.0  0.10972  0.67950  0.08074  1.0000
  C   C421      1.0  0.10298  0.70114  0.07692  1.0000
  C   C422      1.0  0.08440  0.71001  0.08820  1.0000
  H   H712      1.0  0.07007  0.66582  0.11893  1.0000
  H   H713      1.0  0.10278  0.65011  0.09904  1.0000
  H   H714      1.0  0.11226  0.71109  0.06548  1.0000
  H   H715      1.0  0.07940  0.72679  0.08521  1.0000
  H   H716      1.0  0.30309  0.71411  0.04218  1.0000
  C   C423      1.0  0.09043  0.65890  0.02811  1.0000
  C   C424      1.0  0.05118  0.74424  0.28747  1.0000
  H   H717      1.0  0.10038  0.63677  0.44605  1.0000
  H   H718      1.0  0.25488  0.53045  0.30796  1.0000
  H   H719      1.0  0.45287  0.62273  0.17543  1.0000
  C   C425      1.0  0.25665  0.57933  0.42503  1.0000
  Fe  Fe67      1.0  0.18335  0.66959  0.50554  1.0000
  S   S126      1.0  0.26146  0.68493  0.49238  1.0000
  H   H720      1.0  0.02898  0.68883  0.01674  1.0000
  H   H721      1.0  0.43582  0.70298  0.39380  1.0000
  Fe  Fe68      1.0  0.50070  0.66761  0.18306  1.0000
  S   S127      1.0  0.50590  0.63134  0.18552  1.0000
  C   C426      1.0  0.51158  0.71510  0.27578  1.0000
  H   H722      1.0  0.48371  0.73713  0.27994  1.0000
  H   H723      1.0  0.42668  0.67038  0.11807  1.0000
  S   S128      1.0  0.15866  0.69528  0.49373  1.0000
  H   H724      1.0  0.10794  0.61437  0.46264  1.0000
  H   H725      1.0  0.28089  0.54503  0.27969  1.0000
  C   C427      1.0  0.02421  0.75324  0.22293  1.0000
  C   C428      1.0  0.28421  0.53221  0.20146  1.0000
  C   C429      1.0  0.44403  0.59127  0.21556  1.0000
  C   C430      1.0  0.45141  0.58287  0.19569  1.0000
  C   C431      1.0  0.43958  0.56739  0.18611  1.0000
  C   C432      1.0  0.42057  0.55973  0.19651  1.0000
  C   C433      1.0  0.41357  0.56761  0.21667  1.0000
  C   C434      1.0  0.42517  0.58338  0.22605  1.0000
  H   H726      1.0  0.46622  0.58828  0.18772  1.0000
  H   H727      1.0  0.44528  0.56119  0.17062  1.0000
  H   H728      1.0  0.39905  0.56179  0.22493  1.0000
  H   H729      1.0  0.41941  0.58962  0.24152  1.0000
  H   H730      1.0  0.46089  0.64922  0.17402  1.0000
  H   H731      1.0  0.05453  0.66512  0.05277  1.0000
  H   H732      1.0  0.03123  0.76401  0.44001  1.0000
  H   H733      1.0  0.45438  0.66865  0.12633  1.0000
  Fe  Fe69      1.0  0.18618  0.71375  0.01817  1.0000
  H   H734      1.0  0.28936  0.73561  0.02866  1.0000
  H   H735      1.0  0.43843  0.69307  0.12839  1.0000
  C   C435      1.0  0.08605  0.51624  0.32873  1.0000
  H   H736      1.0  0.12961  0.66946  0.46520  1.0000
  H   H737      1.0  0.15878  0.59758  0.03711  1.0000
  H   H738      1.0  0.43935  0.67835  0.16422  1.0000
  C   C436      1.0  0.42954  0.66926  0.15353  1.0000
  C   C437      1.0  0.49625  0.69164  0.12764  1.0000
  H   H739      1.0  0.13432  0.59694  0.47743  1.0000
  C   C438      1.0  0.02164  0.60789  0.20701  1.0000
  C   C439      1.0  0.43777  0.67520  0.13019  1.0000
  C   C440      1.0  0.04284  0.73041  0.32459  1.0000
  H   H740      1.0  0.16967  0.66314  0.45316  1.0000
  H   H741      1.0  0.01860  0.56556  0.24432  1.0000
  C   C441      1.0  0.20315  0.58990  0.45006  1.0000
  C   C442      1.0  0.20346  0.56827  0.44415  1.0000
  C   C443      1.0  0.20009  0.56302  0.42277  1.0000
  C   C444      1.0  0.19648  0.57939  0.40700  1.0000
  C   C445      1.0  0.19591  0.60109  0.41295  1.0000
  C   C446      1.0  0.19913  0.60635  0.43443  1.0000
  H   H742      1.0  0.20652  0.55542  0.45614  1.0000
  H   H743      1.0  0.20047  0.54626  0.41845  1.0000
  H   H744      1.0  0.19311  0.61383  0.40080  1.0000
  H   H745      1.0  0.19884  0.62306  0.43877  1.0000
  N   N30       1.0  0.18433  0.61443  0.07126  1.0000
  C   C447      1.0  0.20235  0.62862  0.07606  1.0000
  C   C448      1.0  0.16795  0.61513  0.09023  1.0000
  C   C449      1.0  0.17386  0.62436  0.05157  1.0000
  C   C450      1.0  0.19381  0.59192  0.06703  1.0000
  C   C451      1.0  0.22046  0.63099  0.05806  1.0000
  C   C452      1.0  0.17694  0.60920  0.11255  1.0000
  C   C453      1.0  0.15408  0.61340  0.04412  1.0000
  C   C454      1.0  0.17902  0.57291  0.07207  1.0000
  H   H746      1.0  0.19576  0.64522  0.07992  1.0000
  H   H747      1.0  0.21073  0.62226  0.09058  1.0000
  H   H748      1.0  0.15466  0.60429  0.08822  1.0000
  H   H749      1.0  0.15983  0.63161  0.09128  1.0000
  H   H750      1.0  0.16882  0.64154  0.05423  1.0000
  H   H751      1.0  0.18549  0.62479  0.03735  1.0000
  H   H752      1.0  0.19987  0.59083  0.04982  1.0000
  H   H753      1.0  0.20835  0.58807  0.07650  1.0000
  H   H754      1.0  0.08053  0.64488  0.03266  1.0000
  H   H755      1.0  0.50242  0.71837  0.33909  1.0000
  H   H756      1.0  0.23385  0.63953  0.06445  1.0000
  H   H757      1.0  0.18869  0.59508  0.11207  1.0000
  H   H758      1.0  0.18475  0.62316  0.11885  1.0000
  H   H759      1.0  0.16340  0.60525  0.12433  1.0000
  S   S129      1.0  0.20734  0.73945  0.03069  1.0000
  H   H760      1.0  0.51072  0.71186  0.39577  1.0000
  H   H761      1.0  0.08382  0.73914  0.14873  1.0000
  H   H762      1.0  0.17609  0.56988  0.08973  1.0000
  H   H763      1.0  0.18728  0.55796  0.06557  1.0000
  H   H764      1.0  0.16334  0.57501  0.06453  1.0000
  H   H765      1.0  0.41396  0.60041  0.13419  1.0000
  H   H766      1.0  0.46106  0.63079  0.12933  1.0000
  H   H767      1.0  0.48257  0.69213  0.32079  1.0000
  C   C455      1.0  0.41985  0.63287  0.14372  1.0000
  H   H768      1.0  0.16118  0.66489  0.42550  1.0000
  H   H769      1.0  0.40932  0.60371  0.16248  1.0000
  C   C456      1.0  0.41639  0.64312  0.18112  1.0000
  N   N31       1.0  0.47879  0.72659  0.36505  1.0000
  C   C457      1.0  0.11034  0.63183  0.46002  1.0000
  H   H770      1.0  0.05960  0.72790  0.16100  1.0000
  C   C458      1.0  0.47364  0.70453  0.33082  1.0000
  H   H771      1.0  0.16545  0.62892  0.46665  1.0000
  H   H772      1.0  0.14101  0.61197  0.05696  1.0000
  C   C459      1.0  0.32544  0.73485  0.02401  1.0000
  H   H773      1.0  0.43672  0.71280  0.36681  1.0000
  S   S130      1.0  0.48696  0.68884  0.15533  1.0000
  C   C460      1.0  0.21186  0.71803  0.47744  1.0000
  C   C461      1.0  0.49713  0.73784  0.37401  1.0000
  C   C462      1.0  0.46741  0.71450  0.38359  1.0000
  S   S131      1.0  0.01361  0.66013  0.14506  1.0000
  N   N32       1.0  0.13370  0.63644  0.45464  1.0000
  H   H774      1.0  0.14704  0.64262  0.48504  1.0000
  C   C463      1.0  0.09967  0.64303  0.48004  1.0000
  C   C464      1.0  0.04347  0.67844  0.02106  1.0000
  H   H775      1.0  0.05121  0.75875  0.27629  1.0000
  C   C465      1.0  0.14138  0.62559  0.43401  1.0000
  H   H776      1.0  0.44189  0.75210  0.38272  1.0000
  C   C466      1.0  0.20665  0.74185  0.48285  1.0000
  H   H777      1.0  0.31805  0.73780  0.48870  1.0000
  H   H778      1.0  0.07246  0.69878  0.04387  1.0000
  H   H779      1.0  0.03407  0.74165  0.21362  1.0000
  H   H780      1.0  0.25331  0.59199  0.45676  1.0000
  H   H781      1.0  0.45131  0.73701  0.34596  1.0000
  H   H782      1.0  0.29399  0.71222  0.47353  1.0000
  C   C467      1.0  0.07252  0.73903  0.16331  1.0000
  Fe  Fe70      1.0  0.23287  0.66582  0.50647  1.0000
  H   H783      1.0  0.41274  0.67651  0.15545  1.0000
  H   H784      1.0  0.50436  0.74912  0.36149  1.0000
  H   H785      1.0  0.12277  0.66635  0.43810  1.0000
  H   H786      1.0  0.15361  0.59324  0.44521  1.0000
  C   C468      1.0  0.26810  0.52013  0.30146  1.0000
  C   C469      1.0  0.04084  0.73496  0.34907  1.0000
  C   C470      1.0  0.06341  0.76206  0.16838  1.0000
  C   C471      1.0  0.51080  0.67650  0.11782  1.0000
  H   H787      1.0  0.33194  0.73577  0.04033  1.0000
  C   C472      1.0  0.48782  0.70909  0.11488  1.0000
  H   H788      1.0  0.09629  0.66058  0.47668  1.0000
  H   H789      1.0  0.03760  0.68972  0.05432  1.0000
  S   S132      1.0  0.21123  0.53826  0.01634  1.0000
  H   H790      1.0  0.10508  0.70540  0.01873  1.0000
  C   C473      1.0  0.11727  0.71349  0.49388  1.0000
  S   S133      1.0  0.16636  0.51714  0.37741  1.0000
  H   H791      1.0  0.47648  0.72084  0.12228  1.0000
  H   H792      1.0  0.47762  0.61660  0.14801  1.0000
  C   C474      1.0  0.01711  0.57450  0.22905  1.0000
  H   H793      1.0  0.25150  0.56362  0.43232  1.0000
  H   H794      1.0  0.45872  0.69737  0.33761  1.0000
  H   H795      1.0  0.10733  0.65285  0.02436  1.0000
  H   H796      1.0  0.10952  0.64068  0.49438  1.0000
  H   H797      1.0  0.03359  0.72099  0.35802  1.0000
  C   C475      1.0  0.48096  0.52891  0.20764  1.0000
  H   H798      1.0  0.13151  0.63183  0.42039  1.0000
  H   H799      1.0  0.49577  0.51809  0.20776  1.0000
  H   H800      1.0  0.44692  0.52966  0.21658  1.0000
  H   H801      1.0  0.49130  0.74798  0.38778  1.0000
  S   S134      1.0  0.49923  0.70018  0.25624  1.0000
  C   C476      1.0  0.04065  0.67432  0.04583  1.0000
  H   H802      1.0  0.05863  0.75332  0.12679  1.0000
  H   H803      1.0  0.48727  0.72500  0.08307  1.0000
  C   C477      1.0  0.14821  0.62988  0.47278  1.0000
  H   H804      1.0  0.49514  0.69606  0.35619  1.0000
  C   C478      1.0  0.44652  0.70370  0.37879  1.0000
  C   C479      1.0  0.04220  0.72578  0.27527  1.0000
  H   H805      1.0  0.45019  0.68697  0.37341  1.0000
  N   N33       1.0  0.43014  0.64555  0.16027  1.0000
  C   C480      1.0  0.02608  0.75779  0.15862  1.0000
  H   H806      1.0  0.05927  0.72254  0.32167  1.0000
  C   C481      1.0  0.49977  0.73277  0.28512  1.0000
  H   H807      1.0  0.13620  0.61154  0.50178  1.0000
  H   H808      1.0  0.02140  0.52913  0.37962  1.0000
  H   H809      1.0  0.49267  0.67792  0.01848  1.0000
  C   C482      1.0  0.46108  0.51804  0.21843  1.0000
  S   S135      1.0  0.19860  0.52876  0.33446  1.0000
  C   C483      1.0  0.15670  0.66898  0.44249  1.0000
  S   S136      1.0  0.34385  0.52572  0.19865  1.0000
  H   H810      1.0  0.49899  0.75799  0.30841  1.0000
  H   H811      1.0  0.06852  0.73953  0.28948  1.0000
  H   H812      1.0  0.40270  0.63877  0.14215  1.0000
  C   C484      1.0  0.07016  0.70551  0.02727  1.0000
  H   H813      1.0  0.08381  0.63609  0.48439  1.0000
  C   C485      1.0  0.50841  0.74469  0.30123  1.0000
  C   C486      1.0  0.27840  0.70294  0.50429  1.0000
  H   H814      1.0  0.48399  0.54343  0.21673  1.0000
  H   H815      1.0  0.05772  0.76131  0.18576  1.0000
  C   C487      1.0  0.29312  0.71453  0.49078  1.0000
  H   H816      1.0  0.02680  0.73100  0.26786  1.0000
  H   H817      1.0  0.07935  0.75346  0.32785  1.0000
  N   N34       1.0  0.27058  0.61565  0.43647  1.0000
  C   C488      1.0  0.26549  0.59258  0.44285  1.0000
  C   C489      1.0  0.28326  0.62390  0.45419  1.0000
  C   C490      1.0  0.28411  0.61539  0.41537  1.0000
  C   C491      1.0  0.24942  0.62839  0.43391  1.0000
  C   C492      1.0  0.27106  0.62557  0.47647  1.0000
  C   C493      1.0  0.29818  0.63482  0.40974  1.0000
  C   C494      1.0  0.25021  0.65305  0.42995  1.0000
  H   H818      1.0  0.28011  0.58325  0.44852  1.0000
  H   H819      1.0  0.46382  0.72491  0.39775  1.0000
  H   H820      1.0  0.28911  0.64021  0.45013  1.0000
  H   H821      1.0  0.29822  0.61342  0.45635  1.0000
  H   H822      1.0  0.29571  0.60099  0.41519  1.0000
  H   H823      1.0  0.23782  0.62542  0.44799  1.0000
  H   H824      1.0  0.25676  0.63704  0.47574  1.0000
  H   H825      1.0  0.26618  0.60966  0.48332  1.0000
  H   H826      1.0  0.24574  0.56851  0.01647  1.0000
  H   H827      1.0  0.43663  0.60108  0.15054  1.0000
  H   H828      1.0  0.31209  0.63461  0.42025  1.0000
  H   H829      1.0  0.28907  0.65057  0.41063  1.0000
  H   H830      1.0  0.25241  0.65731  0.41239  1.0000
  H   H831      1.0  0.26260  0.66047  0.43890  1.0000
  H   H832      1.0  0.23468  0.66089  0.43615  1.0000
  H   H833      1.0  0.14659  0.59522  0.41787  1.0000
  H   H834      1.0  0.15829  0.62942  0.42922  1.0000
  H   H835      1.0  0.05379  0.72137  0.26161  1.0000
  H   H836      1.0  0.24102  0.62261  0.42006  1.0000
  H   H837      1.0  0.03043  0.60326  0.24011  1.0000
  H   H838      1.0  0.42736  0.63537  0.12724  1.0000
  C   C495      1.0  0.13451  0.66058  0.45031  1.0000
  H   H839      1.0  0.04003  0.71102  0.28571  1.0000
  H   H840      1.0  0.41689  0.62601  0.18737  1.0000
  C   C496      1.0  0.09098  0.71704  0.02046  1.0000
  H   H841      1.0  0.15575  0.68692  0.44291  1.0000
  C   C497      1.0  0.14149  0.60074  0.43434  1.0000
  C   C498      1.0  0.14390  0.60834  0.48550  1.0000
  H   H842      1.0  0.22786  0.71556  0.46873  1.0000
  C   C499      1.0  0.45259  0.76012  0.37025  1.0000
  H   H843      1.0  0.03068  0.74941  0.35363  1.0000
  H   H844      1.0  0.26914  0.57552  0.41201  1.0000
  Fe  Fe71      1.0  0.51191  0.72649  0.03036  1.0000
  C   C500      1.0  0.49392  0.71152  0.09263  1.0000
  H   H845      1.0  0.22735  0.61517  0.05250  1.0000
  S   S137      1.0  0.31867  0.52664  0.25688  1.0000
  H   H846      1.0  0.26454  0.75599  0.51353  1.0000
  H   H847      1.0  0.14704  0.62354  0.03084  1.0000
  H   H848      1.0  0.46954  0.71829  0.31949  1.0000
  C   C501      1.0  0.13078  0.69639  0.50186  1.0000
  H   H849      1.0  0.12412  0.72597  0.48331  1.0000
  C   C502      1.0  0.09487  0.71451  0.49932  1.0000
  H   H850      1.0  0.08189  0.73229  0.17701  1.0000
  H   H851      1.0  0.47357  0.75327  0.34198  1.0000
  H   H852      1.0  0.12536  0.59442  0.43835  1.0000
  H   H853      1.0  0.47799  0.53483  0.19086  1.0000
  S   S138      1.0  0.02862  0.63530  0.20533  1.0000
  H   H854      1.0  0.29019  0.52391  0.18657  1.0000
  H   H855      1.0  0.21096  0.70715  0.49203  1.0000
  H   H856      1.0  0.47827  0.70124  0.39011  1.0000
  H   H857      1.0  0.24231  0.58740  0.41778  1.0000
  H   H858      1.0  0.09442  0.72816  0.03327  1.0000
  C   C503      1.0  0.28290  0.52835  0.28540  1.0000
  H   H859      1.0  0.26941  0.54240  0.19839  1.0000
  H   H860      1.0  0.25095  0.73579  0.48370  1.0000
  H   H861      1.0  0.09143  0.66893  0.04225  1.0000
  C   C504      1.0  0.50825  0.69622  0.08274  1.0000
  H   H862      1.0  0.28182  0.63209  0.48805  1.0000
  H   H863      1.0  0.19960  0.71288  0.46663  1.0000
  H   H864      1.0  0.23448  0.52354  0.25036  1.0000
  C   C505      1.0  0.23534  0.53040  0.23352  1.0000
  N   N35       1.0  0.03975  0.74955  0.30896  1.0000
  H   H865      1.0  0.05681  0.71817  0.02924  1.0000
  Fe  Fe72      1.0  0.01701  0.66149  0.18106  1.0000
  H   H866      1.0  0.02738  0.74357  0.14813  1.0000
  H   H867      1.0  0.03128  0.71789  0.32163  1.0000
  C   C506      1.0  0.48842  0.71123  0.34829  1.0000
  H   H868      1.0  0.05707  0.73596  0.35552  1.0000
  H   H869      1.0  0.24639  0.54390  0.23228  1.0000
  H   H870      1.0  0.08462  0.72766  0.49293  1.0000
  H   H871      1.0  0.24267  0.75990  0.46968  1.0000
  Fe  Fe73      1.0  0.24075  0.51462  0.01726  1.0000
  C   C507      1.0  0.01333  0.59806  0.18960  1.0000
  H   H872      1.0  0.02621  0.66474  0.04959  1.0000
  C   C508      1.0  0.30032  0.51526  0.27682  1.0000
  H   H873      1.0  0.46362  0.51703  0.23610  1.0000
  H   H874      1.0  0.30798  0.76148  0.05503  1.0000
  H   H875      1.0  0.18960  0.74322  0.48953  1.0000
  H   H876      1.0  0.02529  0.75066  0.17542  1.0000
  N   N36       1.0  0.22168  0.75142  0.49769  1.0000
  H   H877      1.0  0.20664  0.75096  0.46700  1.0000
  H   H878      1.0  0.21897  0.53747  0.23022  1.0000
  S   S139      1.0  0.14970  0.71556  0.02239  1.0000
  C   C509      1.0  0.22528  0.75893  0.01910  1.0000
  H   H879      1.0  0.11592  0.52026  0.34423  1.0000
  H   H880      1.0  0.01849  0.53083  0.35142  1.0000
  H   H881      1.0  0.07626  0.52554  0.34039  1.0000
  S   S140      1.0  0.50303  0.76197  0.03444  1.0000
  H   H882      1.0  0.33674  0.72275  0.01596  1.0000
  H   H883      1.0  0.24149  0.52082  0.20041  1.0000
  H   H884      1.0  0.27592  0.76420  0.48767  1.0000
  C   C510      1.0  0.28119  0.51614  0.22098  1.0000
  C   C511      1.0  0.01697  0.74083  0.79189  1.0000
  H   H885      1.0  0.06939  0.75542  0.62554  1.0000
  C   C512      1.0  0.49969  0.73675  0.89038  1.0000
  C   C513      1.0  0.50141  0.69706  0.93649  1.0000
  C   C514      1.0  0.02572  0.75394  0.80662  1.0000
  Fe  Fe74      1.0  0.48571  0.76012  0.00352  1.0000
  Fe  Fe75      1.0  0.20460  0.64133  0.54081  1.0000
  S   S141      1.0  0.19804  0.63042  0.57597  1.0000
  S   S142      1.0  0.33528  0.52063  0.82649  1.0000
  S   S143      1.0  0.22716  0.53688  0.61421  1.0000
  H   H886      1.0  0.29015  0.74132  0.99022  1.0000
  S   S144      1.0  0.38539  0.55334  0.83304  1.0000
  H   H887      1.0  0.36661  0.75190  0.98556  1.0000
  H   H888      1.0  0.07550  0.53796  0.69561  1.0000
  S   S145      1.0  0.47705  0.65547  0.82629  1.0000
  Fe  Fe76      1.0  0.48984  0.62300  0.81476  1.0000
  S   S146      1.0  0.47399  0.59471  0.80064  1.0000
  Fe  Fe77      1.0  0.15023  0.69848  0.99077  1.0000
  S   S147      1.0  0.12304  0.71092  0.96930  1.0000
  S   S148      1.0  0.18663  0.69902  0.98545  1.0000
  Fe  Fe78      1.0  0.05015  0.67812  0.87663  1.0000
  C   C515      1.0  0.07960  0.55106  0.70613  1.0000
  S   S149      1.0  0.08344  0.66886  0.88907  1.0000
  H   H889      1.0  0.09502  0.54585  0.71329  1.0000
  H   H890      1.0  0.29084  0.72253  0.55244  1.0000
  H   H891      1.0  0.13115  0.72417  0.89376  1.0000
  H   H892      1.0  0.50567  0.54875  0.83010  1.0000
  S   S150      1.0  0.04419  0.68250  0.84099  1.0000
  H   H893      1.0  0.29319  0.55035  0.90830  1.0000
  H   H894      1.0  0.05088  0.71161  0.56237  1.0000
  H   H895      1.0  0.17806  0.55052  0.55715  1.0000
  H   H896      1.0  0.06924  0.72477  0.85536  1.0000
  Fe  Fe79      1.0  0.37156  0.52235  0.82256  1.0000
  Fe  Fe80      1.0  0.01419  0.66424  0.84886  1.0000
  H   H897      1.0  0.48891  0.70157  0.83955  1.0000
  C   C516      1.0  0.49765  0.66789  0.00440  1.0000
  H   H898      1.0  0.06276  0.67369  0.96767  1.0000
  H   H899      1.0  0.28934  0.55065  0.95201  1.0000
  N   N37       1.0  0.06397  0.68860  0.01228  1.0000
  H   H900      1.0  0.04756  0.58365  0.76902  1.0000
  H   H901      1.0  0.06852  0.73635  0.54328  1.0000
  H   H902      1.0  0.28566  0.57403  0.93487  1.0000
  S   S151      1.0  0.32365  0.74952  0.53354  1.0000
  H   H903      1.0  0.40381  0.72323  0.55615  1.0000
  H   H904      1.0  0.35259  0.71594  0.60006  1.0000
  H   H905      1.0  0.30073  0.74759  0.96346  1.0000
  Fe  Fe81      1.0  0.18713  0.66664  0.00390  1.0000
  C   C517      1.0  0.07588  0.71628  0.59465  1.0000
  C   C518      1.0  0.11199  0.69816  0.94765  1.0000
  C   C519      1.0  0.09255  0.70696  0.93960  1.0000
  C   C520      1.0  0.08317  0.69762  0.92232  1.0000
  C   C521      1.0  0.09358  0.67982  0.91227  1.0000
  C   C522      1.0  0.11310  0.67107  0.92022  1.0000
  C   C523      1.0  0.12214  0.68001  0.93801  1.0000
  H   H906      1.0  0.08468  0.72116  0.94674  1.0000
  H   H907      1.0  0.06808  0.70446  0.91655  1.0000
  H   H908      1.0  0.12130  0.65730  0.91258  1.0000
  H   H909      1.0  0.13717  0.67312  0.94395  1.0000
  H   H910      1.0  0.30139  0.71344  0.01330  1.0000
  C   C524      1.0  0.49466  0.73667  0.75837  1.0000
  H   H911      1.0  0.03349  0.60699  0.74028  1.0000
  C   C525      1.0  0.30614  0.73210  0.52163  1.0000
  C   C526      1.0  0.04198  0.71902  0.57651  1.0000
  C   C527      1.0  0.49138  0.68439  0.92201  1.0000
  H   H912      1.0  0.49210  0.70405  0.95002  1.0000
  H   H913      1.0  0.47433  0.68169  0.92453  1.0000
  C   C528      1.0  0.41088  0.56354  0.82487  1.0000
  C   C529      1.0  0.42439  0.55422  0.80853  1.0000
  C   C530      1.0  0.44378  0.56384  0.80149  1.0000
  C   C531      1.0  0.44992  0.58274  0.81078  1.0000
  C   C532      1.0  0.43658  0.59183  0.82734  1.0000
  C   C533      1.0  0.41714  0.58231  0.83426  1.0000
  H   H914      1.0  0.41976  0.53982  0.80112  1.0000
  H   H915      1.0  0.45396  0.55670  0.78864  1.0000
  H   H916      1.0  0.44109  0.60635  0.83462  1.0000
  H   H917      1.0  0.40678  0.58966  0.84688  1.0000
  H   H918      1.0  0.13193  0.66708  0.52173  1.0000
  C   C534      1.0  0.20226  0.73338  0.53122  1.0000
  C   C535      1.0  0.27770  0.56442  0.94832  1.0000
  H   H919      1.0  0.08269  0.70776  0.58007  1.0000
  H   H920      1.0  0.19391  0.74839  0.53722  1.0000
  H   H921      1.0  0.09861  0.57827  0.77125  1.0000
  C   C536      1.0  0.21200  0.61181  0.00248  1.0000
  C   C537      1.0  0.07869  0.55469  0.75681  1.0000
  H   H922      1.0  0.26074  0.51901  0.71266  1.0000
  C   C538      1.0  0.28378  0.51912  0.73767  1.0000
  S   S152      1.0  0.17940  0.63527  0.51751  1.0000
  H   H923      1.0  0.11002  0.71695  0.60061  1.0000
  H   H924      1.0  0.24077  0.55419  0.97387  1.0000
  H   H925      1.0  0.46477  0.74796  0.83878  1.0000
  H   H926      1.0  0.18092  0.51709  0.77952  1.0000
  C   C539      1.0  0.20512  0.60385  0.58593  1.0000
  C   C540      1.0  0.19736  0.59701  0.60677  1.0000
  C   C541      1.0  0.20341  0.57632  0.61552  1.0000
  C   C542      1.0  0.21763  0.56245  0.60362  1.0000
  C   C543      1.0  0.22513  0.56918  0.58268  1.0000
  C   C544      1.0  0.21878  0.58967  0.57379  1.0000
  H   H927      1.0  0.18680  0.60787  0.61627  1.0000
  H   H928      1.0  0.19757  0.57138  0.63166  1.0000
  H   H929      1.0  0.23617  0.55858  0.57337  1.0000
  H   H930      1.0  0.22490  0.59471  0.55778  1.0000
  C   C545      1.0  0.03729  0.58458  0.82382  1.0000
  H   H931      1.0  0.08762  0.69362  0.84438  1.0000
  H   H932      1.0  0.01872  0.70650  0.60180  1.0000
  N   N38       1.0  0.37309  0.74028  0.58549  1.0000
  H   H933      1.0  0.17825  0.60986  0.99716  1.0000
  H   H934      1.0  0.40234  0.76226  0.61207  1.0000
  H   H935      1.0  0.35199  0.57882  0.72651  1.0000
  S   S153      1.0  0.23289  0.63091  0.51865  1.0000
  C   C546      1.0  0.04444  0.57525  0.75414  1.0000
  H   H936      1.0  0.24738  0.53485  0.91721  1.0000
  H   H937      1.0  0.18924  0.54715  0.74417  1.0000
  H   H938      1.0  0.50511  0.65520  0.96074  1.0000
  H   H939      1.0  0.09276  0.73712  0.55803  1.0000
  S   S154      1.0  0.02201  0.65713  0.88348  1.0000
  Fe  Fe82      1.0  0.50145  0.65089  0.85198  1.0000
  C   C547      1.0  0.46319  0.71130  0.86246  1.0000
  H   H940      1.0  0.48466  0.73337  0.90026  1.0000
  S   S155      1.0  0.03144  0.70852  0.88558  1.0000
  S   S156      1.0  0.20646  0.67670  0.53061  1.0000
  C   C548      1.0  0.09932  0.68124  0.52072  1.0000
  C   C549      1.0  0.30006  0.75276  0.98045  1.0000
  H   H941      1.0  0.50914  0.62730  0.95484  1.0000
  H   H942      1.0  0.08223  0.56546  0.69534  1.0000
  C   C550      1.0  0.06071  0.55509  0.72312  1.0000
  H   H943      1.0  0.02293  0.58430  0.72723  1.0000
  C   C551      1.0  0.39708  0.73870  0.54938  1.0000
  C   C552      1.0  0.09468  0.72604  0.60544  1.0000
  H   H944      1.0  0.45978  0.69475  0.86886  1.0000
  H   H945      1.0  0.02058  0.69247  0.57724  1.0000
  H   H946      1.0  0.09190  0.73207  0.82445  1.0000
  C   C553      1.0  0.02784  0.59039  0.74263  1.0000
  H   H947      1.0  0.34375  0.72748  0.57501  1.0000
  C   C554      1.0  0.49444  0.74783  0.86829  1.0000
  H   H948      1.0  0.38239  0.69441  0.57817  1.0000
  H   H949      1.0  0.04683  0.56163  0.71404  1.0000
  S   S157      1.0  0.49231  0.72420  0.00091  1.0000
  H   H950      1.0  0.29324  0.58177  0.97214  1.0000
  N   N39       1.0  0.06530  0.56894  0.74166  1.0000
  H   H951      1.0  0.15865  0.53413  0.57092  1.0000
  H   H952      1.0  0.27094  0.52561  0.93031  1.0000
  S   S158      1.0  0.03128  0.75936  0.52135  1.0000
  C   C555      1.0  0.07767  0.58848  0.73458  1.0000
  C   C556      1.0  0.36774  0.70219  0.57124  1.0000
  C   C557      1.0  0.10131  0.74239  0.83432  1.0000
  C   C558      1.0  0.40899  0.74971  0.60092  1.0000
  C   C559      1.0  0.06948  0.60227  0.71497  1.0000
  H   H953      1.0  0.07651  0.65908  0.99764  1.0000
  C   C560      1.0  0.11974  0.73859  0.89333  1.0000
  S   S159      1.0  0.15095  0.66512  0.00645  1.0000
  H   H954      1.0  0.26640  0.69733  0.53721  1.0000
  H   H955      1.0  0.28214  0.53645  0.73918  1.0000
  H   H956      1.0  0.05560  0.53892  0.72937  1.0000
  H   H957      1.0  0.07796  0.59956  0.74824  1.0000
  H   H958      1.0  0.09495  0.58355  0.73058  1.0000
  H   H959      1.0  0.50185  0.55754  0.79046  1.0000
  C   C561      1.0  0.17361  0.53349  0.56022  1.0000
  H   H960      1.0  0.06867  0.74817  0.89625  1.0000
  C   C562      1.0  0.05236  0.75768  0.62138  1.0000
  N   N40       1.0  0.05683  0.73133  0.58938  1.0000
  H   H961      1.0  0.34492  0.55130  0.72629  1.0000
  H   H962      1.0  0.21739  0.52640  0.97028  1.0000
  H   H963      1.0  0.03857  0.61515  0.83924  1.0000
  H   H964      1.0  0.07430  0.70680  0.98317  1.0000
  C   C563      1.0  0.04427  0.73840  0.60976  1.0000
  C   C564      1.0  0.06861  0.75019  0.87834  1.0000
  H   H965      1.0  0.02723  0.74320  0.60625  1.0000
  H   H966      1.0  0.04325  0.72472  0.62195  1.0000
  H   H967      1.0  0.06936  0.54076  0.76343  1.0000
  C   C565      1.0  0.05054  0.68613  0.97358  1.0000
  S   S160      1.0  0.02934  0.74526  0.83403  1.0000
  C   C566      1.0  0.35843  0.72192  0.58364  1.0000
  C   C567      1.0  0.37899  0.75043  0.56351  1.0000
  S   S161      1.0  0.48969  0.65974  0.88632  1.0000
  H   H968      1.0  0.06425  0.61883  0.71998  1.0000
  S   S162      1.0  0.49674  0.70350  0.78938  1.0000
  H   H969      1.0  0.10450  0.73471  0.90245  1.0000
  C   C568      1.0  0.06328  0.75073  0.57545  1.0000
  C   C569      1.0  0.50154  0.71496  0.76272  1.0000
  H   H970      1.0  0.04252  0.75977  0.63680  1.0000
  H   H971      1.0  0.02920  0.73016  0.56969  1.0000
  H   H972      1.0  0.04167  0.68788  0.59544  1.0000
  N   N41       1.0  0.35552  0.57965  0.77218  1.0000
  C   C570      1.0  0.34731  0.56233  0.75881  1.0000
  C   C571      1.0  0.34806  0.57461  0.79537  1.0000
  C   C572      1.0  0.37990  0.57781  0.77025  1.0000
  C   C573      1.0  0.34691  0.60141  0.76362  1.0000
  N   N42       1.0  0.10251  0.73307  0.85715  1.0000
  C   C574      1.0  0.32338  0.57505  0.80014  1.0000
  C   C575      1.0  0.39177  0.59487  0.78165  1.0000
  C   C576      1.0  0.34591  0.62038  0.77924  1.0000
  H   H973      1.0  0.35200  0.54595  0.76559  1.0000
  H   H974      1.0  0.32933  0.56324  0.75933  1.0000
  H   H975      1.0  0.35470  0.58535  0.80685  1.0000
  H   H976      1.0  0.35450  0.55821  0.80055  1.0000
  H   H977      1.0  0.38593  0.56157  0.77648  1.0000
  H   H978      1.0  0.38602  0.57926  0.75308  1.0000
  H   H979      1.0  0.35656  0.60646  0.74872  1.0000
  H   H980      1.0  0.33012  0.60022  0.75847  1.0000
  C   C577      1.0  0.27614  0.54909  0.90421  1.0000
  H   H981      1.0  0.48657  0.74591  0.77117  1.0000
  H   H982      1.0  0.32620  0.75229  0.59735  1.0000
  H   H983      1.0  0.31498  0.58989  0.79358  1.0000
  H   H984      1.0  0.31634  0.56065  0.79387  1.0000
  H   H985      1.0  0.31994  0.57430  0.81796  1.0000
  H   H986      1.0  0.38915  0.61120  0.77398  1.0000
  H   H987      1.0  0.40943  0.59087  0.77987  1.0000
  H   H988      1.0  0.38755  0.59512  0.79925  1.0000
  H   H989      1.0  0.35185  0.63502  0.77033  1.0000
  H   H990      1.0  0.35564  0.61783  0.79357  1.0000
  H   H991      1.0  0.32891  0.62468  0.78471  1.0000
  H   H992      1.0  0.36452  0.75243  0.55370  1.0000
  H   H993      1.0  0.17818  0.57018  0.00496  1.0000
  C   C578      1.0  0.48150  0.74438  0.83194  1.0000
  C   C579      1.0  0.21600  0.52459  0.75389  1.0000
  C   C580      1.0  0.02947  0.60557  0.82917  1.0000
  H   H994      1.0  0.22096  0.75265  0.98581  1.0000
  H   H995      1.0  0.17434  0.51538  0.75209  1.0000
  C   C581      1.0  0.27753  0.70614  0.52656  1.0000
  H   H996      1.0  0.42339  0.74188  0.60846  1.0000
  H   H997      1.0  0.21627  0.53390  0.76888  1.0000
  C   C582      1.0  0.02571  0.57188  0.81074  1.0000
  C   C583      1.0  0.01424  0.74848  0.77037  1.0000
  H   H998      1.0  0.07427  0.57221  0.78754  1.0000
  H   H999      1.0  0.20589  0.72298  0.54576  1.0000
  C   C584      1.0  0.08729  0.56558  0.77634  1.0000
  H   H1000     1.0  0.38234  0.76060  0.00628  1.0000
  H   H1001     1.0  0.05592  0.59558  0.70712  1.0000
  H   H1002     1.0  0.26860  0.57140  0.98257  1.0000
  N   N43       1.0  0.25674  0.55615  0.94165  1.0000
  C   C585      1.0  0.26227  0.54049  0.92385  1.0000
  C   C586      1.0  0.24629  0.54361  0.96046  1.0000
  C   C587      1.0  0.24210  0.57445  0.93302  1.0000
  H   H1003     1.0  0.09734  0.74298  0.60026  1.0000
  H   H1004     1.0  0.23383  0.74556  0.52965  1.0000
  C   C588      1.0  0.22634  0.58604  0.94955  1.0000
  Fe  Fe83      1.0  0.02365  0.71201  0.85035  1.0000
  H   H1005     1.0  0.47972  0.73334  0.81853  1.0000
  H   H1006     1.0  0.09241  0.66859  0.53104  1.0000
  H   H1007     1.0  0.25180  0.58708  0.92443  1.0000
  H   H1008     1.0  0.23174  0.56875  0.92056  1.0000
  C   C589      1.0  0.22675  0.53086  0.95507  1.0000
  C   C590      1.0  0.22906  0.76223  0.99673  1.0000
  H   H1009     1.0  0.09652  0.55312  0.78600  1.0000
  C   C591      1.0  0.29145  0.72046  0.53516  1.0000
  C   C592      1.0  0.50317  0.67535  0.90419  1.0000
  H   H1010     1.0  0.03596  0.56054  0.75974  1.0000
  H   H1011     1.0  0.21336  0.57557  0.95599  1.0000
  H   H1012     1.0  0.21825  0.60033  0.94141  1.0000
  H   H1013     1.0  0.23443  0.59205  0.96330  1.0000
  C   C593      1.0  0.23105  0.59989  0.00769  1.0000
  C   C594      1.0  0.11434  0.71112  0.85603  1.0000
  C   C595      1.0  0.39256  0.73250  0.59773  1.0000
  C   C596      1.0  0.20450  0.53954  0.73710  1.0000
  C   C597      1.0  0.08014  0.73031  0.86744  1.0000
  C   C598      1.0  0.10519  0.69493  0.84119  1.0000
  C   C599      1.0  0.35463  0.56268  0.73456  1.0000
  H   H1014     1.0  0.41068  0.74947  0.54578  1.0000
  H   H1015     1.0  0.07064  0.70284  0.60585  1.0000
  H   H1016     1.0  0.13164  0.71269  0.85060  1.0000
  H   H1017     1.0  0.11446  0.70284  0.87234  1.0000
  H   H1018     1.0  0.25830  0.53178  0.96763  1.0000
  H   H1019     1.0  0.35910  0.75158  0.61632  1.0000
  H   H1020     1.0  0.17063  0.52700  0.54433  1.0000
  H   H1021     1.0  0.08063  0.71717  0.88021  1.0000
  H   H1022     1.0  0.10886  0.69912  0.82382  1.0000
  H   H1023     1.0  0.49580  0.65099  0.01010  1.0000
  N   N44       1.0  0.49550  0.73367  0.84893  1.0000
  H   H1024     1.0  0.45222  0.71502  0.84912  1.0000
  H   H1025     1.0  0.26890  0.59513  0.96401  1.0000
  C   C600      1.0  0.27650  0.57896  0.96791  1.0000
  H   H1026     1.0  0.27648  0.53734  0.89111  1.0000
  H   H1027     1.0  0.36941  0.73579  0.01057  1.0000
  C   C601      1.0  0.19298  0.57845  0.00584  1.0000
  H   H1028     1.0  0.38738  0.72583  0.61410  1.0000
  H   H1029     1.0  0.35544  0.68977  0.57222  1.0000
  H   H1030     1.0  0.37173  0.55674  0.73200  1.0000
  H   H1031     1.0  0.08285  0.60405  0.70239  1.0000
  S   S163      1.0  0.03683  0.54591  0.80392  1.0000
  H   H1032     1.0  0.11288  0.67860  0.84451  1.0000
  H   H1033     1.0  0.01289  0.59180  0.75337  1.0000
  H   H1034     1.0  0.12713  0.75128  0.90214  1.0000
  H   H1035     1.0  0.47786  0.75547  0.87080  1.0000
  H   H1036     1.0  0.20105  0.53100  0.72248  1.0000
  H   H1037     1.0  0.40175  0.71878  0.59014  1.0000
  C   C602      1.0  0.19295  0.60095  0.00152  1.0000
  H   H1038     1.0  0.03539  0.67850  0.97921  1.0000
  H   H1039     1.0  0.09587  0.67825  0.99848  1.0000
  H   H1040     1.0  0.45926  0.72250  0.87575  1.0000
  H   H1041     1.0  0.04859  0.76061  0.57075  1.0000
  H   H1042     1.0  0.26956  0.56486  0.89769  1.0000
  H   H1043     1.0  0.11779  0.74276  0.82621  1.0000
  C   C603      1.0  0.08188  0.67158  0.00818  1.0000
  H   H1044     1.0  0.49259  0.76323  0.73452  1.0000
  H   H1045     1.0  0.09321  0.54731  0.74810  1.0000
  H   H1046     1.0  0.05243  0.57815  0.82987  1.0000
  C   C604      1.0  0.03027  0.70047  0.58880  1.0000
  H   H1047     1.0  0.13221  0.74864  0.86150  1.0000
  H   H1048     1.0  0.04664  0.69674  0.95926  1.0000
  H   H1049     1.0  0.49659  0.70231  0.86623  1.0000
  H   H1050     1.0  0.37066  0.70630  0.55376  1.0000
  C   C605      1.0  0.36093  0.75726  0.59901  1.0000
  C   C606      1.0  0.36738  0.75238  0.00337  1.0000
  C   C607      1.0  0.48708  0.71159  0.85414  1.0000
  S   S164      1.0  0.05759  0.69792  0.51907  1.0000
  Fe  Fe84      1.0  0.02291  0.52031  0.78409  1.0000
  C   C608      1.0  0.32327  0.75371  0.98786  1.0000
  S   S165      1.0  0.21306  0.63992  0.99612  1.0000
  H   H1051     1.0  0.21506  0.55287  0.73177  1.0000
  Fe  Fe85      1.0  0.21474  0.51625  0.64319  1.0000
  C   C609      1.0  0.49804  0.74656  0.73756  1.0000
  Fe  Fe86      1.0  0.50397  0.66995  0.80532  1.0000
  C   C610      1.0  0.05941  0.70003  0.99087  1.0000
  H   H1052     1.0  0.05129  0.75105  0.87463  1.0000
  H   H1053     1.0  0.48570  0.67213  0.99202  1.0000
  C   C611      1.0  0.11600  0.74692  0.86991  1.0000
  H   H1054     1.0  0.41478  0.75747  0.58536  1.0000
  C   C612      1.0  0.07713  0.74572  0.55457  1.0000
  C   C613      1.0  0.50839  0.73484  0.72075  1.0000
  H   H1055     1.0  0.21566  0.54032  0.94445  1.0000
  H   H1056     1.0  0.09231  0.72478  0.62336  1.0000
  H   H1057     1.0  0.19112  0.72456  0.52185  1.0000
  H   H1058     1.0  0.04764  0.71408  0.99330  1.0000
  H   H1059     1.0  0.08950  0.72714  0.00537  1.0000
  H   H1060     1.0  0.07254  0.76194  0.58427  1.0000
  H   H1061     1.0  0.33241  0.73885  0.98218  1.0000
  H   H1062     1.0  0.19349  0.52862  0.58711  1.0000
  H   H1063     1.0  0.08090  0.76118  0.54581  1.0000
  H   H1064     1.0  0.20718  0.52460  0.56145  1.0000
  H   H1065     1.0  0.50826  0.74806  0.89989  1.0000
  H   H1066     1.0  0.51015  0.72187  0.88950  1.0000
  S   S166      1.0  0.21604  0.51993  0.67922  1.0000
  H   H1067     1.0  0.50536  0.76141  0.86527  1.0000
  H   H1068     1.0  0.23313  0.52265  0.74763  1.0000
  S   S167      1.0  0.01468  0.52302  0.74912  1.0000
  N   N45       1.0  0.32593  0.75635  0.01169  1.0000
  H   H1069     1.0  0.50982  0.52582  0.76164  1.0000
  H   H1070     1.0  0.50301  0.76297  0.80959  1.0000
  H   H1071     1.0  0.32695  0.52237  0.92393  1.0000
  S   S168      1.0  0.31305  0.52013  0.76945  1.0000
  C   C614      1.0  0.22369  0.73779  0.51830  1.0000
  H   H1072     1.0  0.23222  0.51553  0.94731  1.0000
  H   H1073     1.0  0.39082  0.73517  0.53353  1.0000
  H   H1074     1.0  0.24590  0.60812  0.00836  1.0000
  C   C615      1.0  0.19221  0.52093  0.57134  1.0000
  C   C616      1.0  0.21204  0.56654  0.01103  1.0000
  H   H1075     1.0  0.04169  0.66271  0.01347  1.0000
  S   S169      1.0  0.27482  0.52466  0.01345  1.0000
  C   C617      1.0  0.23105  0.57741  0.01213  1.0000
  C   C618      1.0  0.12172  0.68032  0.51543  1.0000
  C   C619      1.0  0.51192  0.70325  0.74592  1.0000
  H   H1076     1.0  0.12713  0.51446  0.74430  1.0000
  S   S170      1.0  0.51210  0.61715  0.84208  1.0000
  H   H1077     1.0  0.10916  0.76370  0.87095  1.0000
  H   H1078     1.0  0.23235  0.72194  0.51509  1.0000
  H   H1079     1.0  0.12706  0.00057  0.23386  1.0000
  C   C620      1.0  0.48536  0.82451  0.47068  1.0000
  H   H1080     1.0  0.12788  0.94202  0.36982  1.0000
  H   H1081     1.0  0.40677  0.81547  0.40886  1.0000
  S   S171      1.0  0.33466  0.80320  0.49397  1.0000
  H   H1082     1.0  0.50820  0.82260  0.22553  1.0000
  H   H1083     1.0  0.09107  0.91873  0.36524  1.0000
  Fe  Fe87      1.0  0.37048  0.80283  0.48428  1.0000
  S   S172      1.0  0.38305  0.80590  0.44907  1.0000
  H   H1084     1.0  0.05142  0.98493  0.34609  1.0000
  C   C621      1.0  0.11407  0.95246  0.37632  1.0000
  H   H1085     1.0  0.47784  0.80110  0.02385  1.0000
  H   H1086     1.0  0.45425  0.81975  0.06487  1.0000
  Fe  Fe88      1.0  0.24758  0.99168  0.48263  1.0000
  Fe  Fe89      1.0  0.28836  0.97890  0.50643  1.0000
  S   S173      1.0  0.28249  0.99831  0.47542  1.0000
  Fe  Fe90      1.0  0.48999  0.99051  0.24723  1.0000
  S   S174      1.0  0.46463  0.97683  0.22693  1.0000
  S   S175      1.0  0.48797  0.99166  0.28362  1.0000
  H   H1087     1.0  0.48629  0.97153  0.36234  1.0000
  H   H1088     1.0  0.50818  0.84386  0.24428  1.0000
  Fe  Fe91      1.0  0.33575  0.97360  0.14016  1.0000
  S   S176      1.0  0.30156  0.98704  0.14339  1.0000
  S   S177      1.0  0.34692  0.94351  0.12187  1.0000
  Fe  Fe92      1.0  0.30632  0.98873  0.17904  1.0000
  S   S178      1.0  0.28662  0.97277  0.20725  1.0000
  H   H1089     1.0  0.47646  0.83980  0.47531  1.0000
  S   S179      1.0  0.33987  0.97298  0.17606  1.0000
  Fe  Fe93      1.0  0.30826  0.87037  0.03167  1.0000
  S   S180      1.0  0.29396  0.89643  0.05402  1.0000
  H   H1090     1.0  0.05094  0.79743  0.19336  1.0000
  S   S181      1.0  0.49520  0.79727  0.35151  1.0000
  S   S182      1.0  0.30727  0.83439  0.03852  1.0000
  H   H1091     1.0  0.29258  0.76846  0.01785  1.0000
  Fe  Fe94      1.0  0.18789  0.99344  0.33764  1.0000
  S   S183      1.0  0.19464  0.96753  0.31325  1.0000
  H   H1092     1.0  0.04980  0.94620  0.35453  1.0000
  S   S184      1.0  0.14732  0.98225  0.29427  1.0000
  Fe  Fe95      1.0  0.15969  0.95948  0.32031  1.0000
  S   S185      1.0  0.14792  0.92550  0.32727  1.0000
  Fe  Fe96      1.0  0.18180  0.99239  0.28912  1.0000
  C   C622      1.0  0.23526  0.00013  0.42059  1.0000
  S   S186      1.0  0.15433  0.98337  0.34669  1.0000
  H   H1093     1.0  0.06473  0.91013  0.36215  1.0000
  S   S187      1.0  0.03477  0.80124  0.26374  1.0000
  S   S188      1.0  0.04815  0.82996  0.31475  1.0000
  H   H1094     1.0  0.22862  0.79421  0.47775  1.0000
  Fe  Fe97      1.0  0.03631  0.86494  0.31352  1.0000
  S   S189      1.0  0.05447  0.89605  0.30732  1.0000
  Fe  Fe98      1.0  0.14335  0.00670  0.32020  1.0000
  H   H1095     1.0  0.49992  0.81817  0.29889  1.0000
  C   C623      1.0  0.04922  0.76970  0.31629  1.0000
  H   H1096     1.0  0.10820  0.97930  0.35411  1.0000
  H   H1097     1.0  0.48809  0.97733  0.18295  1.0000
  H   H1098     1.0  0.39811  0.97674  0.18749  1.0000
  H   H1099     1.0  0.47129  0.85147  0.05791  1.0000
  C   C624      1.0  0.21264  0.77366  0.50340  1.0000
  H   H1100     1.0  0.51059  0.81360  0.03481  1.0000
  C   C625      1.0  0.12269  0.91651  0.32007  1.0000
  C   C626      1.0  0.11532  0.89693  0.32926  1.0000
  C   C627      1.0  0.09482  0.88989  0.32492  1.0000
  C   C628      1.0  0.08152  0.90236  0.31120  1.0000
  C   C629      1.0  0.08921  0.92157  0.30145  1.0000
  C   C630      1.0  0.10961  0.92866  0.30591  1.0000
  H   H1101     1.0  0.12537  0.88733  0.34013  1.0000
  H   H1102     1.0  0.08913  0.87509  0.33255  1.0000
  H   H1103     1.0  0.07911  0.93124  0.29070  1.0000
  H   H1104     1.0  0.11518  0.94358  0.29847  1.0000
  C   C631      1.0  0.06933  0.98243  0.34404  1.0000
  H   H1105     1.0  0.40060  0.78145  0.05258  1.0000
  C   C632      1.0  0.44705  0.78646  0.44722  1.0000
  H   H1106     1.0  0.15014  0.00157  0.24933  1.0000
  N   N46       1.0  0.48220  0.83479  0.02877  1.0000
  H   H1107     1.0  0.36303  0.97426  0.21595  1.0000
  C   C633      1.0  0.03849  0.77865  0.11392  1.0000
  C   C634      1.0  0.21563  0.99707  0.38770  1.0000
  C   C635      1.0  0.33794  0.99488  0.23199  1.0000
  H   H1108     1.0  0.35132  0.76634  0.03130  1.0000
  H   H1109     1.0  0.01423  0.76816  0.29313  1.0000
  S   S190      1.0  0.19611  0.00184  0.25527  1.0000
  C   C636      1.0  0.26173  0.98169  0.22064  1.0000
  C   C637      1.0  0.22177  0.99405  0.24269  1.0000
  C   C638      1.0  0.23526  0.97747  0.25136  1.0000
  C   C639      1.0  0.25503  0.97125  0.24031  1.0000
  H   H1110     1.0  0.23030  0.96920  0.26642  1.0000
  H   H1111     1.0  0.49690  0.92800  0.28998  1.0000
  C   C640      1.0  0.33238  0.93148  0.10210  1.0000
  C   C641      1.0  0.34136  0.91268  0.09242  1.0000
  C   C642      1.0  0.33001  0.90205  0.07731  1.0000
  C   C643      1.0  0.30942  0.91001  0.07189  1.0000
  C   C644      1.0  0.30048  0.92887  0.08151  1.0000
  C   C645      1.0  0.31193  0.93964  0.09644  1.0000
  H   H1112     1.0  0.35716  0.90623  0.09669  1.0000
  H   H1113     1.0  0.33707  0.88753  0.07008  1.0000
  H   H1114     1.0  0.28457  0.93514  0.07741  1.0000
  H   H1115     1.0  0.30487  0.95416  0.10364  1.0000
  C   C646      1.0  0.44057  0.98940  0.21684  1.0000
  C   C647      1.0  0.42731  0.97714  0.20498  1.0000
  C   C648      1.0  0.40812  0.98639  0.19656  1.0000
  C   C649      1.0  0.24842  0.99850  0.21211  1.0000
  H   H1116     1.0  0.43654  0.84577  0.04007  1.0000
  H   H1117     1.0  0.19565  0.77300  0.51007  1.0000
  S   S191      1.0  0.22354  0.97958  0.45995  1.0000
  C   C650      1.0  0.49705  0.89623  0.30596  1.0000
  C   C651      1.0  0.22037  0.98754  0.43241  1.0000
  H   H1118     1.0  0.29959  0.99423  0.25579  1.0000
  Fe  Fe99      1.0  0.02299  0.82411  0.29099  1.0000
  H   H1119     1.0  0.23319  0.76932  0.05032  1.0000
  H   H1120     1.0  0.29579  0.78768  0.04983  1.0000
  C   C652      1.0  0.31716  0.92695  0.51095  1.0000
  C   C653      1.0  0.40197  0.00809  0.19987  1.0000
  C   C654      1.0  0.05406  0.77023  0.13117  1.0000
  H   H1121     1.0  0.34807  0.88030  0.50188  1.0000
  S   S192      1.0  0.36589  0.81016  0.03842  1.0000
  C   C655      1.0  0.50874  0.82428  0.47815  1.0000
  C   C656      1.0  0.23602  0.77163  0.03300  1.0000
  S   S193      1.0  0.37885  0.77515  0.50741  1.0000
  C   C657      1.0  0.45431  0.79264  0.42605  1.0000
  S   S194      1.0  0.48141  0.78563  0.41729  1.0000
  C   C658      1.0  0.42544  0.79092  0.45467  1.0000
  C   C659      1.0  0.41073  0.80125  0.44083  1.0000
  C   C660      1.0  0.41803  0.80747  0.41966  1.0000
  C   C661      1.0  0.43976  0.80338  0.41234  1.0000
  C   C662      1.0  0.02963  0.77956  0.40811  1.0000
  C   C663      1.0  0.39082  0.80164  0.02529  1.0000
  H   H1122     1.0  0.15732  0.99061  0.21096  1.0000
  H   H1123     1.0  0.44511  0.80823  0.39601  1.0000
  H   H1124     1.0  0.32508  0.98404  0.22813  1.0000
  H   H1125     1.0  0.47969  0.86872  0.03598  1.0000
  C   C664      1.0  0.43444  0.01111  0.22014  1.0000
  H   H1126     1.0  0.06583  0.96622  0.31334  1.0000
  C   C665      1.0  0.20301  0.97992  0.42182  1.0000
  H   H1127     1.0  0.04747  0.77888  0.09786  1.0000
  C   C666      1.0  0.30971  0.77656  0.04500  1.0000
  H   H1128     1.0  0.26513  0.95819  0.24706  1.0000
  H   H1129     1.0  0.10462  0.94210  0.38777  1.0000
  H   H1130     1.0  0.04164  0.77505  0.33179  1.0000
  C   C667      1.0  0.04114  0.79458  0.15997  1.0000
  H   H1131     1.0  0.42003  0.78598  0.47095  1.0000
  C   C668      1.0  0.51183  0.98682  0.34122  1.0000
  H   H1132     1.0  0.47121  0.80680  0.27591  1.0000
  S   S195      1.0  0.02834  0.79864  0.36734  1.0000
  H   H1133     1.0  0.07823  0.78239  0.32777  1.0000
  C   C669      1.0  0.20062  0.98465  0.39959  1.0000
  C   C670      1.0  0.07384  0.76829  0.31875  1.0000
  C   C671      1.0  0.44716  0.85903  0.03476  1.0000
  H   H1134     1.0  0.03187  0.79533  0.11652  1.0000
  H   H1135     1.0  0.49555  0.83498  0.27613  1.0000
  H   H1136     1.0  0.02435  0.78746  0.19184  1.0000
  C   C672      1.0  0.03398  0.76809  0.23546  1.0000
  H   H1137     1.0  0.33122  0.97822  0.27256  1.0000
  H   H1138     1.0  0.07732  0.77276  0.16727  1.0000
  C   C673      1.0  0.02306  0.79816  0.39587  1.0000
  H   H1139     1.0  0.47670  0.81067  0.47831  1.0000
  C   C674      1.0  0.07504  0.97913  0.31974  1.0000
  S   S196      1.0  0.25366  0.97051  0.51244  1.0000
  C   C675      1.0  0.40500  0.78707  0.03623  1.0000
  H   H1140     1.0  0.05115  0.97175  0.38313  1.0000
  H   H1141     1.0  0.02888  0.81540  0.18602  1.0000
  H   H1142     1.0  0.50703  0.99986  0.40761  1.0000
  H   H1143     1.0  0.05527  0.80424  0.15469  1.0000
  N   N47       1.0  0.51205  0.00842  0.35164  1.0000
  C   C676      1.0  0.47096  0.85376  0.04000  1.0000
  H   H1144     1.0  0.19145  0.97011  0.43083  1.0000
  H   H1145     1.0  0.49140  0.78579  0.27998  1.0000
  C   C677      1.0  0.48847  0.80197  0.27210  1.0000
  N   N48       1.0  0.27165  0.92679  0.43960  1.0000
  C   C678      1.0  0.25810  0.93255  0.45976  1.0000
  C   C679      1.0  0.26611  0.94332  0.42189  1.0000
  C   C680      1.0  0.29543  0.92708  0.44320  1.0000
  C   C681      1.0  0.26688  0.90430  0.43371  1.0000
  C   C682      1.0  0.26284  0.91886  0.48047  1.0000
  C   C683      1.0  0.24447  0.94078  0.41147  1.0000
  C   C684      1.0  0.30296  0.94848  0.45105  1.0000
  C   C685      1.0  0.27874  0.89600  0.41277  1.0000
  H   H1146     1.0  0.25970  0.94973  0.46359  1.0000
  H   H1147     1.0  0.24061  0.93138  0.45722  1.0000
  H   H1148     1.0  0.27896  0.94364  0.40861  1.0000
  H   H1149     1.0  0.26533  0.95998  0.42811  1.0000
  H   H1150     1.0  0.30054  0.91393  0.45492  1.0000
  H   H1151     1.0  0.30522  0.92368  0.42798  1.0000
  H   H1152     1.0  0.27159  0.89236  0.44673  1.0000
  H   H1153     1.0  0.24920  0.90247  0.43287  1.0000
  H   H1154     1.0  0.25917  0.90171  0.47918  1.0000
  H   H1155     1.0  0.27968  0.92002  0.48505  1.0000
  H   H1156     1.0  0.25226  0.92520  0.49411  1.0000
  H   H1157     1.0  0.24482  0.92612  0.40180  1.0000
  H   H1158     1.0  0.23071  0.94056  0.42368  1.0000
  H   H1159     1.0  0.24138  0.95480  0.40009  1.0000
  H   H1160     1.0  0.29514  0.95244  0.46699  1.0000
  H   H1161     1.0  0.30003  0.96212  0.43925  1.0000
  H   H1162     1.0  0.32063  0.94686  0.45322  1.0000
  H   H1163     1.0  0.29401  0.88676  0.41653  1.0000
  H   H1164     1.0  0.28269  0.90902  0.40067  1.0000
  H   H1165     1.0  0.26819  0.88528  0.40471  1.0000
  H   H1166     1.0  0.29314  0.89199  0.11996  1.0000
  H   H1167     1.0  0.50224  0.83007  0.05635  1.0000
  N   N49       1.0  0.29229  0.91020  0.16343  1.0000
  C   C686      1.0  0.31473  0.90151  0.15632  1.0000
  C   C687      1.0  0.27662  0.89743  0.15210  1.0000
  C   C688      1.0  0.28935  0.90612  0.18758  1.0000
  C   C689      1.0  0.29047  0.93409  0.15768  1.0000
  C   C690      1.0  0.33362  0.90999  0.16802  1.0000
  C   C691      1.0  0.27802  0.89978  0.12715  1.0000
  C   C692      1.0  0.26724  0.91309  0.19845  1.0000
  C   C693      1.0  0.26742  0.94486  0.15623  1.0000
  H   H1168     1.0  0.31606  0.88353  0.15816  1.0000
  H   H1169     1.0  0.31832  0.90533  0.13881  1.0000
  H   H1170     1.0  0.25961  0.90143  0.15737  1.0000
  H   H1171     1.0  0.27899  0.87987  0.15651  1.0000
  H   H1172     1.0  0.29254  0.88863  0.19180  1.0000
  H   H1173     1.0  0.30117  0.91499  0.19617  1.0000
  H   H1174     1.0  0.29894  0.94322  0.16944  1.0000
  H   H1175     1.0  0.29914  0.93753  0.14177  1.0000
  H   H1176     1.0  0.33284  0.92783  0.16830  1.0000
  H   H1177     1.0  0.33449  0.90288  0.18471  1.0000
  H   H1178     1.0  0.34907  0.90514  0.15910  1.0000
  H   H1179     1.0  0.44217  0.77174  0.36084  1.0000
  C   C694      1.0  0.50485  0.97104  0.18594  1.0000
  H   H1180     1.0  0.26450  0.89148  0.12067  1.0000
  H   H1181     1.0  0.25360  0.90519  0.19192  1.0000
  H   H1182     1.0  0.26445  0.93092  0.19781  1.0000
  H   H1183     1.0  0.26725  0.90824  0.21593  1.0000
  H   H1184     1.0  0.26605  0.95969  0.16581  1.0000
  H   H1185     1.0  0.25400  0.93497  0.16233  1.0000
  C   C695      1.0  0.33808  0.99449  0.27209  1.0000
  S   S197      1.0  0.49709  0.85545  0.32541  1.0000
  H   H1186     1.0  0.43550  0.76828  0.03460  1.0000
  H   H1187     1.0  0.33946  0.99490  0.30706  1.0000
  C   C696      1.0  0.06916  0.97085  0.38203  1.0000
  C   C697      1.0  0.46927  0.81499  0.03198  1.0000
  H   H1188     1.0  0.33976  0.00603  0.21751  1.0000
  H   H1189     1.0  0.12148  0.96500  0.38533  1.0000
  C   C698      1.0  0.02143  0.78305  0.24809  1.0000
  H   H1190     1.0  0.48437  0.82388  0.45295  1.0000
  H   H1191     1.0  0.47924  0.80301  0.06420  1.0000
  S   S198      1.0  0.34265  0.86910  0.01810  1.0000
  Fe  Fe100     1.0  0.34095  0.83300  0.02253  1.0000
  C   C699      1.0  0.50726  0.88158  0.32059  1.0000
  H   H1192     1.0  0.27655  0.91688  0.12130  1.0000
  H   H1193     1.0  0.45495  0.79275  0.05604  1.0000
  H   H1194     1.0  0.46401  0.76986  0.37819  1.0000
  C   C700      1.0  0.07652  0.99253  0.38965  1.0000
  H   H1195     1.0  0.20482  0.80622  0.49072  1.0000
  H   H1196     1.0  0.02753  0.80218  0.15105  1.0000
  C   C701      1.0  0.46430  0.80751  0.05574  1.0000
  H   H1197     1.0  0.09410  0.99433  0.38656  1.0000
  H   H1198     1.0  0.50612  0.97110  0.20377  1.0000
  H   H1199     1.0  0.51232  0.85500  0.44478  1.0000
  H   H1200     1.0  0.18730  0.97856  0.39161  1.0000
  H   H1201     1.0  0.07593  0.99817  0.34742  1.0000
  C   C702      1.0  0.25016  0.78747  0.02475  1.0000
  H   H1202     1.0  0.06906  0.92525  0.38516  1.0000
  C   C703      1.0  0.21221  0.79078  0.48455  1.0000
  Fe  Fe101     1.0  0.50015  0.79862  0.38725  1.0000
  H   H1203     1.0  0.07053  0.99428  0.31048  1.0000
  H   H1204     1.0  0.45813  0.77804  0.45791  1.0000
  C   C704      1.0  0.02576  0.77826  0.43078  1.0000
  H   H1205     1.0  0.48296  0.89155  0.29819  1.0000
  C   C705      1.0  0.49129  0.97396  0.34506  1.0000
  H   H1206     1.0  0.43189  0.96034  0.20232  1.0000
  C   C706      1.0  0.50417  0.99425  0.39127  1.0000
  H   H1207     1.0  0.49453  0.95765  0.33839  1.0000
  C   C707      1.0  0.07370  0.92369  0.36775  1.0000
  Fe  Fe102     1.0  0.02181  0.82500  0.34099  1.0000
  H   H1208     1.0  0.07292  0.99347  0.40738  1.0000
  H   H1209     1.0  0.37286  0.98784  0.23769  1.0000
  H   H1210     1.0  0.08276  0.76930  0.30270  1.0000
  H   H1211     1.0  0.06755  0.00647  0.38189  1.0000
  C   C708      1.0  0.42480  0.77963  0.02612  1.0000
  C   C709      1.0  0.03603  0.79871  0.18420  1.0000
  H   H1212     1.0  0.49114  0.93957  0.18685  1.0000
  N   N50       1.0  0.04561  0.77121  0.15448  1.0000
  H   H1213     1.0  0.25802  0.79720  0.03571  1.0000
  H   H1214     1.0  0.45373  0.81727  0.02390  1.0000
  H   H1215     1.0  0.50625  0.94530  0.16201  1.0000
  H   H1216     1.0  0.47771  0.98172  0.33616  1.0000
  H   H1217     1.0  0.07365  0.95836  0.39448  1.0000
  C   C710      1.0  0.35868  0.97988  0.23249  1.0000
  C   C711      1.0  0.26062  0.76426  0.49793  1.0000
  Fe  Fe103     1.0  0.51107  0.82940  0.34852  1.0000
  H   H1218     1.0  0.26462  0.95036  0.13926  1.0000
  N   N51       1.0  0.33137  0.00731  0.25211  1.0000
  H   H1219     1.0  0.05141  0.76793  0.23547  1.0000
  H   H1220     1.0  0.50735  0.97644  0.39126  1.0000
  N   N52       1.0  0.07749  0.96480  0.35961  1.0000
  C   C712      1.0  0.06778  0.94414  0.35397  1.0000
  C   C713      1.0  0.10184  0.96294  0.35710  1.0000
  C   C714      1.0  0.30923  0.77273  0.02059  1.0000
  H   H1221     1.0  0.50799  0.81689  0.49483  1.0000
  H   H1222     1.0  0.48684  0.99823  0.38918  1.0000
  H   H1223     1.0  0.07276  0.93990  0.33718  1.0000
  H   H1224     1.0  0.10721  0.95384  0.34250  1.0000
  C   C715      1.0  0.50266  0.81888  0.28092  1.0000
  H   H1225     1.0  0.09261  0.97585  0.31625  1.0000
  H   H1226     1.0  0.24870  0.00608  0.42851  1.0000
  H   H1227     1.0  0.17227  0.01294  0.21678  1.0000
  S   S199      1.0  0.21389  0.00293  0.35953  1.0000
  H   H1228     1.0  0.02533  0.76743  0.11270  1.0000
  S   S200      1.0  0.37733  0.82881  0.50678  1.0000
  H   H1229     1.0  0.35599  0.96523  0.24300  1.0000
  S   S201      1.0  0.35056  0.00592  0.13448  1.0000
  H   H1230     1.0  0.49996  0.98638  0.14809  1.0000
  H   H1231     1.0  0.20226  0.78613  0.47139  1.0000
  H   H1232     1.0  0.35587  0.99134  0.27187  1.0000
  H   H1233     1.0  0.44533  0.86313  0.01735  1.0000
  Fe  Fe104     1.0  0.35186  0.00628  0.17087  1.0000
  C   C716      1.0  0.22851  0.00452  0.22301  1.0000
  H   H1234     1.0  0.47708  0.01085  0.35830  1.0000
  H   H1235     1.0  0.32448  0.78453  0.04893  1.0000
  C   C717      1.0  0.50589  0.94715  0.17974  1.0000
  C   C718      1.0  0.14130  0.01018  0.23610  1.0000
  C   C719      1.0  0.50387  0.83016  0.03835  1.0000
  H   H1236     1.0  0.04572  0.78353  0.30478  1.0000
  H   H1237     1.0  0.34745  0.91990  0.49318  1.0000
  H   H1238     1.0  0.25573  0.78141  0.50062  1.0000
  H   H1239     1.0  0.50430  0.78797  0.45621  1.0000
  C   C720      1.0  0.23290  0.00483  0.39834  1.0000
  H   H1240     1.0  0.03799  0.76614  0.40001  1.0000
  H   H1241     1.0  0.49066  0.80075  0.25432  1.0000
  C   C721      1.0  0.33434  0.91316  0.50306  1.0000
  C   C722      1.0  0.01522  0.79558  0.44150  1.0000
  H   H1242     1.0  0.44095  0.87343  0.04374  1.0000
  H   H1243     1.0  0.06913  0.77919  0.12856  1.0000
  H   H1244     1.0  0.31390  0.00435  0.29794  1.0000
  C   C723      1.0  0.15562  0.00795  0.21496  1.0000
  C   C724      1.0  0.50493  0.91691  0.30125  1.0000
  S   S202      1.0  0.31786  0.95515  0.50520  1.0000
  H   H1245     1.0  0.25330  0.00667  0.19699  1.0000
  H   H1246     1.0  0.10831  0.99943  0.26722  1.0000
  C   C725      1.0  0.33473  0.89072  0.50796  1.0000
  H   H1247     1.0  0.48400  0.01121  0.19515  1.0000
  C   C726      1.0  0.33154  0.00467  0.29400  1.0000
  C   C727      1.0  0.30701  0.01023  0.25369  1.0000
  S   S203      1.0  0.01293  0.85957  0.28785  1.0000
  C   C728      1.0  0.39658  0.80867  0.00411  1.0000
  S   S204      1.0  0.47887  0.80493  0.69227  1.0000
  H   H1248     1.0  0.08409  0.84937  0.60868  1.0000
  H   H1249     1.0  0.11479  0.88640  0.64930  1.0000
  S   S205      1.0  0.01624  0.77808  0.73594  1.0000
  H   H1250     1.0  0.13451  0.90386  0.77510  1.0000
  Fe  Fe105     1.0  0.47074  0.80995  0.65712  1.0000
  S   S206      1.0  0.43608  0.81282  0.64631  1.0000
  Fe  Fe106     1.0  0.34363  0.77735  0.51899  1.0000
  Fe  Fe107     1.0  0.38370  0.80117  0.53069  1.0000
  S   S207      1.0  0.41487  0.79895  0.54850  1.0000
  H   H1251     1.0  0.29170  0.76901  0.98046  1.0000
  S   S208      1.0  0.34946  0.80154  0.54399  1.0000
  H   H1252     1.0  0.38573  0.87976  0.52874  1.0000
  C   C729      1.0  0.01699  0.79702  0.58475  1.0000
  S   S209      1.0  0.49628  0.95538  0.71380  1.0000
  H   H1253     1.0  0.33028  0.76745  0.97812  1.0000
  H   H1254     1.0  0.25355  0.99280  0.92825  1.0000
  S   S210      1.0  0.32936  0.82886  0.98943  1.0000
  H   H1255     1.0  0.40488  0.89408  0.54130  1.0000
  H   H1256     1.0  0.13913  0.97996  0.76613  1.0000
  Fe  Fe108     1.0  0.32816  0.86523  0.98606  1.0000
  S   S211      1.0  0.34163  0.88098  0.95456  1.0000
  H   H1257     1.0  0.24217  0.96278  0.62286  1.0000
  C   C730      1.0  0.49718  0.82333  0.99081  1.0000
  S   S212      1.0  0.31145  0.96923  0.83686  1.0000
  H   H1258     1.0  0.07284  0.76516  0.83633  1.0000
  Fe  Fe109     1.0  0.30745  0.97755  0.87216  1.0000
  S   S213      1.0  0.29396  0.95749  0.90110  1.0000
  Fe  Fe110     1.0  0.34074  0.98946  0.83620  1.0000
  C   C731      1.0  0.48455  0.84034  0.00485  1.0000
  Fe  Fe111     1.0  0.18196  0.98596  0.67890  1.0000
  S   S214      1.0  0.17039  0.96156  0.70443  1.0000
  S   S215      1.0  0.21031  0.97463  0.65642  1.0000
  H   H1259     1.0  0.25392  0.96251  0.75438  1.0000
  S   S216      1.0  0.13808  0.00023  0.72424  1.0000
  Fe  Fe112     1.0  0.17273  0.98806  0.72786  1.0000
  S   S217      1.0  0.18662  0.97703  0.76027  1.0000
  Fe  Fe113     1.0  0.13698  0.97558  0.69874  1.0000
  S   S218      1.0  0.10501  0.96001  0.69553  1.0000
  H   H1260     1.0  0.16053  0.90504  0.76126  1.0000
  S   S219      1.0  0.14832  0.99784  0.67127  1.0000
  S   S220      1.0  0.04789  0.81869  0.69531  1.0000
  C   C732      1.0  0.49240  0.91582  0.69638  1.0000
  Fe  Fe114     1.0  0.50446  0.78053  0.68028  1.0000
  Fe  Fe115     1.0  0.04730  0.85119  0.71025  1.0000
  S   S221      1.0  0.07992  0.86331  0.71759  1.0000
  C   C733      1.0  0.22210  0.99978  0.58595  1.0000
  H   H1261     1.0  0.46332  0.80371  0.60753  1.0000
  H   H1262     1.0  0.03430  0.79813  0.77259  1.0000
  H   H1263     1.0  0.34443  0.86376  0.58445  1.0000
  H   H1264     1.0  0.22166  0.78016  0.51650  1.0000
  S   S222      1.0  0.33829  0.99527  0.87209  1.0000
  H   H1265     1.0  0.37008  0.77219  0.59899  1.0000
  C   C734      1.0  0.25440  0.99768  0.69332  1.0000
  C   C735      1.0  0.30033  0.91810  0.52376  1.0000
  H   H1266     1.0  0.13713  0.91215  0.74679  1.0000
  H   H1267     1.0  0.43891  0.98718  0.84575  1.0000
  H   H1268     1.0  0.49187  0.85622  0.00158  1.0000
  C   C736      1.0  0.09849  0.93311  0.70221  1.0000
  C   C737      1.0  0.11417  0.91713  0.70778  1.0000
  C   C738      1.0  0.10817  0.89588  0.71299  1.0000
  C   C739      1.0  0.08654  0.89041  0.71231  1.0000
  C   C740      1.0  0.07088  0.90642  0.70672  1.0000
  C   C741      1.0  0.07686  0.92767  0.70171  1.0000
  H   H1269     1.0  0.13090  0.92111  0.70787  1.0000
  H   H1270     1.0  0.12037  0.88350  0.71713  1.0000
  H   H1271     1.0  0.05418  0.90241  0.70623  1.0000
  H   H1272     1.0  0.06465  0.93999  0.69740  1.0000
  H   H1273     1.0  0.45180  0.88352  0.75833  1.0000
  H   H1274     1.0  0.07331  0.86937  0.59057  1.0000
  H   H1275     1.0  0.43537  0.92549  0.82102  1.0000
  C   C742      1.0  0.43016  0.98985  0.83119  1.0000
  C   C743      1.0  0.23732  0.98138  0.79882  1.0000
  C   C744      1.0  0.21891  0.97448  0.78922  1.0000
  C   C745      1.0  0.20962  0.98659  0.77204  1.0000
  C   C746      1.0  0.11267  0.95085  0.75399  1.0000
  S   S223      1.0  0.31847  0.85421  0.52927  1.0000
  H   H1276     1.0  0.24439  0.97183  0.81188  1.0000
  H   H1277     1.0  0.21192  0.95961  0.79507  1.0000
  H   H1278     1.0  0.10656  0.85526  0.66887  1.0000
  H   H1279     1.0  0.13274  0.97016  0.81522  1.0000
  C   C747      1.0  0.40786  0.98649  0.83184  1.0000
  C   C748      1.0  0.20113  0.00123  0.62064  1.0000
  H   H1280     1.0  0.39962  0.98092  0.84673  1.0000
  H   H1281     1.0  0.15505  0.94498  0.75476  1.0000
  H   H1282     1.0  0.48502  0.91153  0.77782  1.0000
  S   S224      1.0  0.02157  0.84275  0.73581  1.0000
  C   C749      1.0  0.37112  0.85519  0.56043  1.0000
  C   C750      1.0  0.32935  0.90385  0.94115  1.0000
  C   C751      1.0  0.30965  0.91345  0.94891  1.0000
  C   C752      1.0  0.29912  0.92997  0.93651  1.0000
  C   C753      1.0  0.30845  0.93748  0.91654  1.0000
  C   C754      1.0  0.32852  0.92845  0.90916  1.0000
  C   C755      1.0  0.33882  0.91159  0.92135  1.0000
  H   H1283     1.0  0.30232  0.90777  0.96422  1.0000
  H   H1284     1.0  0.28359  0.93684  0.94235  1.0000
  H   H1285     1.0  0.33584  0.93405  0.89381  1.0000
  H   H1286     1.0  0.35405  0.90425  0.91521  1.0000
  Fe  Fe116     1.0  0.24985  0.00106  0.53108  1.0000
  C   C756      1.0  0.30018  0.99073  0.94950  1.0000
  C   C757      1.0  0.43063  0.78683  0.00500  1.0000
  H   H1287     1.0  0.34822  0.78212  0.00696  1.0000
  C   C758      1.0  0.23281  0.97163  0.71474  1.0000
  H   H1288     1.0  0.28298  0.99028  0.72352  1.0000
  C   C759      1.0  0.23557  0.98322  0.59465  1.0000
  C   C760      1.0  0.23178  0.97569  0.61628  1.0000
  C   C761      1.0  0.21449  0.98459  0.62933  1.0000
  C   C762      1.0  0.02027  0.76926  0.76324  1.0000
  S   S225      1.0  0.46958  0.99895  0.81150  1.0000
  H   H1289     1.0  0.48244  0.92466  0.68487  1.0000
  C   C763      1.0  0.04057  0.89688  0.63508  1.0000
  H   H1290     1.0  0.10339  0.84683  0.64155  1.0000
  H   H1291     1.0  0.10438  0.87747  0.61645  1.0000
  Fe  Fe117     1.0  0.50705  0.97705  0.73968  1.0000
  H   H1292     1.0  0.48011  0.87804  0.76034  1.0000
  H   H1293     1.0  0.45217  0.96873  0.73713  1.0000
  H   H1294     1.0  0.03862  0.78498  0.81070  1.0000
  H   H1295     1.0  0.12181  0.92333  0.64806  1.0000
  C   C764      1.0  0.42001  0.80302  0.57582  1.0000
  C   C765      1.0  0.44155  0.80174  0.58175  1.0000
  C   C766      1.0  0.44663  0.80472  0.60323  1.0000
  C   C767      1.0  0.43019  0.80903  0.61908  1.0000
  C   C768      1.0  0.40857  0.81035  0.61317  1.0000
  C   C769      1.0  0.40346  0.80728  0.59163  1.0000
  C   C770      1.0  0.27511  0.89039  0.89850  1.0000
  H   H1296     1.0  0.50716  0.83154  0.97781  1.0000
  H   H1297     1.0  0.39576  0.81366  0.62537  1.0000
  H   H1298     1.0  0.38683  0.80821  0.58728  1.0000
  H   H1299     1.0  0.36100  0.85915  0.54639  1.0000
  H   H1300     1.0  0.34877  0.91722  0.56493  1.0000
  H   H1301     1.0  0.26574  0.00567  0.97366  1.0000
  H   H1302     1.0  0.09827  0.77755  0.84014  1.0000
  S   S226      1.0  0.18598  0.01167  0.70269  1.0000
  S   S227      1.0  0.45565  0.77887  0.99166  1.0000
  N   N53       1.0  0.27640  0.86036  0.92903  1.0000
  C   C771      1.0  0.28868  0.87386  0.91207  1.0000
  C   C772      1.0  0.29296  0.84822  0.94246  1.0000
  C   C773      1.0  0.26277  0.87560  0.94324  1.0000
  C   C774      1.0  0.26249  0.84562  0.91773  1.0000
  H   H1303     1.0  0.47114  0.89943  0.74253  1.0000
  C   C775      1.0  0.31001  0.83395  0.92979  1.0000
  C   C776      1.0  0.24892  0.86532  0.96194  1.0000
  C   C777      1.0  0.25591  0.82467  0.93035  1.0000
  H   H1304     1.0  0.30098  0.88299  0.91958  1.0000
  H   H1305     1.0  0.29801  0.86343  0.90025  1.0000
  H   H1306     1.0  0.28550  0.83775  0.95531  1.0000
  H   H1307     1.0  0.30190  0.85974  0.95140  1.0000
  H   H1308     1.0  0.27317  0.88715  0.95043  1.0000
  H   H1309     1.0  0.25105  0.88559  0.93367  1.0000
  H   H1310     1.0  0.24742  0.85459  0.91276  1.0000
  H   H1311     1.0  0.27109  0.84012  0.90248  1.0000
  H   H1312     1.0  0.39908  0.99785  0.77885  1.0000
  H   H1313     1.0  0.09424  0.93249  0.64829  1.0000
  H   H1314     1.0  0.42406  0.89151  0.57061  1.0000
  H   H1315     1.0  0.31868  0.82293  0.94137  1.0000
  H   H1316     1.0  0.30274  0.82386  0.91812  1.0000
  H   H1317     1.0  0.32239  0.84396  0.92123  1.0000
  H   H1318     1.0  0.25844  0.85453  0.97290  1.0000
  H   H1319     1.0  0.23549  0.85668  0.95583  1.0000
  H   H1320     1.0  0.24135  0.87838  0.97204  1.0000
  H   H1321     1.0  0.23967  0.82061  0.92563  1.0000
  H   H1322     1.0  0.25476  0.82548  0.94815  1.0000
  H   H1323     1.0  0.26692  0.81073  0.92561  1.0000
  C   C778      1.0  0.25381  0.79086  0.00239  1.0000
  C   C779      1.0  0.25239  0.99215  0.94619  1.0000
  H   H1324     1.0  0.26952  0.90464  0.90801  1.0000
  H   H1325     1.0  0.32603  0.99441  0.92357  1.0000
  C   C780      1.0  0.44134  0.99605  0.81170  1.0000
  H   H1326     1.0  0.42778  0.90583  0.79141  1.0000
  H   H1327     1.0  0.24368  0.94798  0.67866  1.0000
  C   C781      1.0  0.20497  0.00880  0.59909  1.0000
  S   S228      1.0  0.49347  0.83678  0.65059  1.0000
  H   H1328     1.0  0.28711  0.92854  0.53006  1.0000
  H   H1329     1.0  0.34506  0.83694  0.57560  1.0000
  H   H1330     1.0  0.29259  0.97775  0.94134  1.0000
  Fe  Fe118     1.0  0.02032  0.81140  0.71928  1.0000
  H   H1331     1.0  0.50855  0.81254  0.99983  1.0000
  C   C782      1.0  0.02451  0.81237  0.59832  1.0000
  Fe  Fe119     1.0  0.34245  0.82723  0.51825  1.0000
  C   C783      1.0  0.39653  0.98939  0.81298  1.0000
  C   C784      1.0  0.02917  0.78231  0.77793  1.0000
  C   C785      1.0  0.09172  0.96549  0.75463  1.0000
  H   H1332     1.0  0.33258  0.77969  0.60030  1.0000
  Fe  Fe120     1.0  0.29214  0.00039  0.83003  1.0000
  H   H1333     1.0  0.33042  0.97239  0.94240  1.0000
  H   H1334     1.0  0.06237  0.85884  0.64941  1.0000
  H   H1335     1.0  0.45445  0.79841  0.56965  1.0000
  C   C786      1.0  0.45246  0.92974  0.81836  1.0000
  S   S229      1.0  0.28609  0.00748  0.86526  1.0000
  S   S230      1.0  0.49465  0.78388  0.64566  1.0000
  C   C787      1.0  0.21879  0.00586  0.76476  1.0000
  C   C788      1.0  0.11155  0.93858  0.79217  1.0000
  S   S231      1.0  0.22598  0.01022  0.55900  1.0000
  H   H1336     1.0  0.03516  0.88125  0.64208  1.0000
  C   C789      1.0  0.08696  0.88283  0.61835  1.0000
  H   H1337     1.0  0.26119  0.88313  0.89173  1.0000
  H   H1338     1.0  0.46840  0.84264  0.99793  1.0000
  H   H1339     1.0  0.35893  0.00826  0.00335  1.0000
  H   H1340     1.0  0.02161  0.79750  0.56763  1.0000
  H   H1341     1.0  0.25776  0.97570  0.95215  1.0000
  C   C790      1.0  0.26672  0.98432  0.72839  1.0000
  H   H1342     1.0  0.40984  0.84481  0.53447  1.0000
  H   H1343     1.0  0.45528  0.94189  0.83045  1.0000
  H   H1344     1.0  0.26098  0.96610  0.66311  1.0000
  H   H1345     1.0  0.08097  0.96215  0.76914  1.0000
  H   H1346     1.0  0.07044  0.87157  0.67207  1.0000
  C   C791      1.0  0.49600  0.89326  0.69494  1.0000
  H   H1347     1.0  0.27202  0.94608  0.70768  1.0000
  H   H1348     1.0  0.34320  0.89110  0.55652  1.0000
  Fe  Fe121     1.0  0.29566  0.83236  0.00496  1.0000
  H   H1349     1.0  0.18778  0.00823  0.63051  1.0000
  H   H1350     1.0  0.05810  0.86295  0.61484  1.0000
  H   H1351     1.0  0.40528  0.94222  0.76590  1.0000
  C   C792      1.0  0.37452  0.89294  0.57152  1.0000
  C   C793      1.0  0.40233  0.86477  0.57971  1.0000
  Fe  Fe122     1.0  0.02287  0.83378  0.67374  1.0000
  C   C794      1.0  0.35627  0.90241  0.55751  1.0000
  H   H1352     1.0  0.27075  0.00118  0.68603  1.0000
  H   H1353     1.0  0.36761  0.89021  0.58834  1.0000
  H   H1354     1.0  0.38587  0.90607  0.57268  1.0000
  H   H1355     1.0  0.39388  0.86090  0.59561  1.0000
  H   H1356     1.0  0.41058  0.84907  0.57525  1.0000
  C   C795      1.0  0.32409  0.98949  0.94096  1.0000
  H   H1357     1.0  0.42047  0.86544  0.51662  1.0000
  C   C796      1.0  0.24318  0.77811  0.98847  1.0000
  S   S232      1.0  0.29379  0.86862  0.99916  1.0000
  C   C797      1.0  0.31804  0.88195  0.52107  1.0000
  H   H1358     1.0  0.36244  0.90728  0.54096  1.0000
  H   H1359     1.0  0.05844  0.90745  0.66114  1.0000
  C   C798      1.0  0.30084  0.89573  0.52885  1.0000
  H   H1360     1.0  0.23503  0.99450  0.95144  1.0000
  H   H1361     1.0  0.33440  0.99895  0.95061  1.0000
  C   C799      1.0  0.50154  0.92703  0.71257  1.0000
  H   H1362     1.0  0.08252  0.96247  0.74028  1.0000
  C   C800      1.0  0.26967  0.96682  0.74650  1.0000
  S   S233      1.0  0.02394  0.86699  0.68735  1.0000
  S   S234      1.0  0.27165  0.81047  0.99088  1.0000
  C   C801      1.0  0.26040  0.95331  0.67617  1.0000
  C   C802      1.0  0.01859  0.81206  0.62063  1.0000
  H   H1363     1.0  0.28549  0.89674  0.88470  1.0000
  C   C803      1.0  0.26923  0.96075  0.69726  1.0000
  H   H1364     1.0  0.48884  0.88484  0.68243  1.0000
  H   H1365     1.0  0.02758  0.90922  0.63950  1.0000
  H   H1366     1.0  0.47487  0.93824  0.75167  1.0000
  H   H1367     1.0  0.10775  0.93463  0.74981  1.0000
  H   H1368     1.0  0.08506  0.89792  0.60807  1.0000
  H   H1369     1.0  0.12296  0.95665  0.73980  1.0000
  C   C804      1.0  0.12338  0.92852  0.81185  1.0000
  H   H1370     1.0  0.49327  0.77733  0.83360  1.0000
  S   S235      1.0  0.36934  0.98240  0.81221  1.0000
  H   H1371     1.0  0.43227  0.96556  0.75877  1.0000
  H   H1372     1.0  0.27919  0.95226  0.74099  1.0000
  C   C805      1.0  0.41966  0.88057  0.58454  1.0000
  H   H1373     1.0  0.28695  0.00309  0.91292  1.0000
  H   H1374     1.0  0.04170  0.89664  0.61715  1.0000
  N   N54       1.0  0.38641  0.87278  0.56335  1.0000
  C   C806      1.0  0.35552  0.84983  0.58003  1.0000
  H   H1375     1.0  0.14046  0.93235  0.81251  1.0000
  N   N55       1.0  0.25555  0.97811  0.70874  1.0000
  H   H1376     1.0  0.27063  0.93930  0.67019  1.0000
  H   H1377     1.0  0.38027  0.83981  0.55638  1.0000
  H   H1378     1.0  0.24450  0.99469  0.67942  1.0000
  H   H1379     1.0  0.48589  0.81308  0.98317  1.0000
  H   H1380     1.0  0.06534  0.91893  0.63501  1.0000
  H   H1381     1.0  0.22490  0.98257  0.72691  1.0000
  H   H1382     1.0  0.11495  0.93423  0.82705  1.0000
  H   H1383     1.0  0.09528  0.98285  0.75332  1.0000
  C   C807      1.0  0.14247  0.97450  0.80026  1.0000
  H   H1384     1.0  0.03494  0.82460  0.59148  1.0000
  H   H1385     1.0  0.45944  0.97229  0.76403  1.0000
  C   C808      1.0  0.22992  0.94809  0.72337  1.0000
  C   C809      1.0  0.41112  0.93591  0.78168  1.0000
  H   H1386     1.0  0.09692  0.89847  0.66909  1.0000
  N   N56       1.0  0.12518  0.94934  0.77429  1.0000
  H   H1387     1.0  0.11473  0.98212  0.78256  1.0000
  C   C810      1.0  0.12990  0.97199  0.77987  1.0000
  H   H1388     1.0  0.14593  0.99181  0.80128  1.0000
  S   S236      1.0  0.27020  0.00997  0.80216  1.0000
  C   C811      1.0  0.10590  0.91961  0.64218  1.0000
  H   H1389     1.0  0.42646  0.91042  0.76347  1.0000
  C   C812      1.0  0.44957  0.96258  0.75414  1.0000
  H   H1390     1.0  0.15760  0.93658  0.78177  1.0000
  C   C813      1.0  0.41546  0.86144  0.53377  1.0000
  H   H1391     1.0  0.39740  0.92855  0.79107  1.0000
  C   C814      1.0  0.46745  0.89127  0.75847  1.0000
  S   S237      1.0  0.48659  0.00749  0.74705  1.0000
  H   H1392     1.0  0.47442  0.94417  0.79433  1.0000
  C   C815      1.0  0.14619  0.93682  0.76871  1.0000
  H   H1393     1.0  0.21816  0.94821  0.73757  1.0000
  H   H1394     1.0  0.24461  0.93915  0.72876  1.0000
  H   H1395     1.0  0.22256  0.93868  0.71109  1.0000
  H   H1396     1.0  0.44798  0.95558  0.79516  1.0000
  C   C816      1.0  0.07470  0.86513  0.60806  1.0000
  Fe  Fe123     1.0  0.49326  0.99873  0.78182  1.0000
  C   C817      1.0  0.09987  0.89708  0.65136  1.0000
  H   H1397     1.0  0.12248  0.91066  0.81252  1.0000
  C   C818      1.0  0.42991  0.99937  0.79296  1.0000
  C   C819      1.0  0.06187  0.90343  0.64384  1.0000
  H   H1398     1.0  0.10272  0.92532  0.78564  1.0000
  H   H1399     1.0  0.41414  0.89055  0.59850  1.0000
  H   H1400     1.0  0.28576  0.96637  0.69308  1.0000
  H   H1401     1.0  0.22271  0.97387  0.70047  1.0000
  H   H1402     1.0  0.24881  0.97616  0.58470  1.0000
  H   H1403     1.0  0.10735  0.92048  0.62425  1.0000
  H   H1404     1.0  0.42076  0.80694  0.97770  1.0000
  C   C820      1.0  0.39761  0.87806  0.54161  1.0000
  H   H1405     1.0  0.09868  0.95023  0.79854  1.0000
  S   S238      1.0  0.02860  0.83167  0.63703  1.0000
  H   H1406     1.0  0.45007  0.93067  0.74203  1.0000
  H   H1407     1.0  0.46344  0.91549  0.82187  1.0000
  H   H1408     1.0  0.41500  0.94957  0.79134  1.0000
  H   H1409     1.0  0.46502  0.89643  0.79242  1.0000
  C   C821      1.0  0.14414  0.91316  0.76272  1.0000
  N   N57       1.0  0.45252  0.92628  0.77686  1.0000
  C   C822      1.0  0.46802  0.90660  0.77746  1.0000
  C   C823      1.0  0.45720  0.93984  0.79553  1.0000
  C   C824      1.0  0.45713  0.93852  0.75564  1.0000
  C   C825      1.0  0.42981  0.91866  0.77843  1.0000
  H   H1410     1.0  0.08850  0.83484  0.66422  1.0000
  H   H1411     1.0  0.27875  0.97357  0.75940  1.0000
  C   C826      1.0  0.07599  0.86723  0.65532  1.0000
  C   C827      1.0  0.09490  0.85021  0.65736  1.0000
  H   H1412     1.0  0.36415  0.84354  0.59433  1.0000
  N   N58       1.0  0.08095  0.88734  0.64178  1.0000
  C   C828      1.0  0.40767  0.99585  0.79358  1.0000
  Fe  Fe124     1.0  0.50383  0.82968  0.68443  1.0000
  C   C829      1.0  0.41639  0.80130  0.99406  1.0000
  H   H1413     1.0  0.38580  0.81984  0.99550  1.0000
  H   H1414     1.0  0.43004  0.86179  0.54326  1.0000
  H   H1415     1.0  0.25763  0.99789  0.73654  1.0000
  H   H1416     1.0  0.28791  0.88911  0.53909  1.0000
  H   H1417     1.0  0.43824  0.00446  0.77794  1.0000
  H   H1418     1.0  0.47588  0.77372  0.81209  1.0000
  H   H1419     1.0  0.15839  0.96553  0.79979  1.0000
  H   H1420     1.0  0.29973  0.98565  0.96700  1.0000
  S   S239      1.0  0.28519  0.00816  0.52734  1.0000
  H   H1421     1.0  0.43482  0.87120  0.58850  1.0000
  H   H1422     1.0  0.24583  0.78052  0.97115  1.0000
  C   C830      1.0  0.24657  0.00059  0.79143  1.0000
  C   C831      1.0  0.03176  0.77473  0.79949  1.0000
  H   H1423     1.0  0.31087  0.78864  0.01177  1.0000
  H   H1424     1.0  0.04990  0.77302  0.61176  1.0000
  C   C832      1.0  0.50879  0.88168  0.70976  1.0000
  C   C833      1.0  0.26524  0.00965  0.95595  1.0000
  H   H1425     1.0  0.09136  0.77012  0.81409  1.0000
  H   H1426     1.0  0.33744  0.76781  0.57456  1.0000
  N   N59       1.0  0.28779  0.01218  0.94607  1.0000
  C   C834      1.0  0.48912  0.76586  0.82144  1.0000
  H   H1427     1.0  0.38408  0.76719  0.56510  1.0000
  H   H1428     1.0  0.07469  0.76604  0.87308  1.0000
  C   C835      1.0  0.09034  0.76514  0.83155  1.0000
  S   S240      1.0  0.51199  0.96741  0.77448  1.0000
  C   C836      1.0  0.23710  0.01278  0.77442  1.0000
  C   C837      1.0  0.34782  0.76527  0.01397  1.0000
  C   C838      1.0  0.33804  0.76454  0.59220  1.0000
  S   S241      1.0  0.68964  0.17558  0.48971  1.0000
  H   H1429     1.0  0.80575  0.02397  0.25598  1.0000
  H   H1430     1.0  0.78389  0.04709  0.13904  1.0000
  Fe  Fe125     1.0  0.65329  0.18056  0.49092  1.0000
  S   S242      1.0  0.63122  0.16622  0.46762  1.0000
  C   C839      1.0  0.55361  0.19328  0.47412  1.0000
  Fe  Fe126     1.0  0.54265  0.19458  0.38117  1.0000
  H   H1431     1.0  0.73306  0.05796  0.18994  1.0000
  S   S243      1.0  0.56851  0.21085  0.39858  1.0000
  C   C840      1.0  0.52861  0.13829  0.27142  1.0000
  H   H1432     1.0  0.00325  0.17992  0.18967  1.0000
  C   C841      1.0  0.56975  0.24568  0.09966  1.0000
  H   H1433     1.0  0.62455  0.21831  0.06136  1.0000
  S   S244      1.0  0.54491  0.18819  0.34550  1.0000
  H   H1434     1.0  0.99354  0.21493  0.20489  1.0000
  H   H1435     1.0  0.79022  0.08708  0.19665  1.0000
  H   H1436     1.0  0.96367  0.19440  0.15721  1.0000
  H   H1437     1.0  0.00174  0.26159  0.37629  1.0000
  S   S245      1.0  0.73880  0.09837  0.05031  1.0000
  S   S246      1.0  0.71531  0.15940  0.03835  1.0000
  C   C842      1.0  0.56918  0.26201  0.06319  1.0000
  C   C843      1.0  0.00270  0.24752  0.23010  1.0000
  S   S247      1.0  0.68626  0.04414  0.12321  1.0000
  C   C844      1.0  0.75073  0.18015  0.50052  1.0000
  H   H1438     1.0  0.95551  0.23624  0.13925  1.0000
  H   H1439     1.0  0.59698  0.20058  0.08217  1.0000
  S   S248      1.0  0.71587  0.23148  0.48982  1.0000
  H   H1440     1.0  0.68310  0.01677  0.25692  1.0000
  Fe  Fe127     1.0  0.99333  0.12653  0.31865  1.0000
  S   S249      1.0  0.97038  0.10018  0.32990  1.0000
  C   C845      1.0  0.98044  0.20766  0.19672  1.0000
  C   C846      1.0  0.55695  0.16625  0.29232  1.0000
  H   H1441     1.0  0.93559  0.04277  0.25749  1.0000
  S   S250      1.0  0.98873  0.16190  0.32609  1.0000
  H   H1442     1.0  0.69666  0.07213  0.18561  1.0000
  H   H1443     1.0  0.58311  0.17498  0.48096  1.0000
  H   H1444     1.0  0.73626  0.23510  0.03380  1.0000
  S   S251      1.0  0.89080  0.06019  0.28755  1.0000
  H   H1445     1.0  0.97852  0.23854  0.25489  1.0000
  C   C847      1.0  0.78579  0.20064  0.02033  1.0000
  H   H1446     1.0  0.76806  0.22113  0.49684  1.0000
  H   H1447     1.0  0.56238  0.20313  0.46143  1.0000
  H   H1448     1.0  0.73901  0.05860  0.43444  1.0000
  H   H1449     1.0  0.91266  0.02674  0.25998  1.0000
  C   C848      1.0  0.94772  0.09030  0.31794  1.0000
  C   C849      1.0  0.94185  0.09682  0.29708  1.0000
  C   C850      1.0  0.92419  0.08771  0.28810  1.0000
  C   C851      1.0  0.91233  0.07191  0.29978  1.0000
  C   C852      1.0  0.91817  0.06552  0.32066  1.0000
  C   C853      1.0  0.93570  0.07470  0.32966  1.0000
  H   H1450     1.0  0.95092  0.10883  0.28788  1.0000
  H   H1451     1.0  0.91976  0.09285  0.27197  1.0000
  H   H1452     1.0  0.90909  0.05363  0.32996  1.0000
  H   H1453     1.0  0.94002  0.06963  0.34584  1.0000
  H   H1454     1.0  0.76008  0.18922  0.48766  1.0000
  C   C854      1.0  0.97277  0.24302  0.17950  1.0000
  C   C855      1.0  0.52874  0.07288  0.30636  1.0000
  Fe  Fe128     1.0  0.72338  0.12502  0.02876  1.0000
  H   H1455     1.0  0.76987  0.10524  0.18574  1.0000
  C   C856      1.0  0.66938  0.05073  0.50270  1.0000
  C   C857      1.0  0.74854  0.05612  0.41882  1.0000
  H   H1456     1.0  0.93122  0.23232  0.15614  1.0000
  Fe  Fe129     1.0  0.87502  0.02967  0.30106  1.0000
  H   H1457     1.0  0.96953  0.04623  0.26965  1.0000
  H   H1458     1.0  0.56107  0.02258  0.32478  1.0000
  H   H1459     1.0  0.76497  0.07216  0.45429  1.0000
  H   H1460     1.0  0.73841  0.16079  0.47618  1.0000
  C   C858      1.0  0.72371  0.08297  0.06992  1.0000
  C   C859      1.0  0.70199  0.08839  0.07543  1.0000
  C   C860      1.0  0.69071  0.07621  0.09166  1.0000
  C   C861      1.0  0.70096  0.05843  0.10240  1.0000
  C   C862      1.0  0.72255  0.05271  0.09659  1.0000
  C   C863      1.0  0.73392  0.06504  0.08054  1.0000
  H   H1461     1.0  0.69397  0.10216  0.06739  1.0000
  H   H1462     1.0  0.67398  0.08072  0.09600  1.0000
  H   H1463     1.0  0.73047  0.03886  0.10450  1.0000
  H   H1464     1.0  0.75071  0.06072  0.07630  1.0000
  H   H1465     1.0  0.55198  0.24359  0.10081  1.0000
  H   H1466     1.0  0.72106  0.08583  0.13101  1.0000
  H   H1467     1.0  0.01124  0.22274  0.16954  1.0000
  H   H1468     1.0  0.52993  0.03759  0.34608  1.0000
  C   C864      1.0  0.52806  0.10566  0.32729  1.0000
  H   H1469     1.0  0.80317  0.05085  0.38912  1.0000
  H   H1470     1.0  0.56806  0.17929  0.29466  1.0000
  H   H1471     1.0  0.78922  0.01771  0.40483  1.0000
  H   H1472     1.0  0.76551  0.09861  0.14279  1.0000
  C   C865      1.0  0.99403  0.23403  0.24703  1.0000
  N   N60       1.0  0.57879  0.24343  0.07660  1.0000
  C   C866      1.0  0.94587  0.22415  0.14838  1.0000
  H   H1473     1.0  0.93886  0.24034  0.19223  1.0000
  H   H1474     1.0  0.77957  0.18718  0.02998  1.0000
  H   H1475     1.0  0.60928  0.23506  0.09082  1.0000
  C   C867      1.0  0.78003  0.06167  0.45380  1.0000
  H   H1476     1.0  0.66329  0.04184  0.48930  1.0000
  C   C868      1.0  0.61461  0.17896  0.44785  1.0000
  C   C869      1.0  0.59999  0.16650  0.43794  1.0000
  C   C870      1.0  0.58579  0.17598  0.42285  1.0000
  C   C871      1.0  0.58617  0.19806  0.41735  1.0000
  C   C872      1.0  0.60086  0.21051  0.42718  1.0000
  C   C873      1.0  0.61503  0.20104  0.44232  1.0000
  H   H1477     1.0  0.59956  0.14940  0.44204  1.0000
  H   H1478     1.0  0.57463  0.16619  0.41539  1.0000
  H   H1479     1.0  0.60134  0.22759  0.42295  1.0000
  H   H1480     1.0  0.62632  0.21080  0.44963  1.0000
  C   C874      1.0  0.78697  0.04659  0.38445  1.0000
  Fe  Fe130     1.0  0.68987  0.20885  0.50347  1.0000
  C   C875      1.0  0.69852  0.02920  0.04871  1.0000
  H   H1481     1.0  0.73667  0.05908  0.38602  1.0000
  S   S252      1.0  0.65082  0.16549  0.03621  1.0000
  H   H1482     1.0  0.60875  0.18127  0.50786  1.0000
  C   C876      1.0  0.53924  0.17482  0.27724  1.0000
  S   S253      1.0  0.52386  0.22921  0.03365  1.0000
  H   H1483     1.0  0.56057  0.16901  0.49859  1.0000
  H   H1484     1.0  0.74417  0.10873  0.16054  1.0000
  H   H1485     1.0  0.73469  0.01814  0.06868  1.0000
  H   H1486     1.0  0.60061  0.21010  0.48355  1.0000
  H   H1487     1.0  0.54734  0.17738  0.26086  1.0000
  H   H1488     1.0  0.60492  0.16945  0.04467  1.0000
  H   H1489     1.0  0.79243  0.26204  0.06366  1.0000
  H   H1490     1.0  0.68804  0.03624  0.03599  1.0000
  H   H1491     1.0  0.81321  0.20354  0.03980  1.0000
  C   C877      1.0  0.98699  0.04438  0.29901  1.0000
  C   C878      1.0  0.99749  0.21640  0.16130  1.0000
  H   H1492     1.0  0.57472  0.18756  0.07252  1.0000
  C   C879      1.0  0.00264  0.18144  0.39842  1.0000
  H   H1493     1.0  0.52335  0.02136  0.38087  1.0000
  H   H1494     1.0  0.68996  0.03238  0.06455  1.0000
  H   H1495     1.0  0.57687  0.23276  0.11050  1.0000
  H   H1496     1.0  0.55310  0.22285  0.07011  1.0000
  H   H1497     1.0  0.57532  0.22038  0.05163  1.0000
  H   H1498     1.0  0.74993  0.03949  0.15907  1.0000
  H   H1499     1.0  0.79216  0.17505  0.50390  1.0000
  Fe  Fe131     1.0  0.00775  0.23109  0.48175  1.0000
  H   H1500     1.0  0.64178  0.12464  0.01649  1.0000
  H   H1501     1.0  0.99282  0.17265  0.38832  1.0000
  C   C880      1.0  0.96919  0.21644  0.33645  1.0000
  H   H1502     1.0  0.60681  0.23135  0.04231  1.0000
  C   C881      1.0  0.76854  0.05221  0.13154  1.0000
  H   H1503     1.0  0.95967  0.23157  0.33234  1.0000
  H   H1504     1.0  0.98708  0.21851  0.12790  1.0000
  C   C882      1.0  0.58711  0.21608  0.49473  1.0000
  C   C883      1.0  0.60311  0.24388  0.07619  1.0000
  C   C884      1.0  0.74760  0.15809  0.49101  1.0000
  S   S254      1.0  0.73531  0.04848  0.49152  1.0000
  H   H1505     1.0  0.53401  0.19126  0.28282  1.0000
  C   C885      1.0  0.99370  0.18961  0.41810  1.0000
  H   H1506     1.0  0.52055  0.10594  0.26410  1.0000
  H   H1507     1.0  0.98185  0.05091  0.31506  1.0000
  H   H1508     1.0  0.73793  0.14742  0.50207  1.0000
  H   H1509     1.0  0.57553  0.19128  0.02693  1.0000
  H   H1510     1.0  0.79336  0.07180  0.45776  1.0000
  C   C886      1.0  0.73136  0.07309  0.17963  1.0000
  C   C887      1.0  0.77670  0.03065  0.40131  1.0000
  H   H1511     1.0  0.98349  0.24184  0.30373  1.0000
  H   H1512     1.0  0.53989  0.13852  0.25674  1.0000
  S   S255      1.0  0.52980  0.16223  0.39026  1.0000
  C   C888      1.0  0.78536  0.05208  0.43140  1.0000
  H   H1513     1.0  0.71355  0.03815  0.04714  1.0000
  C   C889      1.0  0.57920  0.20180  0.08126  1.0000
  H   H1514     1.0  0.51695  0.16908  0.24221  1.0000
  C   C890      1.0  0.00512  0.21464  0.25366  1.0000
  H   H1515     1.0  0.68326  0.02358  0.22857  1.0000
  S   S256      1.0  0.69732  0.01617  0.18011  1.0000
  H   H1516     1.0  0.78485  0.07330  0.16270  1.0000
  H   H1517     1.0  0.77064  0.06717  0.12140  1.0000
  H   H1518     1.0  0.79017  0.06595  0.42054  1.0000
  H   H1519     1.0  0.57537  0.22511  0.48440  1.0000
  H   H1520     1.0  0.00176  0.26318  0.29771  1.0000
  H   H1521     1.0  0.95780  0.24489  0.21252  1.0000
  H   H1522     1.0  0.94573  0.20523  0.17801  1.0000
  H   H1523     1.0  0.80020  0.04126  0.43274  1.0000
  H   H1524     1.0  0.57136  0.20036  0.09777  1.0000
  C   C891      1.0  0.71567  0.08907  0.49378  1.0000
  C   C892      1.0  0.52815  0.02184  0.33862  1.0000
  H   H1525     1.0  0.80119  0.13955  0.51182  1.0000
  H   H1526     1.0  0.97008  0.25291  0.16451  1.0000
  C   C893      1.0  0.95355  0.24867  0.19556  1.0000
  H   H1527     1.0  0.77327  0.24727  0.02987  1.0000
  C   C894      1.0  0.72950  0.25099  0.50346  1.0000
  C   C895      1.0  0.72878  0.07319  0.50432  1.0000
  H   H1528     1.0  0.72482  0.26218  0.03260  1.0000
  C   C896      1.0  0.63047  0.18142  0.02317  1.0000
  C   C897      1.0  0.73419  0.09713  0.13042  1.0000
  N   N61       1.0  0.76756  0.04029  0.42210  1.0000
  H   H1529     1.0  0.99907  0.03084  0.30107  1.0000
  C   C898      1.0  0.70856  0.10823  0.50405  1.0000
  H   H1530     1.0  0.76326  0.14992  0.48585  1.0000
  N   N62       1.0  0.97683  0.21932  0.17520  1.0000
  H   H1531     1.0  0.60506  0.24474  0.49733  1.0000
  S   S257      1.0  0.99263  0.19751  0.27399  1.0000
  H   H1532     1.0  0.97920  0.22911  0.36514  1.0000
  H   H1533     1.0  0.00250  0.23499  0.38989  1.0000
  C   C899      1.0  0.99776  0.25545  0.33276  1.0000
  H   H1534     1.0  0.74383  0.09561  0.11482  1.0000
  H   H1535     1.0  0.76451  0.02234  0.39289  1.0000
  H   H1536     1.0  0.93647  0.01592  0.24640  1.0000
  H   H1537     1.0  0.69813  0.12014  0.49592  1.0000
  C   C900      1.0  0.96705  0.03946  0.28650  1.0000
  N   N63       1.0  0.52005  0.16095  0.27623  1.0000
  H   H1538     1.0  0.75442  0.07226  0.41349  1.0000
  C   C901      1.0  0.95817  0.20970  0.16512  1.0000
  H   H1539     1.0  0.78965  0.03865  0.36868  1.0000
  H   H1540     1.0  0.78089  0.03665  0.22744  1.0000
  H   H1541     1.0  0.72627  0.11364  0.12962  1.0000
  H   H1542     1.0  0.73456  0.05425  0.14017  1.0000
  H   H1543     1.0  0.99381  0.20477  0.35786  1.0000
  H   H1544     1.0  0.00576  0.01738  0.26795  1.0000
  H   H1545     1.0  0.71056  0.08636  0.47775  1.0000
  H   H1546     1.0  0.76298  0.08484  0.20662  1.0000
  N   N64       1.0  0.57703  0.19727  0.50697  1.0000
  C   C902      1.0  0.53957  0.08927  0.31569  1.0000
  H   H1547     1.0  0.00757  0.21663  0.31086  1.0000
  H   H1548     1.0  0.53919  0.01426  0.14408  1.0000
  C   C903      1.0  0.74963  0.05462  0.14874  1.0000
  C   C904      1.0  0.74605  0.26219  0.49211  1.0000
  H   H1549     1.0  0.55011  0.16120  0.30848  1.0000
  H   H1550     1.0  0.98574  0.17632  0.21307  1.0000
  Fe  Fe132     1.0  0.52898  0.15696  0.35459  1.0000
  C   C905      1.0  0.57109  0.22256  0.06896  1.0000
  H   H1551     1.0  0.97699  0.18703  0.42297  1.0000
  S   S258      1.0  0.54256  0.12601  0.33850  1.0000
  H   H1552     1.0  0.76527  0.03920  0.12057  1.0000
  H   H1553     1.0  0.53784  0.06042  0.29745  1.0000
  H   H1554     1.0  0.54626  0.18043  0.46546  1.0000
  H   H1555     1.0  0.55701  0.08927  0.31390  1.0000
  H   H1556     1.0  0.97498  0.20821  0.32153  1.0000
  S   S259      1.0  0.99413  0.21031  0.45652  1.0000
  H   H1557     1.0  0.77272  0.05541  0.18236  1.0000
  C   C906      1.0  0.73260  0.05067  0.40181  1.0000
  H   H1558     1.0  0.77893  0.04888  0.46677  1.0000
  H   H1559     1.0  0.57234  0.24889  0.03030  1.0000
  H   H1560     1.0  0.98737  0.24960  0.18589  1.0000
  C   C907      1.0  0.70834  0.07444  0.17153  1.0000
  H   H1561     1.0  0.93980  0.21373  0.13616  1.0000
  H   H1562     1.0  0.95784  0.20553  0.34536  1.0000
  S   S260      1.0  0.00902  0.13253  0.28530  1.0000
  H   H1563     1.0  0.70415  0.09061  0.16413  1.0000
  C   C908      1.0  0.59604  0.23337  0.50833  1.0000
  C   C909      1.0  0.59217  0.19276  0.02114  1.0000
  C   C910      1.0  0.60882  0.18029  0.03104  1.0000
  C   C911      1.0  0.56920  0.18266  0.49048  1.0000
  H   H1564     1.0  0.56687  0.15258  0.28526  1.0000
  H   H1565     1.0  0.96581  0.20930  0.20791  1.0000
  H   H1566     1.0  0.70560  0.06161  0.16029  1.0000
  C   C912      1.0  0.98747  0.22072  0.35122  1.0000
  N   N65       1.0  0.74981  0.07394  0.16268  1.0000
  C   C913      1.0  0.77061  0.07178  0.17433  1.0000
  C   C914      1.0  0.93055  0.02595  0.26014  1.0000
  C   C915      1.0  0.61612  0.23391  0.05653  1.0000
  C   C916      1.0  0.74904  0.09517  0.14977  1.0000
  C   C917      1.0  0.77324  0.08838  0.19175  1.0000
  H   H1567     1.0  0.73450  0.18875  0.50200  1.0000
  H   H1568     1.0  0.95341  0.04947  0.29389  1.0000
  S   S261      1.0  0.65375  0.21473  0.50154  1.0000
  H   H1569     1.0  0.73156  0.08668  0.19073  1.0000
  S   S262      1.0  0.83973  0.02610  0.31108  1.0000
  C   C918      1.0  0.76159  0.02234  0.43820  1.0000
  H   H1570     1.0  0.92712  0.02467  0.29459  1.0000
  H   H1571     1.0  0.53817  0.13121  0.28491  1.0000
  H   H1572     1.0  0.92784  0.26386  0.10120  1.0000
  S   S263      1.0  0.98360  0.23992  0.50888  1.0000
  H   H1573     1.0  0.79246  0.21174  0.50990  1.0000
  Fe  Fe133     1.0  0.00632  0.16795  0.29347  1.0000
  H   H1574     1.0  0.73112  0.03329  0.39944  1.0000
  C   C919      1.0  0.80488  0.21001  0.02589  1.0000
  Fe  Fe134     1.0  0.69910  0.01558  0.14376  1.0000
  H   H1575     1.0  0.97502  0.17442  0.18709  1.0000
  C   C920      1.0  0.69345  0.01704  0.24175  1.0000
  H   H1576     1.0  0.52240  0.02590  0.32217  1.0000
  H   H1577     1.0  0.68725  0.04960  0.50079  1.0000
  C   C921      1.0  0.99764  0.22685  0.13832  1.0000
  H   H1578     1.0  0.75414  0.02897  0.45342  1.0000
  H   H1579     1.0  0.54032  0.20324  0.48209  1.0000
  N   N66       1.0  0.00581  0.23343  0.34121  1.0000
  H   H1580     1.0  0.77656  0.06147  0.38191  1.0000
  H   H1581     1.0  0.99390  0.26226  0.22510  1.0000
  H   H1582     1.0  0.99323  0.24438  0.13815  1.0000
  H   H1583     1.0  0.59876  0.02531  0.18949  1.0000
  C   C922      1.0  0.76031  0.25904  0.03565  1.0000
  C   C923      1.0  0.01185  0.24666  0.37956  1.0000
  Fe  Fe135     1.0  0.75438  0.01919  0.50551  1.0000
  H   H1584     1.0  0.70647  0.02842  0.24300  1.0000
  H   H1585     1.0  0.66332  0.06782  0.50030  1.0000
  H   H1586     1.0  0.71619  0.05728  0.40697  1.0000
  H   H1587     1.0  0.53039  0.01845  0.17796  1.0000
  C   C924      1.0  0.78383  0.01950  0.23067  1.0000
  C   C925      1.0  0.00621  0.20089  0.43166  1.0000
  H   H1588     1.0  0.95231  0.03067  0.32866  1.0000
  H   H1589     1.0  0.99550  0.05770  0.29022  1.0000
  H   H1590     1.0  0.98473  0.26230  0.34399  1.0000
  S   S264      1.0  0.83638  0.23994  0.02258  1.0000
  N   N67       1.0  0.96100  0.01621  0.28641  1.0000
  H   H1591     1.0  0.00179  0.19902  0.15887  1.0000
  C   C926      1.0  0.93730  0.01581  0.28211  1.0000
  H   H1592     1.0  0.62913  0.24472  0.05083  1.0000
  C   C927      1.0  0.98932  0.25691  0.30962  1.0000
  C   C928      1.0  0.77550  0.21803  0.51257  1.0000
  H   H1593     1.0  0.53067  0.25603  0.32225  1.0000
  S   S265      1.0  0.84278  0.01423  0.37509  1.0000
  H   H1594     1.0  0.55125  0.26172  0.06437  1.0000
  H   H1595     1.0  0.83918  0.02151  0.42029  1.0000
  H   H1596     1.0  0.51542  0.15023  0.30980  1.0000
  Fe  Fe136     1.0  0.68449  0.15625  0.02131  1.0000
  H   H1597     1.0  0.60801  0.26079  0.07721  1.0000
  C   C929      1.0  0.73902  0.25175  0.02726  1.0000
  C   C930      1.0  0.98640  0.18319  0.19617  1.0000
  C   C931      1.0  0.52375  0.26002  0.30686  1.0000
  H   H1598     1.0  0.75902  0.25629  0.05354  1.0000
  H   H1599     1.0  0.74991  0.25906  0.47523  1.0000
  S   S266      1.0  0.75450  0.01482  0.19954  1.0000
  S   S267      1.0  0.56294  0.01440  0.21845  1.0000
  C   C932      1.0  0.57622  0.26330  0.03896  1.0000
  H   H1600     1.0  0.54954  0.21935  0.51430  1.0000
  C   C933      1.0  0.97334  0.16480  0.57187  1.0000
  Fe  Fe137     1.0  0.65157  0.19991  0.53545  1.0000
  S   S268      1.0  0.62852  0.21744  0.55958  1.0000
  C   C934      1.0  0.66428  0.08147  0.55082  1.0000
  H   H1601     1.0  0.79844  0.02421  0.69426  1.0000
  S   S269      1.0  0.68766  0.19639  0.53801  1.0000
  Fe  Fe138     1.0  0.53527  0.18790  0.64811  1.0000
  S   S270      1.0  0.56053  0.17183  0.62500  1.0000
  S   S271      1.0  0.53573  0.18262  0.68441  1.0000
  C   C935      1.0  0.77462  0.20897  0.00257  1.0000
  C   C936      1.0  0.01036  0.21064  0.58743  1.0000
  S   S272      1.0  0.69881  0.16809  0.98931  1.0000
  H   H1602     1.0  0.59366  0.02679  0.83484  1.0000
  Fe  Fe139     1.0  0.70799  0.13314  0.98307  1.0000
  S   S273      1.0  0.69905  0.12194  0.95019  1.0000
  C   C937      1.0  0.59038  0.09133  0.72757  1.0000
  H   H1603     1.0  0.00273  0.20970  0.82382  1.0000
  S   S274      1.0  0.99558  0.13182  0.72285  1.0000
  S   S275      1.0  0.70028  0.02980  0.84877  1.0000
  S   S276      1.0  0.71967  0.02902  0.91090  1.0000
  H   H1604     1.0  0.81008  0.01911  0.75784  1.0000
  H   H1605     1.0  0.98065  0.20873  0.60704  1.0000
  C   C938      1.0  0.00002  0.07100  0.69336  1.0000
  C   C939      1.0  0.64670  0.17220  0.95164  1.0000
  C   C940      1.0  0.99546  0.22672  0.86112  1.0000
  Fe  Fe140     1.0  0.98728  0.13402  0.68801  1.0000
  H   H1606     1.0  0.73054  0.17553  0.53900  1.0000
  S   S277      1.0  0.96266  0.11597  0.67081  1.0000
  H   H1607     1.0  0.77336  0.13607  0.51816  1.0000
  H   H1608     1.0  0.94540  0.26298  0.83861  1.0000
  H   H1609     1.0  0.65692  0.10677  0.95565  1.0000
  S   S278      1.0  0.99119  0.16995  0.68514  1.0000
  S   S279      1.0  0.89637  0.05139  0.71738  1.0000
  H   H1610     1.0  0.64417  0.11574  0.91850  1.0000
  H   H1611     1.0  0.96722  0.20460  0.89970  1.0000
  H   H1612     1.0  0.98772  0.07268  0.75770  1.0000
  H   H1613     1.0  0.65990  0.17209  0.96297  1.0000
  C   C941      1.0  0.68232  0.06407  0.54545  1.0000
  H   H1614     1.0  0.97120  0.18688  0.86805  1.0000
  C   C942      1.0  0.80217  0.23588  0.99582  1.0000
  C   C943      1.0  0.94473  0.09769  0.68404  1.0000
  C   C944      1.0  0.93515  0.08257  0.67181  1.0000
  C   C945      1.0  0.92060  0.06797  0.68175  1.0000
  C   C946      1.0  0.91522  0.06864  0.70398  1.0000
  C   C947      1.0  0.92492  0.08370  0.71617  1.0000
  C   C948      1.0  0.93973  0.09802  0.70632  1.0000
  H   H1615     1.0  0.93890  0.08219  0.65456  1.0000
  H   H1616     1.0  0.91321  0.05651  0.67218  1.0000
  H   H1617     1.0  0.92082  0.08437  0.73336  1.0000
  H   H1618     1.0  0.94689  0.10962  0.71592  1.0000
  C   C949      1.0  0.71451  0.11169  0.52500  1.0000
  H   H1619     1.0  0.60035  0.19389  0.53203  1.0000
  H   H1620     1.0  0.73988  0.25075  0.00938  1.0000
  H   H1621     1.0  0.67173  0.09731  0.55151  1.0000
  C   C950      1.0  0.59710  0.20688  0.00357  1.0000
  H   H1622     1.0  0.97075  0.20282  0.80461  1.0000
  C   C951      1.0  0.66037  0.04113  0.52460  1.0000
  C   C952      1.0  0.78328  0.01625  0.69932  1.0000
  S   S280      1.0  0.74484  0.01507  0.80659  1.0000
  C   C953      1.0  0.93015  0.25357  0.58465  1.0000
  H   H1623     1.0  0.76908  0.20424  0.54408  1.0000
  H   H1624     1.0  0.77604  0.23401  0.51994  1.0000
  S   S281      1.0  0.52321  0.01800  0.78136  1.0000
  C   C954      1.0  0.96352  0.20324  0.86462  1.0000
  H   H1625     1.0  0.00310  0.19845  0.88296  1.0000
  H   H1626     1.0  0.64496  0.05037  0.52893  1.0000
  H   H1627     1.0  0.79397  0.17660  0.53237  1.0000
  H   H1628     1.0  0.60484  0.04911  0.72293  1.0000
  H   H1629     1.0  0.71212  0.24672  0.53427  1.0000
  Fe  Fe141     1.0  0.51792  0.02434  0.74589  1.0000
  C   C955      1.0  0.70445  0.09579  0.93987  1.0000
  C   C956      1.0  0.71724  0.07994  0.95053  1.0000
  C   C957      1.0  0.72152  0.05954  0.94150  1.0000
  C   C958      1.0  0.71287  0.05467  0.92190  1.0000
  C   C959      1.0  0.69983  0.07044  0.91136  1.0000
  C   C960      1.0  0.69575  0.09093  0.92027  1.0000
  H   H1630     1.0  0.72407  0.08347  0.96559  1.0000
  H   H1631     1.0  0.73167  0.04749  0.94975  1.0000
  H   H1632     1.0  0.69311  0.06693  0.89625  1.0000
  H   H1633     1.0  0.68593  0.10313  0.91185  1.0000
  H   H1634     1.0  0.70877  0.03660  0.53002  1.0000
  H   H1635     1.0  0.53718  0.23574  0.83824  1.0000
  H   H1636     1.0  0.66094  0.13259  0.98099  1.0000
  Fe  Fe142     1.0  0.73049  0.16901  0.00551  1.0000
  H   H1637     1.0  0.57155  0.16346  0.53752  1.0000
  S   S282      1.0  0.74060  0.13475  0.99683  1.0000
  C   C961      1.0  0.63533  0.19527  0.00538  1.0000
  H   H1638     1.0  0.60811  0.16313  0.98571  1.0000
  H   H1639     1.0  0.60768  0.09372  0.72955  1.0000
  H   H1640     1.0  0.94030  0.20849  0.89194  1.0000
  N   N68       1.0  0.63342  0.13356  0.96116  1.0000
  H   H1641     1.0  0.77468  0.23304  0.97643  1.0000
  S   S283      1.0  0.84336  0.02001  0.70901  1.0000
  H   H1642     1.0  0.98629  0.08287  0.69666  1.0000
  Fe  Fe143     1.0  0.54201  0.23250  0.00119  1.0000
  C   C962      1.0  0.60982  0.20450  0.57778  1.0000
  C   C963      1.0  0.59508  0.21718  0.59063  1.0000
  C   C964      1.0  0.57981  0.20748  0.60514  1.0000
  C   C965      1.0  0.57920  0.18496  0.60691  1.0000
  C   C966      1.0  0.59385  0.17231  0.59393  1.0000
  C   C967      1.0  0.60912  0.18201  0.57946  1.0000
  H   H1643     1.0  0.59555  0.23460  0.58945  1.0000
  H   H1644     1.0  0.56866  0.21738  0.61507  1.0000
  H   H1645     1.0  0.59353  0.15489  0.59527  1.0000
  H   H1646     1.0  0.62054  0.17209  0.56985  1.0000
  H   H1647     1.0  0.54558  0.09203  0.70493  1.0000
  C   C968      1.0  0.51656  0.07949  0.72029  1.0000
  H   H1648     1.0  0.55746  0.04708  0.76414  1.0000
  H   H1649     1.0  0.55459  0.25746  0.81390  1.0000
  C   C969      1.0  0.98338  0.07055  0.74081  1.0000
  S   S284      1.0  0.53004  0.05456  0.72785  1.0000
  H   H1650     1.0  0.77418  0.02710  0.71079  1.0000
  S   S285      1.0  0.74929  0.19939  0.99594  1.0000
  H   H1651     1.0  0.98578  0.24164  0.69500  1.0000
  H   H1652     1.0  0.59963  0.15677  0.54110  1.0000
  H   H1653     1.0  0.01026  0.24293  0.72074  1.0000
  H   H1654     1.0  0.65237  0.08347  0.53815  1.0000
  H   H1655     1.0  0.74598  0.15671  0.57251  1.0000
  C   C970      1.0  0.78477  0.02389  0.86944  1.0000
  C   C971      1.0  0.00591  0.23834  0.78502  1.0000
  S   S286      1.0  0.57696  0.22307  0.99046  1.0000
  H   H1656     1.0  0.65950  0.14285  0.93842  1.0000
  H   H1657     1.0  0.73278  0.09861  0.55155  1.0000
  H   H1658     1.0  0.61035  0.07364  0.77411  1.0000
  S   S287      1.0  0.99668  0.21979  0.56412  1.0000
  H   H1659     1.0  0.92002  0.22676  0.55238  1.0000
  H   H1660     1.0  0.58844  0.08276  0.71249  1.0000
  H   H1661     1.0  0.55948  0.05035  0.80343  1.0000
  H   H1662     1.0  0.93668  0.22529  0.52787  1.0000
  H   H1663     1.0  0.75012  0.18488  0.56944  1.0000
  H   H1664     1.0  0.63927  0.08883  0.92769  1.0000
  H   H1665     1.0  0.74536  0.21081  0.52990  1.0000
  H   H1666     1.0  0.62269  0.21872  0.98200  1.0000
  H   H1667     1.0  0.97683  0.16838  0.61682  1.0000
  H   H1668     1.0  0.77857  0.04399  0.90852  1.0000
  C   C972      1.0  0.92717  0.23657  0.53871  1.0000
  H   H1669     1.0  0.61206  0.02827  0.77981  1.0000
  N   N69       1.0  0.67540  0.04139  0.54282  1.0000
  C   C973      1.0  0.59098  0.04424  0.73393  1.0000
  C   C974      1.0  0.63451  0.10606  0.93059  1.0000
  N   N70       1.0  0.77739  0.04619  0.86099  1.0000
  C   C975      1.0  0.58779  0.16255  0.52910  1.0000
  C   C976      1.0  0.78349  0.06202  0.87715  1.0000
  C   C977      1.0  0.78952  0.05042  0.83952  1.0000
  C   C978      1.0  0.75336  0.04651  0.85835  1.0000
  C   C979      1.0  0.51881  0.11555  0.70281  1.0000
  C   C980      1.0  0.77272  0.05915  0.90012  1.0000
  C   C981      1.0  0.78527  0.07266  0.82815  1.0000
  C   C982      1.0  0.74088  0.06885  0.85741  1.0000
  S   S288      1.0  0.64919  0.16605  0.52486  1.0000
  H   H1670     1.0  0.77221  0.16528  0.56341  1.0000
  H   H1671     1.0  0.77986  0.07900  0.87187  1.0000
  H   H1672     1.0  0.80131  0.06099  0.87874  1.0000
  H   H1673     1.0  0.80727  0.04814  0.84137  1.0000
  S   S289      1.0  0.52324  0.22271  0.64968  1.0000
  H   H1674     1.0  0.96624  0.17683  0.58333  1.0000
  H   H1675     1.0  0.74532  0.03705  0.87187  1.0000
  H   H1676     1.0  0.63185  0.04551  0.78662  1.0000
  C   C983      1.0  0.72806  0.09604  0.53535  1.0000
  H   H1677     1.0  0.99864  0.18749  0.84211  1.0000
  H   H1678     1.0  0.75489  0.05960  0.89997  1.0000
  C   C984      1.0  0.98996  0.20121  0.83357  1.0000
  Fe  Fe144     1.0  0.01038  0.23423  0.53174  1.0000
  H   H1679     1.0  0.79611  0.07367  0.81325  1.0000
  H   H1680     1.0  0.78892  0.08630  0.83806  1.0000
  H   H1681     1.0  0.76857  0.07457  0.82265  1.0000
  H   H1682     1.0  0.73006  0.06952  0.84369  1.0000
  H   H1683     1.0  0.75082  0.08303  0.85517  1.0000
  H   H1684     1.0  0.73007  0.07082  0.87222  1.0000
  H   H1685     1.0  0.98601  0.22474  0.67234  1.0000
  H   H1686     1.0  0.57570  0.22180  0.54575  1.0000
  C   C985      1.0  0.97324  0.14142  0.58154  1.0000
  H   H1687     1.0  0.63089  0.09870  0.96461  1.0000
  H   H1688     1.0  0.94362  0.24093  0.58555  1.0000
  C   C986      1.0  0.52062  0.23592  0.83221  1.0000
  S   S290      1.0  0.70479  0.13482  0.53914  1.0000
  C   C987      1.0  0.96477  0.10083  0.60353  1.0000
  C   C988      1.0  0.94909  0.15010  0.62463  1.0000
  C   C989      1.0  0.97589  0.19093  0.81747  1.0000
  H   H1689     1.0  0.01021  0.02734  0.68299  1.0000
  H   H1690     1.0  0.95608  0.13717  0.58303  1.0000
  H   H1691     1.0  0.96341  0.16608  0.55747  1.0000
  C   C990      1.0  0.66379  0.03440  0.56381  1.0000
  C   C991      1.0  0.99567  0.22745  0.76920  1.0000
  H   H1692     1.0  0.98549  0.11139  0.62739  1.0000
  H   H1693     1.0  0.91426  0.24445  0.52896  1.0000
  C   C992      1.0  0.62286  0.04053  0.77281  1.0000
  H   H1694     1.0  0.93839  0.24331  0.85919  1.0000
  H   H1695     1.0  0.74530  0.06479  0.53336  1.0000
  H   H1696     1.0  0.98341  0.08671  0.73253  1.0000
  H   H1697     1.0  0.58613  0.05980  0.80044  1.0000
  C   C993      1.0  0.64309  0.13568  0.98270  1.0000
  H   H1698     1.0  0.94886  0.10866  0.60810  1.0000
  H   H1699     1.0  0.96558  0.08474  0.61214  1.0000
  H   H1700     1.0  0.96562  0.09793  0.58592  1.0000
  H   H1701     1.0  0.93999  0.15543  0.61031  1.0000
  H   H1702     1.0  0.94380  0.16127  0.63771  1.0000
  H   H1703     1.0  0.94454  0.13389  0.63070  1.0000
  C   C994      1.0  0.59348  0.01945  0.73729  1.0000
  N   N71       1.0  0.98403  0.13737  0.60266  1.0000
  H   H1704     1.0  0.80163  0.02379  0.87476  1.0000
  H   H1705     1.0  0.00531  0.23682  0.84946  1.0000
  H   H1706     1.0  0.65193  0.19637  0.99923  1.0000
  H   H1707     1.0  0.99830  0.25286  0.79175  1.0000
  H   H1708     1.0  0.99813  0.19319  0.63972  1.0000
  C   C995      1.0  0.60910  0.13650  0.96255  1.0000
  H   H1709     1.0  0.58282  0.24313  0.51666  1.0000
  C   C996      1.0  0.97447  0.04328  0.70362  1.0000
  H   H1710     1.0  0.57973  0.09100  0.76105  1.0000
  C   C997      1.0  0.57072  0.05944  0.79230  1.0000
  H   H1711     1.0  0.91771  0.25712  0.61800  1.0000
  C   C998      1.0  0.72481  0.25512  0.52530  1.0000
  C   C999      1.0  0.61873  0.20796  0.99569  1.0000
  H   H1712     1.0  0.61710  0.10845  0.92766  1.0000
  H   H1713     1.0  0.58225  0.10763  0.72530  1.0000
  H   H1714     1.0  0.56212  0.07895  0.74420  1.0000
  C   C1000     1.0  0.64321  0.14920  0.94447  1.0000
  H   H1715     1.0  0.63335  0.15097  0.92999  1.0000
  C   C1001     1.0  0.95715  0.21255  0.88710  1.0000
  H   H1716     1.0  0.77685  0.07266  0.91008  1.0000
  C   C1002     1.0  0.78307  0.22653  0.99028  1.0000
  H   H1717     1.0  0.95713  0.24388  0.55116  1.0000
  C   C1003     1.0  0.59902  0.15735  0.97253  1.0000
  H   H1718     1.0  0.63196  0.18031  0.95898  1.0000
  H   H1719     1.0  0.59693  0.17053  0.95999  1.0000
  C   C1004     1.0  0.97366  0.15115  0.62032  1.0000
  C   C1005     1.0  0.99535  0.22874  0.68627  1.0000
  C   C1006     1.0  0.00522  0.20845  0.76028  1.0000
  H   H1720     1.0  0.58831  0.15020  0.51657  1.0000
  S   S291      1.0  0.69164  0.12115  0.01424  1.0000
  C   C1007     1.0  0.94229  0.25330  0.54631  1.0000
  H   H1721     1.0  0.65193  0.18230  0.93725  1.0000
  N   N72       1.0  0.97832  0.21622  0.84955  1.0000
  H   H1722     1.0  0.60154  0.12255  0.97133  1.0000
  H   H1723     1.0  0.60274  0.13631  0.94615  1.0000
  H   H1724     1.0  0.96199  0.25908  0.86098  1.0000
  H   H1725     1.0  0.74607  0.15135  0.53554  1.0000
  H   H1726     1.0  0.54568  0.19242  0.52356  1.0000
  H   H1727     1.0  0.62236  0.06642  0.74903  1.0000
  C   C1008     1.0  0.63938  0.11086  0.95404  1.0000
  H   H1728     1.0  0.91513  0.24461  0.58428  1.0000
  C   C1009     1.0  0.96570  0.23341  0.83686  1.0000
  H   H1729     1.0  0.95380  0.22615  0.82700  1.0000
  H   H1730     1.0  0.94832  0.20045  0.85668  1.0000
  H   H1731     1.0  0.77466  0.01890  0.88408  1.0000
  C   C1010     1.0  0.55805  0.20482  0.52167  1.0000
  S   S292      1.0  0.53480  0.24185  0.70746  1.0000
  H   H1732     1.0  0.98013  0.23370  0.76397  1.0000
  H   H1733     1.0  0.57835  0.03078  0.77499  1.0000
  H   H1734     1.0  0.77713  0.03411  0.77797  1.0000
  H   H1735     1.0  0.98111  0.13073  0.56901  1.0000
  N   N73       1.0  0.99693  0.05033  0.70663  1.0000
  C   C1011     1.0  0.81309  0.22783  0.01385  1.0000
  H   H1736     1.0  0.69418  0.06420  0.55831  1.0000
  C   C1012     1.0  0.75465  0.16902  0.56231  1.0000
  C   C1013     1.0  0.69593  0.02737  0.53889  1.0000
  C   C1014     1.0  0.95229  0.25047  0.85001  1.0000
  C   C1015     1.0  0.00787  0.19698  0.62516  1.0000
  H   H1737     1.0  0.74998  0.03807  0.84357  1.0000
  H   H1738     1.0  0.96227  0.05680  0.70634  1.0000
  H   H1739     1.0  0.52828  0.12759  0.69413  1.0000
  H   H1740     1.0  0.65602  0.07840  0.56692  1.0000
  H   H1741     1.0  0.56728  0.19559  0.55495  1.0000
  Fe  Fe145     1.0  0.87973  0.02229  0.70592  1.0000
  H   H1742     1.0  0.61662  0.12334  0.00440  1.0000
  H   H1743     1.0  0.97677  0.24217  0.82516  1.0000
  H   H1744     1.0  0.57631  0.04727  0.72444  1.0000
  H   H1745     1.0  0.98573  0.17800  0.80899  1.0000
  Fe  Fe146     1.0  0.00294  0.16717  0.71913  1.0000
  C   C1016     1.0  0.52196  0.22442  0.81050  1.0000
  N   N74       1.0  0.58915  0.05760  0.75388  1.0000
  C   C1017     1.0  0.57948  0.07975  0.74756  1.0000
  C   C1018     1.0  0.57370  0.04781  0.77073  1.0000
  C   C1019     1.0  0.98406  0.11363  0.60957  1.0000
  C   C1020     1.0  0.61108  0.06052  0.76230  1.0000
  C   C1021     1.0  0.73520  0.07687  0.52507  1.0000
  C   C1022     1.0  0.78198  0.01717  0.78021  1.0000
  S   S293      1.0  0.99107  0.19489  0.74110  1.0000
  H   H1746     1.0  0.56325  0.07599  0.79023  1.0000
  H   H1747     1.0  0.95003  0.02101  0.71469  1.0000
  Fe  Fe147     1.0  0.52126  0.21689  0.68610  1.0000
  H   H1748     1.0  0.98788  0.06157  0.66244  1.0000
  H   H1749     1.0  0.67330  0.03799  0.57785  1.0000
  C   C1023     1.0  0.76205  0.20318  0.52809  1.0000
  H   H1750     1.0  0.80833  0.24940  0.98622  1.0000
  H   H1751     1.0  0.60760  0.22655  0.52001  1.0000
  H   H1752     1.0  0.95758  0.23026  0.88804  1.0000
  H   H1753     1.0  0.54802  0.21778  0.55311  1.0000
  Fe  Fe148     1.0  0.68543  0.16348  0.52423  1.0000
  C   C1024     1.0  0.99801  0.20583  0.60662  1.0000
  H   H1754     1.0  0.78551  0.03863  0.82747  1.0000
  C   C1025     1.0  0.96705  0.02383  0.71798  1.0000
  C   C1026     1.0  0.56284  0.21028  0.54501  1.0000
  C   C1027     1.0  0.52859  0.09537  0.70901  1.0000
  H   H1755     1.0  0.97275  0.03885  0.68662  1.0000
  H   H1756     1.0  0.96716  0.02677  0.73549  1.0000
  H   H1757     1.0  0.64102  0.15230  0.98854  1.0000
  H   H1758     1.0  0.64798  0.04364  0.56611  1.0000
  H   H1759     1.0  0.98087  0.14694  0.63608  1.0000
  H   H1760     1.0  0.58286  0.15414  0.98028  1.0000
  C   C1028     1.0  0.01138  0.21110  0.87304  1.0000
  C   C1029     1.0  0.74744  0.16854  0.53893  1.0000
  H   H1761     1.0  0.99849  0.10457  0.60221  1.0000
  C   C1030     1.0  0.63432  0.12076  0.00135  1.0000
  H   H1762     1.0  0.99673  0.21405  0.69695  1.0000
  H   H1763     1.0  0.96679  0.06469  0.74163  1.0000
  C   C1031     1.0  0.00011  0.05448  0.72999  1.0000
  H   H1764     1.0  0.63463  0.03271  0.76099  1.0000
  H   H1765     1.0  0.53192  0.23297  0.79776  1.0000
  H   H1766     1.0  0.96162  0.18346  0.82561  1.0000
  H   H1767     1.0  0.52977  0.20801  0.81291  1.0000
  H   H1768     1.0  0.69113  0.07013  0.53055  1.0000
  H   H1769     1.0  0.77440  0.01502  0.68445  1.0000
  H   H1770     1.0  0.79152  0.14031  0.53919  1.0000
  C   C1032     1.0  0.00212  0.06878  0.66861  1.0000
  H   H1771     1.0  0.01090  0.01773  0.70985  1.0000
  H   H1772     1.0  0.63875  0.10350  0.99863  1.0000
  H   H1773     1.0  0.98852  0.23823  0.87307  1.0000
  H   H1774     1.0  0.94530  0.26275  0.61387  1.0000
  C   C1033     1.0  0.78421  0.17013  0.51980  1.0000
  C   C1034     1.0  0.00725  0.14336  0.59883  1.0000
  C   C1035     1.0  0.52290  0.25942  0.72743  1.0000
  N   N75       1.0  0.76141  0.17994  0.52182  1.0000
  H   H1775     1.0  0.00036  0.03916  0.74002  1.0000
  S   S294      1.0  0.51370  0.22509  0.98196  1.0000
  H   H1776     1.0  0.00831  0.16097  0.59506  1.0000
  H   H1777     1.0  0.98979  0.16930  0.56602  1.0000
  S   S295      1.0  0.63912  0.01980  0.84033  1.0000
  H   H1778     1.0  0.95203  0.25485  0.93591  1.0000
  H   H1779     1.0  0.70315  0.02238  0.55452  1.0000
  H   H1780     1.0  0.65549  0.02453  0.52202  1.0000
  C   C1036     1.0  0.59431  0.18458  0.51896  1.0000
  C   C1037     1.0  0.78716  0.14519  0.52247  1.0000
  H   H1781     1.0  0.00305  0.08513  0.66071  1.0000
  H   H1782     1.0  0.97304  0.26420  0.58423  1.0000
  H   H1783     1.0  0.51280  0.24478  0.88124  1.0000
  H   H1784     1.0  0.94744  0.26330  0.53179  1.0000
  H   H1785     1.0  0.67028  0.44020  0.09206  1.0000
  S   S296      1.0  0.65339  0.48937  0.24673  1.0000
  Fe  Fe149     1.0  0.67023  0.49678  0.18591  1.0000
  S   S297      1.0  0.68490  0.46982  0.20703  1.0000
  H   H1786     1.0  0.01099  0.26692  0.33241  1.0000
  Fe  Fe150     1.0  0.65035  0.46589  0.22036  1.0000
  S   S298      1.0  0.63177  0.43654  0.23300  1.0000
  Fe  Fe151     1.0  0.68652  0.49526  0.23207  1.0000
  Fe  Fe152     1.0  0.99431  0.27360  0.50441  1.0000
  S   S299      1.0  0.63576  0.49109  0.19767  1.0000
  H   H1787     1.0  0.76606  0.34783  0.49169  1.0000
  S   S300      1.0  0.54598  0.31829  0.20062  1.0000
  H   H1788     1.0  0.59357  0.26652  0.03629  1.0000
  H   H1789     1.0  0.78989  0.45659  0.25872  1.0000
  H   H1790     1.0  0.57861  0.30526  0.30349  1.0000
  H   H1791     1.0  0.55117  0.47093  0.20580  1.0000
  Fe  Fe153     1.0  0.54579  0.35442  0.19466  1.0000
  S   S301      1.0  0.57617  0.37220  0.18425  1.0000
  H   H1792     1.0  0.59044  0.27149  0.10884  1.0000
  H   H1793     1.0  0.57818  0.37554  0.26750  1.0000
  C   C1038     1.0  0.89264  0.49059  0.32990  1.0000
  H   H1794     1.0  0.51540  0.48112  0.25390  1.0000
  C   C1039     1.0  0.89055  0.31501  0.43863  1.0000
  S   S302      1.0  0.98550  0.29968  0.17819  1.0000
  C   C1040     1.0  0.90644  0.31972  0.50972  1.0000
  Fe  Fe154     1.0  0.98695  0.29756  0.14184  1.0000
  S   S303      1.0  0.96045  0.28134  0.12537  1.0000
  H   H1795     1.0  0.85099  0.49708  0.27904  1.0000
  H   H1796     1.0  0.65332  0.46068  0.10443  1.0000
  S   S304      1.0  0.91050  0.31818  0.04311  1.0000
  S   S305      1.0  0.84985  0.29807  0.03553  1.0000
  S   S306      1.0  0.82428  0.47622  0.35422  1.0000
  H   H1797     1.0  0.96481  0.36150  0.01864  1.0000
  H   H1798     1.0  0.56659  0.32905  0.23903  1.0000
  C   C1041     1.0  0.84234  0.48379  0.28788  1.0000
  Fe  Fe155     1.0  0.82306  0.47985  0.39044  1.0000
  S   S307      1.0  0.83875  0.45736  0.41595  1.0000
  S   S308      1.0  0.99883  0.33082  0.13615  1.0000
  H   H1799     1.0  0.65184  0.45195  0.04187  1.0000
  H   H1800     1.0  0.90752  0.36731  0.05587  1.0000
  S   S309      1.0  0.81189  0.32406  0.49477  1.0000
  C   C1042     1.0  0.93398  0.28525  0.49508  1.0000
  H   H1801     1.0  0.92746  0.50179  0.37518  1.0000
  H   H1802     1.0  0.90804  0.27758  0.06921  1.0000
  Fe  Fe156     1.0  0.81026  0.36001  0.49868  1.0000
  S   S310      1.0  0.79647  0.37925  0.47010  1.0000
  C   C1043     1.0  0.55031  0.48023  0.24872  1.0000
  C   C1044     1.0  0.80504  0.47175  0.29576  1.0000
  H   H1803     1.0  0.59742  0.30604  0.22364  1.0000
  Fe  Fe157     1.0  0.98062  0.48760  0.27859  1.0000
  S   S311      1.0  0.52713  0.30983  0.26125  1.0000
  C   C1045     1.0  0.57332  0.26719  0.11029  1.0000
  H   H1804     1.0  0.79369  0.48074  0.24165  1.0000
  H   H1805     1.0  0.97548  0.26904  0.30918  1.0000
  C   C1046     1.0  0.59145  0.29835  0.29220  1.0000
  H   H1806     1.0  0.59017  0.28053  0.29348  1.0000
  Fe  Fe158     1.0  0.75409  0.48377  0.04388  1.0000
  S   S312      1.0  0.74391  0.47007  0.07753  1.0000
  S   S313      1.0  0.78837  0.49238  0.03477  1.0000
  C   C1047     1.0  0.85855  0.46402  0.28706  1.0000
  S   S314      1.0  0.84285  0.36025  0.51290  1.0000
  H   H1807     1.0  0.68551  0.43514  0.01994  1.0000
  H   H1808     1.0  0.78809  0.47336  0.29076  1.0000
  C   C1048     1.0  0.73581  0.37030  0.47058  1.0000
  H   H1809     1.0  0.98947  0.43381  0.21947  1.0000
  C   C1049     1.0  0.82595  0.43668  0.43168  1.0000
  C   C1050     1.0  0.83616  0.42731  0.44977  1.0000
  C   C1051     1.0  0.82699  0.41020  0.46218  1.0000
  C   C1052     1.0  0.80777  0.40194  0.45626  1.0000
  C   C1053     1.0  0.79745  0.41146  0.43833  1.0000
  C   C1054     1.0  0.80641  0.42883  0.42617  1.0000
  H   H1810     1.0  0.85127  0.43331  0.45415  1.0000
  H   H1811     1.0  0.83502  0.40312  0.47602  1.0000
  H   H1812     1.0  0.78254  0.40524  0.43364  1.0000
  H   H1813     1.0  0.79841  0.43587  0.41228  1.0000
  H   H1814     1.0  0.61082  0.36574  0.24491  1.0000
  H   H1815     1.0  0.82524  0.50214  0.45303  1.0000
  H   H1816     1.0  0.81299  0.49107  0.48965  1.0000
  Fe  Fe159     1.0  0.52089  0.32533  0.22754  1.0000
  S   S315      1.0  0.98570  0.48308  0.24270  1.0000
  H   H1817     1.0  0.52526  0.46418  0.23257  1.0000
  C   C1055     1.0  0.52083  0.31067  0.09171  1.0000
  H   H1818     1.0  0.75233  0.32450  0.49904  1.0000
  C   C1056     1.0  0.94674  0.29187  0.10248  1.0000
  C   C1057     1.0  0.93120  0.27952  0.09382  1.0000
  C   C1058     1.0  0.91993  0.28727  0.07567  1.0000
  C   C1059     1.0  0.92407  0.30752  0.06602  1.0000
  C   C1060     1.0  0.93959  0.31988  0.07468  1.0000
  C   C1061     1.0  0.95089  0.31211  0.09278  1.0000
  C   C1062     1.0  0.79434  0.27925  0.05868  1.0000
  H   H1819     1.0  0.58929  0.45570  0.24635  1.0000
  C   C1063     1.0  0.65781  0.46858  0.04065  1.0000
  H   H1820     1.0  0.96273  0.32180  0.09931  1.0000
  H   H1821     1.0  0.85190  0.44919  0.29457  1.0000
  S   S316      1.0  0.81124  0.34377  0.01497  1.0000
  H   H1822     1.0  0.83379  0.48788  0.50835  1.0000
  C   C1064     1.0  0.95900  0.50209  0.35812  1.0000
  C   C1065     1.0  0.52756  0.47979  0.24006  1.0000
  H   H1823     1.0  0.99345  0.50569  0.38111  1.0000
  C   C1066     1.0  0.75506  0.32126  0.04092  1.0000
  H   H1824     1.0  0.58832  0.50666  0.21604  1.0000
  H   H1825     1.0  0.00291  0.38815  0.11270  1.0000
  Fe  Fe160     1.0  0.51479  0.26478  0.02954  1.0000
  H   H1826     1.0  0.52389  0.49333  0.22850  1.0000
  H   H1827     1.0  0.94955  0.26635  0.19428  1.0000
  H   H1828     1.0  0.60404  0.47644  0.23270  1.0000
  C   C1067     1.0  0.75298  0.33786  0.48666  1.0000
  C   C1068     1.0  0.74951  0.48609  0.31362  1.0000
  Fe  Fe161     1.0  0.88424  0.30384  0.02450  1.0000
  N   N76       1.0  0.67826  0.46941  0.05262  1.0000
  C   C1069     1.0  0.61505  0.42052  0.21859  1.0000
  C   C1070     1.0  0.61936  0.41657  0.19666  1.0000
  C   C1071     1.0  0.60699  0.40207  0.18635  1.0000
  C   C1072     1.0  0.58985  0.39178  0.19761  1.0000
  C   C1073     1.0  0.58479  0.39663  0.21924  1.0000
  C   C1074     1.0  0.59761  0.41058  0.22978  1.0000
  H   H1829     1.0  0.63277  0.42400  0.18787  1.0000
  H   H1830     1.0  0.61101  0.39850  0.16959  1.0000
  H   H1831     1.0  0.57137  0.38922  0.22795  1.0000
  H   H1832     1.0  0.59416  0.41350  0.24675  1.0000
  C   C1075     1.0  0.69718  0.49751  0.13134  1.0000
  C   C1076     1.0  0.70773  0.47714  0.13396  1.0000
  C   C1077     1.0  0.72244  0.46928  0.11755  1.0000
  C   C1078     1.0  0.72701  0.48176  0.09850  1.0000
  H   H1833     1.0  0.58082  0.47881  0.27795  1.0000
  C   C1079     1.0  0.52912  0.27921  0.29504  1.0000
  H   H1834     1.0  0.70421  0.46727  0.14842  1.0000
  H   H1835     1.0  0.73015  0.45330  0.11954  1.0000
  H   H1836     1.0  0.71133  0.46817  0.28161  1.0000
  H   H1837     1.0  0.90730  0.30998  0.43291  1.0000
  C   C1080     1.0  0.92619  0.48975  0.30698  1.0000
  H   H1838     1.0  0.82098  0.44687  0.31655  1.0000
  C   C1081     1.0  0.61825  0.35946  0.25983  1.0000
  C   C1082     1.0  0.51717  0.29175  0.08101  1.0000
  H   H1839     1.0  0.87972  0.35340  0.03904  1.0000
  C   C1083     1.0  0.99841  0.38191  0.20269  1.0000
  H   H1840     1.0  0.69701  0.31928  0.50353  1.0000
  C   C1084     1.0  0.91299  0.48076  0.32387  1.0000
  H   H1841     1.0  0.69647  0.48683  0.02698  1.0000
  S   S317      1.0  0.01139  0.46852  0.28607  1.0000
  H   H1842     1.0  0.52397  0.32538  0.08231  1.0000
  H   H1843     1.0  0.60024  0.46130  0.20137  1.0000
  C   C1085     1.0  0.85544  0.35720  0.07446  1.0000
  H   H1844     1.0  0.68703  0.47440  0.08532  1.0000
  H   H1845     1.0  0.86821  0.34386  0.07328  1.0000
  H   H1846     1.0  0.77538  0.31672  0.46800  1.0000
  S   S318      1.0  0.52005  0.35405  0.17059  1.0000
  H   H1847     1.0  0.89059  0.31482  0.45648  1.0000
  C   C1086     1.0  0.83404  0.34705  0.07032  1.0000
  C   C1087     1.0  0.94279  0.30264  0.50444  1.0000
  C   C1088     1.0  0.99761  0.41811  0.21735  1.0000
  H   H1848     1.0  0.84742  0.37972  0.43858  1.0000
  H   H1849     1.0  0.88271  0.48355  0.34300  1.0000
  H   H1850     1.0  0.99645  0.47229  0.35462  1.0000
  S   S319      1.0  0.51783  0.29259  0.05222  1.0000
  C   C1089     1.0  0.90055  0.37339  0.07148  1.0000
  C   C1090     1.0  0.51326  0.27284  0.09339  1.0000
  H   H1851     1.0  0.78442  0.28997  0.06965  1.0000
  H   H1852     1.0  0.89328  0.38218  0.41680  1.0000
  H   H1853     1.0  0.87714  0.33519  0.41308  1.0000
  H   H1854     1.0  0.59289  0.32971  0.20692  1.0000
  H   H1855     1.0  0.83831  0.34974  0.46109  1.0000
  H   H1856     1.0  0.84429  0.32231  0.42029  1.0000
  H   H1857     1.0  0.72353  0.30802  0.49557  1.0000
  H   H1858     1.0  0.58198  0.35190  0.23617  1.0000
  H   H1859     1.0  0.84713  0.40616  0.04623  1.0000
  C   C1091     1.0  0.69181  0.44849  0.05110  1.0000
  H   H1860     1.0  0.94286  0.33560  0.06744  1.0000
  H   H1861     1.0  0.85414  0.36155  0.02992  1.0000
  H   H1862     1.0  0.90487  0.27150  0.48590  1.0000
  H   H1863     1.0  0.83215  0.33254  0.08125  1.0000
  C   C1092     1.0  0.57359  0.34166  0.27926  1.0000
  C   C1093     1.0  0.76091  0.32754  0.46518  1.0000
  H   H1864     1.0  0.61582  0.33448  0.28433  1.0000
  C   C1094     1.0  0.87870  0.38386  0.02113  1.0000
  C   C1095     1.0  0.00644  0.48423  0.34552  1.0000
  H   H1865     1.0  0.55385  0.36418  0.25926  1.0000
  C   C1096     1.0  0.71708  0.38768  0.46919  1.0000
  H   H1866     1.0  0.82935  0.38537  0.04833  1.0000
  H   H1867     1.0  0.79404  0.50340  0.26868  1.0000
  C   C1097     1.0  0.59313  0.48336  0.26513  1.0000
  H   H1868     1.0  0.81998  0.51037  0.25769  1.0000
  H   H1869     1.0  0.84496  0.51394  0.47942  1.0000
  H   H1870     1.0  0.70659  0.44926  0.06043  1.0000
  H   H1871     1.0  0.83394  0.34162  0.05356  1.0000
  H   H1872     1.0  0.88228  0.39658  0.44049  1.0000
  H   H1873     1.0  0.62452  0.32484  0.25908  1.0000
  H   H1874     1.0  0.89449  0.38877  0.02616  1.0000
  C   C1098     1.0  0.71696  0.50240  0.09615  1.0000
  C   C1099     1.0  0.61232  0.33629  0.26692  1.0000
  H   H1875     1.0  0.91282  0.34421  0.46110  1.0000
  H   H1876     1.0  0.85626  0.36734  0.41419  1.0000
  H   H1877     1.0  0.58592  0.48374  0.18777  1.0000
  H   H1878     1.0  0.71149  0.42777  0.02954  1.0000
  C   C1100     1.0  0.59825  0.32386  0.22305  1.0000
  H   H1879     1.0  0.66455  0.51232  0.04455  1.0000
  H   H1880     1.0  0.91277  0.38341  0.07799  1.0000
  H   H1881     1.0  0.81499  0.40598  0.07632  1.0000
  H   H1882     1.0  0.82165  0.32359  0.43938  1.0000
  H   H1883     1.0  0.81983  0.35827  0.07374  1.0000
  S   S320      1.0  0.52243  0.36183  0.22267  1.0000
  H   H1884     1.0  0.78172  0.37891  0.02745  1.0000
  C   C1101     1.0  0.78938  0.28385  0.03476  1.0000
  C   C1102     1.0  0.83512  0.33293  0.43191  1.0000
  H   H1885     1.0  0.70764  0.48659  0.05244  1.0000
  H   H1886     1.0  0.63591  0.35954  0.25567  1.0000
  C   C1103     1.0  0.58445  0.46743  0.19557  1.0000
  H   H1887     1.0  0.55219  0.46514  0.25906  1.0000
  H   H1888     1.0  0.72214  0.40071  0.45741  1.0000
  H   H1889     1.0  0.58050  0.45641  0.18285  1.0000
  H   H1890     1.0  0.60900  0.47680  0.27064  1.0000
  Fe  Fe162     1.0  0.00037  0.33204  0.17230  1.0000
  N   N77       1.0  0.58957  0.33018  0.26370  1.0000
  H   H1891     1.0  0.64453  0.47900  0.04829  1.0000
  C   C1104     1.0  0.74324  0.51083  0.28265  1.0000
  H   H1892     1.0  0.72050  0.51228  0.08171  1.0000
  H   H1893     1.0  0.71612  0.33643  0.46051  1.0000
  C   C1105     1.0  0.56515  0.36466  0.27246  1.0000
  C   C1106     1.0  0.99260  0.50319  0.33566  1.0000
  H   H1894     1.0  0.86473  0.46105  0.27020  1.0000
  N   N78       1.0  0.82049  0.48150  0.27887  1.0000
  H   H1895     1.0  0.00372  0.51389  0.32617  1.0000
  H   H1896     1.0  0.90811  0.36671  0.47791  1.0000
  H   H1897     1.0  0.54992  0.49384  0.25996  1.0000
  H   H1898     1.0  0.90935  0.37111  0.44921  1.0000
  C   C1107     1.0  0.69194  0.48773  0.04453  1.0000
  C   C1108     1.0  0.72308  0.47862  0.28715  1.0000
  H   H1899     1.0  0.74872  0.31737  0.45895  1.0000
  C   C1109     1.0  0.58848  0.30615  0.26848  1.0000
  C   C1110     1.0  0.65962  0.45471  0.08847  1.0000
  H   H1900     1.0  0.59392  0.50114  0.26383  1.0000
  H   H1901     1.0  0.57269  0.30041  0.26402  1.0000
  H   H1902     1.0  0.60099  0.29689  0.25854  1.0000
  H   H1903     1.0  0.61428  0.37085  0.27302  1.0000
  H   H1904     1.0  0.80514  0.45522  0.23346  1.0000
  C   C1111     1.0  0.81129  0.50384  0.27261  1.0000
  C   C1112     1.0  0.80975  0.44803  0.30319  1.0000
  H   H1905     1.0  0.56280  0.28066  0.10373  1.0000
  C   C1113     1.0  0.87935  0.38731  0.06898  1.0000
  S   S321      1.0  0.98620  0.36346  0.18659  1.0000
  C   C1114     1.0  0.98786  0.40225  0.20612  1.0000
  C   C1115     1.0  0.86820  0.36767  0.03763  1.0000
  C   C1116     1.0  0.73398  0.47289  0.30615  1.0000
  H   H1906     1.0  0.89923  0.34583  0.42378  1.0000
  H   H1907     1.0  0.94448  0.27191  0.48938  1.0000
  H   H1908     1.0  0.87127  0.40187  0.41487  1.0000
  C   C1117     1.0  0.75806  0.27697  0.50255  1.0000
  H   H1909     1.0  0.89832  0.35950  0.08314  1.0000
  H   H1910     1.0  0.85321  0.32468  0.45991  1.0000
  C   C1118     1.0  0.72779  0.49755  0.27512  1.0000
  S   S322      1.0  0.78850  0.49258  0.39183  1.0000
  Fe  Fe163     1.0  0.51825  0.31869  0.17877  1.0000
  S   S323      1.0  0.67692  0.50735  0.15043  1.0000
  C   C1119     1.0  0.80150  0.46533  0.24774  1.0000
  C   C1120     1.0  0.70191  0.51009  0.11237  1.0000
  N   N79       1.0  0.73199  0.35129  0.48616  1.0000
  C   C1121     1.0  0.52017  0.28494  0.27505  1.0000
  N   N80       1.0  0.76616  0.28195  0.02949  1.0000
  H   H1911     1.0  0.81151  0.28234  0.06076  1.0000
  H   H1912     1.0  0.87079  0.37235  0.47006  1.0000
  C   C1122     1.0  0.67231  0.47265  0.07632  1.0000
  H   H1913     1.0  0.84036  0.41738  0.08111  1.0000
  H   H1914     1.0  0.87932  0.30286  0.43407  1.0000
  H   H1915     1.0  0.73940  0.36494  0.45378  1.0000
  H   H1916     1.0  0.75028  0.37878  0.47482  1.0000
  H   H1917     1.0  0.55882  0.33230  0.28228  1.0000
  S   S324      1.0  0.86956  0.30083  0.49795  1.0000
  C   C1123     1.0  0.52053  0.31077  0.11452  1.0000
  H   H1918     1.0  0.88318  0.40228  0.05929  1.0000
  H   H1919     1.0  0.80009  0.27259  0.02490  1.0000
  H   H1920     1.0  0.83370  0.39124  0.09247  1.0000
  H   H1921     1.0  0.84043  0.48853  0.30506  1.0000
  H   H1922     1.0  0.80432  0.48102  0.31075  1.0000
  H   H1923     1.0  0.95277  0.33661  0.02611  1.0000
  H   H1924     1.0  0.52340  0.32544  0.12249  1.0000
  C   C1124     1.0  0.82275  0.46876  0.25858  1.0000
  H   H1925     1.0  0.96459  0.48681  0.36657  1.0000
  S   S325      1.0  0.76365  0.47729  0.33704  1.0000
  H   H1926     1.0  0.76606  0.33983  0.45270  1.0000
  C   C1125     1.0  0.56648  0.46714  0.21381  1.0000
  H   H1927     1.0  0.68299  0.43471  0.05853  1.0000
  H   H1928     1.0  0.56542  0.45006  0.22001  1.0000
  H   H1929     1.0  0.66222  0.48786  0.07862  1.0000
  H   H1930     1.0  0.83051  0.45245  0.26144  1.0000
  C   C1126     1.0  0.90368  0.36003  0.46250  1.0000
  H   H1931     1.0  0.79432  0.44110  0.30931  1.0000
  H   H1932     1.0  0.91859  0.46615  0.33245  1.0000
  H   H1933     1.0  0.60757  0.30173  0.29763  1.0000
  C   C1127     1.0  0.58930  0.47353  0.24325  1.0000
  N   N81       1.0  0.86135  0.37613  0.05957  1.0000
  H   H1934     1.0  0.78235  0.41871  0.02126  1.0000
  C   C1128     1.0  0.92895  0.31997  0.51153  1.0000
  H   H1935     1.0  0.74942  0.29177  0.05969  1.0000
  H   H1936     1.0  0.57317  0.27780  0.06930  1.0000
  H   H1937     1.0  0.77229  0.32485  0.03905  1.0000
  N   N82       1.0  0.56916  0.48174  0.23226  1.0000
  H   H1938     1.0  0.61519  0.32843  0.22376  1.0000
  H   H1939     1.0  0.64560  0.45021  0.07968  1.0000
  H   H1940     1.0  0.73044  0.45801  0.31507  1.0000
  C   C1129     1.0  0.84245  0.39221  0.05701  1.0000
  H   H1941     1.0  0.87424  0.39300  0.08541  1.0000
  H   H1942     1.0  0.85477  0.36151  0.09175  1.0000
  H   H1943     1.0  0.58045  0.34269  0.29538  1.0000
  H   H1944     1.0  0.87628  0.34487  0.47680  1.0000
  H   H1945     1.0  0.73406  0.29585  0.03704  1.0000
  H   H1946     1.0  0.70867  0.36617  0.50927  1.0000
  Fe  Fe164     1.0  0.79040  0.49184  0.35526  1.0000
  H   H1947     1.0  0.79537  0.29998  0.03017  1.0000
  H   H1948     1.0  0.74921  0.32860  0.05638  1.0000
  H   H1949     1.0  0.70257  0.30639  0.47813  1.0000
  C   C1130     1.0  0.68181  0.51068  0.04825  1.0000
  H   H1950     1.0  0.70239  0.38120  0.46314  1.0000
  S   S326      1.0  0.95206  0.47710  0.30094  1.0000
  H   H1951     1.0  0.97217  0.40593  0.19972  1.0000
  H   H1952     1.0  0.55573  0.37192  0.28639  1.0000
  H   H1953     1.0  0.00815  0.39575  0.14959  1.0000
  S   S327      1.0  0.75296  0.45985  0.01764  1.0000
  H   H1954     1.0  0.56855  0.26561  0.12785  1.0000
  H   H1955     1.0  0.82755  0.34719  0.42329  1.0000
  H   H1956     1.0  0.54013  0.28979  0.30159  1.0000
  C   C1131     1.0  0.89765  0.30216  0.50061  1.0000
  H   H1957     1.0  0.56718  0.27727  0.03127  1.0000
  N   N83       1.0  0.86907  0.35147  0.44299  1.0000
  C   C1132     1.0  0.86174  0.37154  0.43022  1.0000
  C   C1133     1.0  0.87903  0.35735  0.46358  1.0000
  C   C1134     1.0  0.84909  0.33961  0.45006  1.0000
  C   C1135     1.0  0.88420  0.33762  0.42885  1.0000
  C   C1136     1.0  0.87842  0.38878  0.42550  1.0000
  H   H1958     1.0  0.98325  0.49627  0.32315  1.0000
  H   H1959     1.0  0.69837  0.34892  0.47961  1.0000
  C   C1137     1.0  0.91153  0.28507  0.49313  1.0000
  H   H1960     1.0  0.81598  0.43749  0.29007  1.0000
  C   C1138     1.0  0.83255  0.40221  0.07801  1.0000
  H   H1961     1.0  0.71317  0.39544  0.48485  1.0000
  S   S328      1.0  0.51493  0.29120  0.15569  1.0000
  H   H1962     1.0  0.77103  0.28504  0.49373  1.0000
  C   C1139     1.0  0.70912  0.31715  0.48976  1.0000
  C   C1140     1.0  0.75079  0.29695  0.04225  1.0000
  C   C1141     1.0  0.79503  0.38573  0.01795  1.0000
  Fe  Fe165     1.0  0.00395  0.51382  0.24212  1.0000
  C   C1142     1.0  0.71386  0.33906  0.47820  1.0000
  C   C1143     1.0  0.58318  0.33447  0.24072  1.0000
  H   H1963     1.0  0.87280  0.46748  0.29616  1.0000
  H   H1964     1.0  0.83382  0.47678  0.24630  1.0000
  H   H1965     1.0  0.86804  0.39839  0.01789  1.0000
  H   H1966     1.0  0.95114  0.49680  0.34370  1.0000
  C   C1144     1.0  0.51648  0.29189  0.12690  1.0000
  C   C1145     1.0  0.69913  0.44136  0.02821  1.0000
  C   C1146     1.0  0.82135  0.49959  0.50186  1.0000
  Fe  Fe166     1.0  0.84308  0.32403  0.51153  1.0000
  H   H1967     1.0  0.74631  0.32972  0.02762  1.0000
  C   C1147     1.0  0.75386  0.50528  0.30185  1.0000
  C   C1148     1.0  0.51297  0.27293  0.11618  1.0000
  H   H1968     1.0  0.80335  0.51090  0.43699  1.0000
  C   C1149     1.0  0.72591  0.36012  0.50821  1.0000
  S   S329      1.0  0.71560  0.50515  0.25029  1.0000
  C   C1150     1.0  0.57224  0.50486  0.22469  1.0000
  C   C1151     1.0  0.88525  0.50951  0.31900  1.0000
  C   C1152     1.0  0.91873  0.50857  0.29594  1.0000
  S   S330      1.0  0.73950  0.51097  0.02347  1.0000
  Fe  Fe167     1.0  0.83519  0.51024  0.35181  1.0000
  S   S331      1.0  0.83665  0.51293  0.38782  1.0000
  H   H1969     1.0  0.54803  0.50528  0.19938  1.0000
  C   C1153     1.0  0.94115  0.51266  0.37322  1.0000
  H   H1970     1.0  0.70674  0.45421  0.01801  1.0000
  S   S332      1.0  0.97079  0.30301  0.50829  1.0000
  C   C1154     1.0  0.65894  0.47569  0.01636  1.0000
  H   H1971     1.0  0.73553  0.37434  0.51096  1.0000
  H   H1972     1.0  0.92408  0.47038  0.81416  1.0000
  H   H1973     1.0  0.55172  0.33874  0.98807  1.0000
  Fe  Fe168     1.0  0.53913  0.36769  0.80515  1.0000
  C   C1155     1.0  0.01196  0.40450  0.83216  1.0000
  S   S333      1.0  0.56476  0.38852  0.78861  1.0000
  C   C1156     1.0  0.92454  0.34664  0.96705  1.0000
  S   S334      1.0  0.54354  0.31291  0.86716  1.0000
  S   S335      1.0  0.54202  0.33129  0.80731  1.0000
  H   H1974     1.0  0.95833  0.41520  0.76564  1.0000
  Fe  Fe169     1.0  0.65416  0.46171  0.82984  1.0000
  S   S336      1.0  0.64895  0.48361  0.85786  1.0000
  S   S337      1.0  0.63982  0.42886  0.83631  1.0000
  Fe  Fe170     1.0  0.67854  0.49554  0.80197  1.0000
  C   C1157     1.0  0.74148  0.42475  0.66366  1.0000
  Fe  Fe171     1.0  0.68323  0.49263  0.85106  1.0000
  S   S338      1.0  0.71047  0.49694  0.87381  1.0000
  S   S339      1.0  0.68955  0.46851  0.82476  1.0000
  S   S340      1.0  0.64355  0.48674  0.80493  1.0000
  H   H1975     1.0  0.51854  0.28928  0.68178  1.0000
  C   C1158     1.0  0.91459  0.50787  0.73118  1.0000
  Fe  Fe172     1.0  0.63956  0.50914  0.83268  1.0000
  S   S341      1.0  0.83970  0.29377  0.98408  1.0000
  Fe  Fe173     1.0  0.87504  0.29972  0.97676  1.0000
  S   S342      1.0  0.88983  0.30768  0.94303  1.0000
  C   C1159     1.0  0.93074  0.32649  0.98138  1.0000
  C   C1160     1.0  0.86685  0.46821  0.59188  1.0000
  S   S343      1.0  0.99540  0.28680  0.83917  1.0000
  Fe  Fe174     1.0  0.00154  0.28680  0.87472  1.0000
  H   H1976     1.0  0.95007  0.29528  0.55129  1.0000
  Fe  Fe175     1.0  0.82018  0.47752  0.64579  1.0000
  S   S344      1.0  0.79594  0.50178  0.66062  1.0000
  S   S345      1.0  0.80989  0.46141  0.61586  1.0000
  Fe  Fe176     1.0  0.85495  0.48762  0.67699  1.0000
  S   S346      1.0  0.88955  0.47505  0.68323  1.0000
  Fe  Fe177     1.0  0.80687  0.48897  0.69298  1.0000
  S   S347      1.0  0.78585  0.47593  0.72202  1.0000
  S   S348      1.0  0.82939  0.46310  0.67794  1.0000
  S   S349      1.0  0.84728  0.50024  0.64339  1.0000
  Fe  Fe178     1.0  0.82415  0.35551  0.54511  1.0000
  S   S350      1.0  0.83352  0.36887  0.57694  1.0000
  S   S351      1.0  0.82661  0.31906  0.54442  1.0000
  Fe  Fe179     1.0  0.98829  0.50020  0.75841  1.0000
  H   H1977     1.0  0.53292  0.34463  0.95042  1.0000
  C   C1161     1.0  0.81248  0.41741  0.00226  1.0000
  Fe  Fe180     1.0  0.74103  0.48776  0.99636  1.0000
  H   H1978     1.0  0.77125  0.44100  0.63578  1.0000
  S   S352      1.0  0.77429  0.49627  0.98403  1.0000
  H   H1979     1.0  0.77172  0.32018  0.00110  1.0000
  C   C1162     1.0  0.52864  0.33239  0.96330  1.0000
  H   H1980     1.0  0.87146  0.46035  0.64276  1.0000
  S   S353      1.0  0.88706  0.27582  0.00225  1.0000
  C   C1163     1.0  0.81615  0.43534  0.60570  1.0000
  C   C1164     1.0  0.82577  0.41854  0.61815  1.0000
  C   C1165     1.0  0.83072  0.39822  0.60916  1.0000
  C   C1166     1.0  0.82594  0.39441  0.58775  1.0000
  C   C1167     1.0  0.81590  0.41110  0.57548  1.0000
  C   C1168     1.0  0.81104  0.43144  0.58444  1.0000
  H   H1981     1.0  0.82943  0.42116  0.63466  1.0000
  H   H1982     1.0  0.83837  0.38535  0.61881  1.0000
  H   H1983     1.0  0.81211  0.40840  0.55901  1.0000
  H   H1984     1.0  0.80342  0.44429  0.57473  1.0000
  C   C1169     1.0  0.90706  0.48472  0.70202  1.0000
  C   C1170     1.0  0.94461  0.26994  0.92988  1.0000
  C   C1171     1.0  0.94914  0.28480  0.56634  1.0000
  C   C1172     1.0  0.93591  0.49897  0.73177  1.0000
  C   C1173     1.0  0.94273  0.48277  0.71746  1.0000
  C   C1174     1.0  0.92835  0.47568  0.70271  1.0000
  C   C1175     1.0  0.58856  0.46709  0.85402  1.0000
  H   H1985     1.0  0.98191  0.29021  0.57489  1.0000
  H   H1986     1.0  0.95901  0.47565  0.71782  1.0000
  H   H1987     1.0  0.60719  0.47147  0.88200  1.0000
  C   C1176     1.0  0.91484  0.29711  0.93163  1.0000
  C   C1177     1.0  0.92519  0.30866  0.91434  1.0000
  C   C1178     1.0  0.94531  0.30108  0.90506  1.0000
  C   C1179     1.0  0.95513  0.28169  0.91284  1.0000
  H   H1988     1.0  0.91764  0.32363  0.90817  1.0000
  H   H1989     1.0  0.95319  0.31023  0.89191  1.0000
  C   C1180     1.0  0.93348  0.46322  0.61798  1.0000
  H   H1990     1.0  0.95977  0.40183  0.80244  1.0000
  H   H1991     1.0  0.98064  0.26959  0.55601  1.0000
  H   H1992     1.0  0.94317  0.48331  0.79613  1.0000
  C   C1181     1.0  0.00558  0.37236  0.81285  1.0000
  C   C1182     1.0  0.97241  0.27647  0.57073  1.0000
  C   C1183     1.0  0.72039  0.49735  0.75635  1.0000
  S   S354      1.0  0.99505  0.49985  0.79384  1.0000
  C   C1184     1.0  0.76049  0.48464  0.73465  1.0000
  C   C1185     1.0  0.75112  0.47147  0.75135  1.0000
  C   C1186     1.0  0.73124  0.47776  0.76215  1.0000
  H   H1993     1.0  0.75935  0.45630  0.75601  1.0000
  H   H1994     1.0  0.72424  0.46742  0.77488  1.0000
  C   C1187     1.0  0.71017  0.49216  0.90239  1.0000
  H   H1995     1.0  0.89839  0.47606  0.79077  1.0000
  H   H1996     1.0  0.92228  0.44172  0.76291  1.0000
  C   C1188     1.0  0.71116  0.48736  0.94819  1.0000
  C   C1189     1.0  0.73041  0.48827  0.93534  1.0000
  C   C1190     1.0  0.72988  0.49088  0.91262  1.0000
  H   H1997     1.0  0.95176  0.45292  0.83584  1.0000
  H   H1998     1.0  0.97317  0.46293  0.81742  1.0000
  H   H1999     1.0  0.74571  0.48724  0.94294  1.0000
  H   H2000     1.0  0.53182  0.44136  0.83317  1.0000
  C   C1191     1.0  0.58350  0.40214  0.80283  1.0000
  C   C1192     1.0  0.58555  0.39848  0.82507  1.0000
  C   C1193     1.0  0.60247  0.40743  0.83528  1.0000
  C   C1194     1.0  0.61716  0.42048  0.82349  1.0000
  C   C1195     1.0  0.61444  0.42505  0.80149  1.0000
  C   C1196     1.0  0.59780  0.41573  0.79118  1.0000
  H   H2001     1.0  0.57466  0.38806  0.83424  1.0000
  H   H2002     1.0  0.60452  0.40378  0.85230  1.0000
  H   H2003     1.0  0.62572  0.43499  0.79223  1.0000
  H   H2004     1.0  0.59633  0.41864  0.77396  1.0000
  C   C1197     1.0  0.52901  0.30434  0.89114  1.0000
  C   C1198     1.0  0.53933  0.29015  0.90607  1.0000
  C   C1199     1.0  0.79259  0.51055  0.83457  1.0000
  C   C1200     1.0  0.96395  0.43118  0.75990  1.0000
  H   H2005     1.0  0.75119  0.46536  0.61138  1.0000
  C   C1201     1.0  0.98845  0.30964  0.95922  1.0000
  C   C1202     1.0  0.96568  0.33944  0.99215  1.0000
  C   C1203     1.0  0.63367  0.35756  0.81639  1.0000
  H   H2006     1.0  0.52737  0.42854  0.85900  1.0000
  H   H2007     1.0  0.96729  0.42454  0.81718  1.0000
  H   H2008     1.0  0.80982  0.50380  0.51558  1.0000
  C   C1204     1.0  0.96186  0.44785  0.77781  1.0000
  H   H2009     1.0  0.95553  0.48110  0.83222  1.0000
  C   C1205     1.0  0.92460  0.27766  0.93933  1.0000
  H   H2010     1.0  0.65963  0.30441  0.78214  1.0000
  H   H2011     1.0  0.52337  0.39315  0.98310  1.0000
  C   C1206     1.0  0.72964  0.51039  0.73950  1.0000
  H   H2012     1.0  0.56521  0.43336  0.85589  1.0000
  H   H2013     1.0  0.90680  0.47109  0.64036  1.0000
  H   H2014     1.0  0.56354  0.32641  0.96409  1.0000
  C   C1207     1.0  0.65085  0.37153  0.80458  1.0000
  C   C1208     1.0  0.52811  0.28265  0.92510  1.0000
  H   H2015     1.0  0.93605  0.35957  0.96714  1.0000
  H   H2016     1.0  0.52784  0.51149  0.84350  1.0000
  H   H2017     1.0  0.67196  0.46708  0.00670  1.0000
  C   C1209     1.0  0.74197  0.48527  0.67600  1.0000
  H   H2018     1.0  0.86626  0.48059  0.57840  1.0000
  H   H2019     1.0  0.73117  0.47250  0.63199  1.0000
  N   N84       1.0  0.93327  0.26753  0.56425  1.0000
  H   H2020     1.0  0.93864  0.35711  0.00976  1.0000
  Fe  Fe181     1.0  0.79527  0.32163  0.52770  1.0000
  H   H2021     1.0  0.71565  0.41931  0.68885  1.0000
  H   H2022     1.0  0.96787  0.35293  0.97994  1.0000
  H   H2023     1.0  0.79739  0.49328  0.83286  1.0000
  H   H2024     1.0  0.91091  0.30867  0.57429  1.0000
  C   C1210     1.0  0.82899  0.38106  0.99714  1.0000
  C   C1211     1.0  0.75329  0.28116  0.52439  1.0000
  C   C1212     1.0  0.78680  0.42432  0.67562  1.0000
  H   H2025     1.0  0.66882  0.32455  0.79916  1.0000
  H   H2026     1.0  0.89996  0.26545  0.55588  1.0000
  C   C1213     1.0  0.53233  0.44389  0.85073  1.0000
  H   H2027     1.0  0.73365  0.47408  0.83865  1.0000
  H   H2028     1.0  0.52942  0.26833  0.85722  1.0000
  H   H2029     1.0  0.58314  0.32993  0.84468  1.0000
  H   H2030     1.0  0.73416  0.44509  0.62254  1.0000
  H   H2031     1.0  0.58027  0.48301  0.88499  1.0000
  C   C1214     1.0  0.76383  0.28561  0.00544  1.0000
  H   H2032     1.0  0.99872  0.32240  0.96423  1.0000
  H   H2033     1.0  0.89459  0.28769  0.58751  1.0000
  H   H2034     1.0  0.94184  0.44932  0.60975  1.0000
  H   H2035     1.0  0.72135  0.35227  0.54272  1.0000
  S   S355      1.0  0.71090  0.48628  0.97697  1.0000
  H   H2036     1.0  0.92785  0.46936  0.76388  1.0000
  H   H2037     1.0  0.58928  0.35429  0.81358  1.0000
  C   C1215     1.0  0.94015  0.46789  0.80552  1.0000
  S   S356      1.0  0.83319  0.51267  0.69388  1.0000
  C   C1216     1.0  0.90013  0.45992  0.78359  1.0000
  C   C1217     1.0  0.95365  0.41522  0.81289  1.0000
  H   H2038     1.0  0.66088  0.49329  0.01389  1.0000
  C   C1218     1.0  0.52503  0.37767  0.97461  1.0000
  C   C1219     1.0  0.91206  0.27782  0.55729  1.0000
  S   S357      1.0  0.52793  0.37089  0.83990  1.0000
  H   H2039     1.0  0.67564  0.49174  0.90759  1.0000
  C   C1220     1.0  0.54921  0.32686  0.97571  1.0000
  S   S358      1.0  0.76737  0.30008  0.53836  1.0000
  H   H2040     1.0  0.92204  0.43174  0.81547  1.0000
  H   H2041     1.0  0.88189  0.37592  0.00543  1.0000
  H   H2042     1.0  0.73024  0.45673  0.69213  1.0000
  H   H2043     1.0  0.55607  0.28488  0.90288  1.0000
  H   H2044     1.0  0.88897  0.46056  0.77014  1.0000
  Fe  Fe182     1.0  0.78622  0.46983  0.00739  1.0000
  H   H2045     1.0  0.66323  0.36200  0.79499  1.0000
  H   H2046     1.0  0.76988  0.46791  0.64411  1.0000
  N   N85       1.0  0.94033  0.44941  0.79040  1.0000
  H   H2047     1.0  0.89469  0.44730  0.79555  1.0000
  C   C1221     1.0  0.00597  0.38496  0.79341  1.0000
  H   H2048     1.0  0.92304  0.34215  0.95003  1.0000
  H   H2049     1.0  0.76526  0.44285  0.69731  1.0000
  N   N86       1.0  0.62168  0.34294  0.80287  1.0000
  C   C1222     1.0  0.59993  0.33925  0.81428  1.0000
  C   C1223     1.0  0.61755  0.35377  0.78111  1.0000
  C   C1224     1.0  0.63369  0.32126  0.80083  1.0000
  C   C1225     1.0  0.60011  0.33157  0.83834  1.0000
  S   S359      1.0  0.53476  0.26839  0.99824  1.0000
  H   H2050     1.0  0.53622  0.30264  0.75589  1.0000
  C   C1226     1.0  0.59014  0.46898  0.87864  1.0000
  H   H2051     1.0  0.59132  0.32692  0.80611  1.0000
  H   H2052     1.0  0.63269  0.35753  0.77172  1.0000
  H   H2053     1.0  0.60898  0.36981  0.78334  1.0000
  H   H2054     1.0  0.62220  0.36937  0.82460  1.0000
  H   H2055     1.0  0.63686  0.31400  0.81714  1.0000
  H   H2056     1.0  0.62369  0.30921  0.79387  1.0000
  H   H2057     1.0  0.60849  0.31546  0.84054  1.0000
  H   H2058     1.0  0.60707  0.34336  0.84857  1.0000
  C   C1227     1.0  0.54608  0.27353  0.81542  1.0000
  Fe  Fe183     1.0  0.52790  0.33464  0.84141  1.0000
  H   H2059     1.0  0.97449  0.29881  0.00241  1.0000
  H   H2060     1.0  0.52385  0.48503  0.83483  1.0000
  Fe  Fe184     1.0  0.83998  0.32024  0.00780  1.0000
  H   H2061     1.0  0.00783  0.37281  0.84735  1.0000
  H   H2062     1.0  0.95512  0.43713  0.74555  1.0000
  H   H2063     1.0  0.72233  0.32887  0.52688  1.0000
  S   S360      1.0  0.79147  0.35781  0.53093  1.0000
  N   N87       1.0  0.56598  0.46722  0.84608  1.0000
  H   H2064     1.0  0.58577  0.45389  0.88768  1.0000
  C   C1228     1.0  0.56794  0.46330  0.82217  1.0000
  C   C1229     1.0  0.55495  0.44861  0.85771  1.0000
  C   C1230     1.0  0.55436  0.48863  0.85124  1.0000
  N   N88       1.0  0.75176  0.44597  0.66550  1.0000
  H   H2065     1.0  0.92219  0.32787  0.99757  1.0000
  S   S361      1.0  0.00139  0.34442  0.81210  1.0000
  C   C1231     1.0  0.69093  0.49070  0.91519  1.0000
  C   C1232     1.0  0.90027  0.50088  0.71636  1.0000
  H   H2066     1.0  0.51471  0.28968  0.81559  1.0000
  H   H2067     1.0  0.55198  0.46436  0.81494  1.0000
  H   H2068     1.0  0.57440  0.44650  0.81933  1.0000
  H   H2069     1.0  0.93568  0.33351  0.51872  1.0000
  H   H2070     1.0  0.55289  0.45111  0.87539  1.0000
  H   H2071     1.0  0.54722  0.48818  0.86816  1.0000
  C   C1233     1.0  0.95739  0.30148  0.99804  1.0000
  H   H2072     1.0  0.99184  0.29445  0.96876  1.0000
  H   H2073     1.0  0.91662  0.26845  0.95237  1.0000
  S   S362      1.0  0.00926  0.47005  0.75191  1.0000
  C   C1234     1.0  0.77584  0.30437  0.99399  1.0000
  H   H2074     1.0  0.59975  0.47316  0.80982  1.0000
  C   C1235     1.0  0.90073  0.29497  0.57186  1.0000
  H   H2075     1.0  0.74663  0.34234  0.53116  1.0000
  C   C1236     1.0  0.52134  0.27271  0.81458  1.0000
  H   H2076     1.0  0.72869  0.49525  0.68409  1.0000
  H   H2077     1.0  0.79517  0.51365  0.85175  1.0000
  C   C1237     1.0  0.73655  0.27019  0.53563  1.0000
  H   H2078     1.0  0.98242  0.33412  0.99625  1.0000
  H   H2079     1.0  0.57912  0.47778  0.79107  1.0000
  C   C1238     1.0  0.96430  0.31703  0.96064  1.0000
  C   C1239     1.0  0.53531  0.27556  0.73500  1.0000
  H   H2080     1.0  0.58713  0.34034  0.77241  1.0000
  H   H2081     1.0  0.52005  0.45646  0.85610  1.0000
  S   S363      1.0  0.95265  0.50763  0.75179  1.0000
  H   H2082     1.0  0.84191  0.37067  0.99020  1.0000
  H   H2083     1.0  0.93379  0.46314  0.69175  1.0000
  C   C1240     1.0  0.93486  0.42858  0.80248  1.0000
  H   H2084     1.0  0.55214  0.28369  0.80141  1.0000
  H   H2085     1.0  0.94485  0.46879  0.62953  1.0000
  H   H2086     1.0  0.59810  0.45217  0.84930  1.0000
  H   H2087     1.0  0.92284  0.31294  0.97441  1.0000
  N   N89       1.0  0.89474  0.44957  0.61770  1.0000
  C   C1241     1.0  0.91259  0.45682  0.63085  1.0000
  C   C1242     1.0  0.87564  0.44572  0.63331  1.0000
  C   C1243     1.0  0.90295  0.42942  0.60638  1.0000
  Fe  Fe185     1.0  0.85137  0.27178  0.01123  1.0000
  C   C1244     1.0  0.87838  0.42652  0.64977  1.0000
  C   C1245     1.0  0.88645  0.41735  0.59441  1.0000
  H   H2088     1.0  0.91765  0.44408  0.64297  1.0000
  H   H2089     1.0  0.86083  0.44309  0.62492  1.0000
  H   H2090     1.0  0.91598  0.43322  0.59394  1.0000
  H   H2091     1.0  0.91111  0.41761  0.61770  1.0000
  H   H2092     1.0  0.00371  0.37741  0.77833  1.0000
  H   H2093     1.0  0.60357  0.35026  0.75020  1.0000
  H   H2094     1.0  0.89087  0.42909  0.66134  1.0000
  H   H2095     1.0  0.86297  0.42504  0.65964  1.0000
  H   H2096     1.0  0.88183  0.41097  0.64174  1.0000
  H   H2097     1.0  0.88612  0.42304  0.57718  1.0000
  H   H2098     1.0  0.86991  0.41862  0.60187  1.0000
  H   H2099     1.0  0.89098  0.39976  0.59497  1.0000
  H   H2100     1.0  0.92794  0.41750  0.79131  1.0000
  H   H2101     1.0  0.96262  0.33182  0.94991  1.0000
  H   H2102     1.0  0.55183  0.27686  0.72870  1.0000
  H   H2103     1.0  0.74650  0.28818  0.00181  1.0000
  H   H2104     1.0  0.84253  0.41051  0.98407  1.0000
  H   H2105     1.0  0.95531  0.30489  0.95274  1.0000
  C   C1246     1.0  0.92338  0.45504  0.77422  1.0000
  C   C1247     1.0  0.95621  0.46570  0.82360  1.0000
  H   H2106     1.0  0.76993  0.27097  0.99670  1.0000
  H   H2107     1.0  0.64324  0.38441  0.79408  1.0000
  H   H2108     1.0  0.99337  0.30633  0.94207  1.0000
  H   H2109     1.0  0.97548  0.44416  0.78836  1.0000
  H   H2110     1.0  0.96536  0.46383  0.76988  1.0000
  H   H2111     1.0  0.96005  0.27484  0.97506  1.0000
  H   H2112     1.0  0.79389  0.42476  0.65877  1.0000
  H   H2113     1.0  0.67645  0.48770  0.94769  1.0000
  H   H2114     1.0  0.86299  0.45274  0.58524  1.0000
  H   H2115     1.0  0.73268  0.27329  0.55251  1.0000
  C   C1248     1.0  0.88926  0.46772  0.60152  1.0000
  H   H2116     1.0  0.93054  0.47686  0.60618  1.0000
  H   H2117     1.0  0.55068  0.28116  0.83023  1.0000
  C   C1249     1.0  0.82929  0.40364  0.99365  1.0000
  H   H2118     1.0  0.77144  0.30590  0.97684  1.0000
  H   H2119     1.0  0.56589  0.50184  0.85070  1.0000
  H   H2120     1.0  0.75493  0.45375  0.83851  1.0000
  H   H2121     1.0  0.79357  0.30108  0.99358  1.0000
  H   H2122     1.0  0.75628  0.48622  0.68569  1.0000
  H   H2123     1.0  0.65932  0.38000  0.81681  1.0000
  H   H2124     1.0  0.64166  0.34814  0.82970  1.0000
  C   C1250     1.0  0.76003  0.45356  0.64325  1.0000
  H   H2125     1.0  0.65658  0.33168  0.77382  1.0000
  H   H2126     1.0  0.90876  0.35395  0.97324  1.0000
  C   C1251     1.0  0.65593  0.32081  0.78840  1.0000
  H   H2127     1.0  0.80034  0.42503  0.68649  1.0000
  H   H2128     1.0  0.90141  0.46780  0.58758  1.0000
  H   H2129     1.0  0.98120  0.42887  0.75425  1.0000
  H   H2130     1.0  0.01065  0.41656  0.77818  1.0000
  C   C1252     1.0  0.74284  0.45936  0.62665  1.0000
  H   H2131     1.0  0.88994  0.48371  0.60900  1.0000
  C   C1253     1.0  0.58255  0.47854  0.80842  1.0000
  H   H2132     1.0  0.51355  0.28959  0.65300  1.0000
  H   H2133     1.0  0.94743  0.40717  0.82818  1.0000
  H   H2134     1.0  0.93299  0.28064  0.98655  1.0000
  H   H2135     1.0  0.51897  0.35818  0.00334  1.0000
  N   N90       1.0  0.95455  0.32112  0.98302  1.0000
  H   H2136     1.0  0.88629  0.30201  0.56373  1.0000
  H   H2137     1.0  0.59759  0.48067  0.84636  1.0000
  C   C1254     1.0  0.69145  0.48840  0.93795  1.0000
  S   S364      1.0  0.87398  0.32792  0.99839  1.0000
  H   H2138     1.0  0.74213  0.41737  0.69922  1.0000
  H   H2139     1.0  0.61144  0.32491  0.76297  1.0000
  H   H2140     1.0  0.53621  0.27173  0.93648  1.0000
  C   C1255     1.0  0.73503  0.46186  0.67515  1.0000
  S   S365      1.0  0.69546  0.50637  0.76964  1.0000
  C   C1256     1.0  0.95036  0.27998  0.98973  1.0000
  H   H2141     1.0  0.77940  0.40865  0.67941  1.0000
  C   C1257     1.0  0.60417  0.34128  0.76608  1.0000
  H   H2142     1.0  0.73406  0.39614  0.68391  1.0000
  H   H2143     1.0  0.72732  0.42687  0.65344  1.0000
  H   H2144     1.0  0.75242  0.41288  0.65476  1.0000
  C   C1258     1.0  0.77065  0.44369  0.67985  1.0000
  H   H2145     1.0  0.94400  0.29607  0.57923  1.0000
  H   H2146     1.0  0.78023  0.45835  0.67816  1.0000
  C   C1259     1.0  0.53621  0.49689  0.83647  1.0000
  H   H2147     1.0  0.74525  0.49277  0.65967  1.0000
  C   C1260     1.0  0.73282  0.41399  0.68518  1.0000
  H   H2148     1.0  0.85392  0.47326  0.60401  1.0000
  H   H2149     1.0  0.51800  0.26794  0.79802  1.0000
  H   H2150     1.0  0.71984  0.46225  0.66641  1.0000
  C   C1261     1.0  0.74960  0.50417  0.72880  1.0000
  S   S366      1.0  0.98072  0.27177  0.90234  1.0000
  H   H2151     1.0  0.54281  0.50185  0.82013  1.0000
  H   H2152     1.0  0.54863  0.31058  0.98374  1.0000
  H   H2153     1.0  0.54247  0.37266  0.97382  1.0000
  C   C1262     1.0  0.52651  0.29020  0.75045  1.0000
  H   H2154     1.0  0.77819  0.47413  0.81442  1.0000
  H   H2155     1.0  0.74487  0.49190  0.90291  1.0000
  C   C1263     1.0  0.81189  0.37201  0.00940  1.0000
  H   H2156     1.0  0.92445  0.28239  0.60569  1.0000
  H   H2157     1.0  0.75335  0.47273  0.80252  1.0000
  H   H2158     1.0  0.51848  0.32113  0.00585  1.0000
  C   C1264     1.0  0.00842  0.38227  0.83226  1.0000
  C   C1265     1.0  0.00976  0.40716  0.79328  1.0000
  S   S367      1.0  0.81385  0.44575  0.99774  1.0000
  H   H2159     1.0  0.91432  0.28557  0.54086  1.0000
  H   H2160     1.0  0.52658  0.26679  0.66599  1.0000
  H   H2161     1.0  0.58021  0.49559  0.81317  1.0000
  H   H2162     1.0  0.64349  0.47230  0.00932  1.0000
  H   H2163     1.0  0.52538  0.31774  0.95449  1.0000
  C   C1266     1.0  0.72923  0.34476  0.52811  1.0000
  H   H2164     1.0  0.88397  0.50798  0.71608  1.0000
  C   C1267     1.0  0.75144  0.47151  0.83740  1.0000
  H   H2165     1.0  0.75845  0.47835  0.85151  1.0000
  H   H2166     1.0  0.78758  0.48233  0.77857  1.0000
  C   C1268     1.0  0.76119  0.48057  0.81565  1.0000
  H   H2167     1.0  0.51992  0.38114  0.95800  1.0000
  C   C1269     1.0  0.51368  0.27974  0.66832  1.0000
  H   H2168     1.0  0.95283  0.26705  0.00245  1.0000
  Fe  Fe186     1.0  0.01215  0.31836  0.83686  1.0000
  H   H2169     1.0  0.94802  0.30393  0.01370  1.0000
  C   C1270     1.0  0.95462  0.34902  0.01283  1.0000
  H   H2170     1.0  0.80333  0.49904  0.79429  1.0000
  N   N91       1.0  0.75927  0.50483  0.81226  1.0000
  H   H2171     1.0  0.72694  0.50096  0.80199  1.0000
  C   C1271     1.0  0.79056  0.49915  0.78259  1.0000
  H   H2172     1.0  0.79695  0.50711  0.76730  1.0000
  H   H2173     1.0  0.72755  0.50908  0.82895  1.0000
  H   H2174     1.0  0.75809  0.50946  0.77742  1.0000
  C   C1272     1.0  0.73545  0.51143  0.81248  1.0000
  C   C1273     1.0  0.92944  0.26503  0.60642  1.0000
  C   C1274     1.0  0.76944  0.51148  0.79036  1.0000
  H   H2175     1.0  0.89592  0.33301  0.51548  1.0000
  C   C1275     1.0  0.79533  0.40833  0.01446  1.0000
  H   H2176     1.0  0.95002  0.62116  0.15760  1.0000
  S   S368      1.0  0.52948  0.67429  0.20172  1.0000
  N   N92       1.0  0.97783  0.51571  0.35144  1.0000
  Fe  Fe187     1.0  0.53343  0.63777  0.20627  1.0000
  S   S369      1.0  0.56605  0.62060  0.19721  1.0000
  H   H2177     1.0  0.67356  0.72340  0.43549  1.0000
  C   C1276     1.0  0.66051  0.53488  0.28420  1.0000
  H   H2178     1.0  0.65550  0.57996  0.29137  1.0000
  H   H2179     1.0  0.87511  0.75507  0.03425  1.0000
  Fe  Fe188     1.0  0.99995  0.70901  0.18319  1.0000
  S   S370      1.0  0.98406  0.67730  0.18767  1.0000
  H   H2180     1.0  0.52806  0.73327  0.38877  1.0000
  H   H2181     1.0  0.64373  0.60624  0.25402  1.0000
  C   C1277     1.0  0.90559  0.63009  0.05501  1.0000
  Fe  Fe189     1.0  0.98132  0.67792  0.15155  1.0000
  S   S371      1.0  0.94974  0.66665  0.13969  1.0000
  H   H2182     1.0  0.88184  0.59560  0.05487  1.0000
  Fe  Fe190     1.0  0.88103  0.69000  0.03291  1.0000
  H   H2183     1.0  0.74700  0.52555  0.27357  1.0000
  S   S372      1.0  0.90769  0.70207  0.05251  1.0000
  H   H2184     1.0  0.69067  0.52255  0.03770  1.0000
  S   S373      1.0  0.98838  0.73664  0.20533  1.0000
  H   H2185     1.0  0.89423  0.64290  0.06178  1.0000
  H   H2186     1.0  0.64447  0.53409  0.27737  1.0000
  H   H2187     1.0  0.82862  0.52585  0.29186  1.0000
  S   S374      1.0  0.84881  0.67799  0.04470  1.0000
  S   S375      1.0  0.81697  0.67368  0.49484  1.0000
  C   C1278     1.0  0.79126  0.74448  0.01948  1.0000
  Fe  Fe191     1.0  0.82159  0.63873  0.48559  1.0000
  S   S376      1.0  0.83249  0.62664  0.45240  1.0000
  H   H2188     1.0  0.93256  0.65063  0.21033  1.0000
  C   C1279     1.0  0.92696  0.64117  0.04887  1.0000
  S   S377      1.0  0.78634  0.55108  0.40955  1.0000
  C   C1280     1.0  0.75801  0.72132  0.50537  1.0000
  H   H2189     1.0  0.68338  0.51524  0.06521  1.0000
  H   H2190     1.0  0.55440  0.66129  0.02009  1.0000
  C   C1281     1.0  0.71393  0.56837  0.24975  1.0000
  S   S378      1.0  0.99654  0.51942  0.27753  1.0000
  H   H2191     1.0  0.65716  0.59901  0.22823  1.0000
  S   S379      1.0  0.99781  0.53877  0.21455  1.0000
  H   H2192     1.0  0.63808  0.56680  0.26253  1.0000
  H   H2193     1.0  0.91394  0.62259  0.17716  1.0000
  H   H2194     1.0  0.92166  0.57870  0.21436  1.0000
  H   H2195     1.0  0.92465  0.59544  0.04306  1.0000
  C   C1282     1.0  0.68947  0.58007  0.29745  1.0000
  C   C1283     1.0  0.81941  0.60591  0.44035  1.0000
  C   C1284     1.0  0.83088  0.59329  0.42471  1.0000
  C   C1285     1.0  0.82107  0.57636  0.41515  1.0000
  C   C1286     1.0  0.79950  0.57225  0.42081  1.0000
  C   C1287     1.0  0.78796  0.58507  0.43621  1.0000
  C   C1288     1.0  0.79789  0.60168  0.44609  1.0000
  H   H2196     1.0  0.84750  0.59653  0.42008  1.0000
  H   H2197     1.0  0.83010  0.56667  0.40325  1.0000
  H   H2198     1.0  0.77124  0.58207  0.44059  1.0000
  H   H2199     1.0  0.78881  0.61139  0.45794  1.0000
  H   H2200     1.0  0.76545  0.51579  0.30750  1.0000
  H   H2201     1.0  0.97625  0.61959  0.16852  1.0000
  H   H2202     1.0  0.89274  0.53303  0.29343  1.0000
  N   N93       1.0  0.67300  0.56873  0.26211  1.0000
  C   C1289     1.0  0.73100  0.75064  0.51373  1.0000
  H   H2203     1.0  0.96242  0.54802  0.35253  1.0000
  H   H2204     1.0  0.92666  0.62213  0.23522  1.0000
  H   H2205     1.0  0.86312  0.62926  0.07123  1.0000
  S   S380      1.0  0.80244  0.71825  0.02691  1.0000
  H   H2206     1.0  0.88533  0.67331  0.49629  1.0000
  C   C1290     1.0  0.93826  0.67673  0.11543  1.0000
  C   C1291     1.0  0.91781  0.67022  0.11056  1.0000
  C   C1292     1.0  0.90834  0.67744  0.09119  1.0000
  C   C1293     1.0  0.91919  0.69150  0.07660  1.0000
  C   C1294     1.0  0.93949  0.69825  0.08165  1.0000
  C   C1295     1.0  0.94905  0.69083  0.10087  1.0000
  H   H2207     1.0  0.90917  0.65972  0.12199  1.0000
  H   H2208     1.0  0.89245  0.67263  0.08781  1.0000
  H   H2209     1.0  0.94791  0.70930  0.07059  1.0000
  H   H2210     1.0  0.96475  0.69607  0.10444  1.0000
  H   H2211     1.0  0.94442  0.59864  0.23548  1.0000
  C   C1296     1.0  0.91356  0.60108  0.11093  1.0000
  H   H2212     1.0  0.55693  0.71699  0.30410  1.0000
  H   H2213     1.0  0.84194  0.52582  0.50490  1.0000
  H   H2214     1.0  0.91035  0.56354  0.06086  1.0000
  S   S381      1.0  0.79289  0.62790  0.50602  1.0000
  H   H2215     1.0  0.98519  0.64034  0.23701  1.0000
  H   H2216     1.0  0.90081  0.63911  0.19800  1.0000
  H   H2217     1.0  0.71136  0.72785  0.44513  1.0000
  C   C1297     1.0  0.83145  0.55428  0.47192  1.0000
  C   C1298     1.0  0.97403  0.75152  0.41618  1.0000
  H   H2218     1.0  0.52020  0.65094  0.03729  1.0000
  C   C1299     1.0  0.97046  0.53684  0.34059  1.0000
  C   C1300     1.0  0.84607  0.56586  0.48662  1.0000
  H   H2219     1.0  0.71666  0.55115  0.24569  1.0000
  H   H2220     1.0  0.97835  0.53026  0.38249  1.0000
  H   H2221     1.0  0.89881  0.62578  0.03956  1.0000
  C   C1301     1.0  0.96165  0.61059  0.16668  1.0000
  C   C1302     1.0  0.53187  0.63831  0.03077  1.0000
  H   H2222     1.0  0.00892  0.74049  0.29818  1.0000
  H   H2223     1.0  0.65190  0.55982  0.23763  1.0000
  H   H2224     1.0  0.56288  0.52855  0.19969  1.0000
  H   H2225     1.0  0.96146  0.58803  0.19447  1.0000
  H   H2226     1.0  0.69017  0.59442  0.24498  1.0000
  H   H2227     1.0  0.92884  0.62509  0.09101  1.0000
  H   H2228     1.0  0.66620  0.51792  0.28807  1.0000
  C   C1303     1.0  0.57793  0.59624  0.20836  1.0000
  C   C1304     1.0  0.57024  0.58686  0.22806  1.0000
  C   C1305     1.0  0.58108  0.56825  0.23693  1.0000
  C   C1306     1.0  0.59947  0.55865  0.22607  1.0000
  C   C1307     1.0  0.60683  0.56766  0.20612  1.0000
  C   C1308     1.0  0.59621  0.58647  0.19744  1.0000
  H   H2229     1.0  0.55629  0.59429  0.23668  1.0000
  H   H2230     1.0  0.57532  0.56147  0.25243  1.0000
  H   H2231     1.0  0.62098  0.56048  0.19760  1.0000
  H   H2232     1.0  0.60230  0.59364  0.18221  1.0000
  H   H2233     1.0  0.93450  0.52833  0.36656  1.0000
  H   H2234     1.0  0.92168  0.68207  0.48058  1.0000
  C   C1309     1.0  0.86626  0.61406  0.08085  1.0000
  C   C1310     1.0  0.95115  0.60202  0.18836  1.0000
  H   H2235     1.0  0.63379  0.72568  0.44418  1.0000
  H   H2236     1.0  0.68284  0.58368  0.31404  1.0000
  C   C1311     1.0  0.83343  0.57780  0.02787  1.0000
  H   H2237     1.0  0.52343  0.62419  0.02592  1.0000
  C   C1312     1.0  0.81749  0.56354  0.02326  1.0000
  H   H2238     1.0  0.77247  0.71558  0.49633  1.0000
  H   H2239     1.0  0.66300  0.76343  0.48255  1.0000
  H   H2240     1.0  0.70213  0.59161  0.29274  1.0000
  S   S382      1.0  0.67366  0.52238  0.21004  1.0000
  H   H2241     1.0  0.78077  0.56728  0.48182  1.0000
  H   H2242     1.0  0.64731  0.73700  0.50271  1.0000
  C   C1313     1.0  0.93380  0.60901  0.22486  1.0000
  H   H2243     1.0  0.99995  0.56933  0.17856  1.0000
  H   H2244     1.0  0.86236  0.55754  0.48680  1.0000
  C   C1314     1.0  0.65183  0.57114  0.25115  1.0000
  C   C1315     1.0  0.96824  0.63860  0.23271  1.0000
  H   H2245     1.0  0.86812  0.61764  0.09800  1.0000
  C   C1316     1.0  0.51657  0.67868  0.09546  1.0000
  H   H2246     1.0  0.93620  0.59477  0.18394  1.0000
  C   C1317     1.0  0.69044  0.57644  0.24602  1.0000
  H   H2247     1.0  0.70346  0.71160  0.49260  1.0000
  C   C1318     1.0  0.00170  0.75368  0.22221  1.0000
  H   H2248     1.0  0.95945  0.63207  0.24742  1.0000
  H   H2249     1.0  0.92869  0.51560  0.28286  1.0000
  H   H2250     1.0  0.91328  0.65085  0.17353  1.0000
  C   C1319     1.0  0.89537  0.68332  0.50494  1.0000
  C   C1320     1.0  0.52907  0.73909  0.30823  1.0000
  H   H2251     1.0  0.93900  0.56229  0.06184  1.0000
  H   H2252     1.0  0.54170  0.63262  0.04454  1.0000
  H   H2253     1.0  0.78841  0.73625  0.08138  1.0000
  C   C1321     1.0  0.94093  0.71822  0.43012  1.0000
  N   N94       1.0  0.84265  0.74902  0.07132  1.0000
  H   H2254     1.0  0.93663  0.73809  0.45756  1.0000
  C   C1322     1.0  0.51599  0.72304  0.38232  1.0000
  C   C1323     1.0  0.00653  0.57673  0.19206  1.0000
  H   H2255     1.0  0.83963  0.76351  0.10264  1.0000
  S   S383      1.0  0.85982  0.52255  0.32601  1.0000
  H   H2256     1.0  0.97748  0.60813  0.21890  1.0000
  H   H2257     1.0  0.54203  0.52441  0.22057  1.0000
  C   C1324     1.0  0.67706  0.54502  0.26783  1.0000
  C   C1325     1.0  0.67522  0.74967  0.48386  1.0000
  H   H2258     1.0  0.80221  0.58139  0.49278  1.0000
  H   H2259     1.0  0.52762  0.66673  0.08801  1.0000
  C   C1326     1.0  0.70492  0.73097  0.46196  1.0000
  H   H2260     1.0  0.91001  0.60936  0.12641  1.0000
  C   C1327     1.0  0.80319  0.54638  0.50102  1.0000
  H   H2261     1.0  0.76025  0.73847  0.03542  1.0000
  C   C1328     1.0  0.91600  0.68834  0.49605  1.0000
  C   C1329     1.0  0.66484  0.73276  0.49979  1.0000
  H   H2262     1.0  0.69700  0.56357  0.29907  1.0000
  C   C1330     1.0  0.68461  0.76223  0.44662  1.0000
  C   C1331     1.0  0.91526  0.59463  0.22021  1.0000
  S   S384      1.0  0.95501  0.70738  0.49466  1.0000
  H   H2263     1.0  0.66690  0.71580  0.49508  1.0000
  H   H2264     1.0  0.66574  0.71257  0.46113  1.0000
  H   H2265     1.0  0.86362  0.73531  0.10914  1.0000
  N   N95       1.0  0.90722  0.61049  0.07034  1.0000
  H   H2266     1.0  0.96164  0.65509  0.22838  1.0000
  C   C1332     1.0  0.88570  0.60023  0.07134  1.0000
  C   C1333     1.0  0.92932  0.70139  0.50695  1.0000
  C   C1334     1.0  0.91271  0.61805  0.09206  1.0000
  H   H2267     1.0  0.92288  0.56814  0.08582  1.0000
  S   S385      1.0  0.99442  0.71089  0.14746  1.0000
  H   H2268     1.0  0.71875  0.57046  0.26637  1.0000
  H   H2269     1.0  0.64352  0.75178  0.43776  1.0000
  H   H2270     1.0  0.85147  0.60482  0.08034  1.0000
  H   H2271     1.0  0.93859  0.70298  0.43988  1.0000
  H   H2272     1.0  0.79063  0.53489  0.50640  1.0000
  H   H2273     1.0  0.92985  0.59278  0.11138  1.0000
  S   S386      1.0  0.01117  0.73023  0.48428  1.0000
  H   H2274     1.0  0.96739  0.74476  0.40175  1.0000
  S   S387      1.0  0.61325  0.53610  0.23861  1.0000
  H   H2275     1.0  0.90158  0.63173  0.09731  1.0000
  H   H2276     1.0  0.97717  0.75962  0.46018  1.0000
  H   H2277     1.0  0.93864  0.63066  0.03936  1.0000
  Fe  Fe192     1.0  0.83479  0.69991  0.01823  1.0000
  H   H2278     1.0  0.85538  0.70989  0.09949  1.0000
  H   H2279     1.0  0.75865  0.75375  0.49132  1.0000
  H   H2280     1.0  0.93873  0.53053  0.32862  1.0000
  H   H2281     1.0  0.68745  0.57138  0.22940  1.0000
  H   H2282     1.0  0.98460  0.54551  0.33346  1.0000
  C   C1335     1.0  0.83172  0.59979  0.02114  1.0000
  C   C1336     1.0  0.89836  0.51841  0.30197  1.0000
  Fe  Fe193     1.0  0.98166  0.72690  0.50707  1.0000
  H   H2283     1.0  0.81901  0.54670  0.02853  1.0000
  H   H2284     1.0  0.79390  0.54237  0.45864  1.0000
  H   H2285     1.0  0.94746  0.64806  0.18567  1.0000
  H   H2286     1.0  0.84768  0.58281  0.48037  1.0000
  H   H2287     1.0  0.00615  0.73657  0.40961  1.0000
  H   H2288     1.0  0.69313  0.54141  0.27441  1.0000
  C   C1337     1.0  0.81557  0.51667  0.44750  1.0000
  S   S388      1.0  0.54044  0.75284  0.32923  1.0000
  H   H2289     1.0  0.54162  0.69612  0.27571  1.0000
  H   H2290     1.0  0.98864  0.71937  0.42537  1.0000
  C   C1338     1.0  0.98929  0.52063  0.37127  1.0000
  H   H2291     1.0  0.82580  0.52736  0.43700  1.0000
  H   H2292     1.0  0.88285  0.71679  0.09657  1.0000
  H   H2293     1.0  0.97898  0.63081  0.20051  1.0000
  H   H2294     1.0  0.82443  0.72983  0.09538  1.0000
  N   N96       1.0  0.81773  0.53728  0.48282  1.0000
  S   S389      1.0  0.85231  0.61701  0.02741  1.0000
  S   S390      1.0  0.80136  0.52573  0.35107  1.0000
  H   H2295     1.0  0.62964  0.59347  0.23440  1.0000
  C   C1339     1.0  0.00820  0.56490  0.21184  1.0000
  C   C1340     1.0  0.67098  0.58239  0.28177  1.0000
  H   H2296     1.0  0.90398  0.60230  0.20869  1.0000
  C   C1341     1.0  0.53232  0.70965  0.28267  1.0000
  H   H2297     1.0  0.72381  0.70275  0.47334  1.0000
  H   H2298     1.0  0.93146  0.75693  0.41081  1.0000
  H   H2299     1.0  0.88589  0.58481  0.08102  1.0000
  H   H2300     1.0  0.96129  0.52349  0.31012  1.0000
  Fe  Fe194     1.0  0.80212  0.52552  0.38743  1.0000
  C   C1342     1.0  0.75003  0.74292  0.50245  1.0000
  C   C1343     1.0  0.83254  0.51958  0.49194  1.0000
  C   C1344     1.0  0.81192  0.52115  0.28974  1.0000
  C   C1345     1.0  0.54095  0.72154  0.29880  1.0000
  H   H2301     1.0  0.83934  0.74109  0.03808  1.0000
  C   C1346     1.0  0.86261  0.73414  0.07341  1.0000
  C   C1347     1.0  0.55506  0.51609  0.21046  1.0000
  C   C1348     1.0  0.70680  0.70936  0.47507  1.0000
  C   C1349     1.0  0.93624  0.63919  0.19710  1.0000
  H   H2302     1.0  0.72505  0.57756  0.23860  1.0000
  H   H2303     1.0  0.00034  0.74155  0.43759  1.0000
  H   H2304     1.0  0.69388  0.52591  0.11024  1.0000
  H   H2305     1.0  0.94105  0.60039  0.06478  1.0000
  H   H2306     1.0  0.52465  0.71388  0.36915  1.0000
  C   C1350     1.0  0.96856  0.62335  0.21360  1.0000
  H   H2307     1.0  0.63677  0.74348  0.46557  1.0000
  H   H2308     1.0  0.80262  0.53600  0.28427  1.0000
  N   N97       1.0  0.94688  0.61839  0.20569  1.0000
  H   H2309     1.0  0.66972  0.59984  0.27681  1.0000
  H   H2310     1.0  0.90569  0.59122  0.23558  1.0000
  H   H2311     1.0  0.95279  0.55114  0.31369  1.0000
  H   H2312     1.0  0.95227  0.71421  0.41623  1.0000
  C   C1351     1.0  0.79100  0.56815  0.49580  1.0000
  H   H2313     1.0  0.69670  0.69691  0.46921  1.0000
  H   H2314     1.0  0.65896  0.54336  0.29965  1.0000
  H   H2315     1.0  0.96661  0.59671  0.15641  1.0000
  N   N98       1.0  0.68283  0.74241  0.46160  1.0000
  C   C1352     1.0  0.95496  0.53514  0.32226  1.0000
  C   C1353     1.0  0.00122  0.75971  0.32517  1.0000
  H   H2316     1.0  0.71661  0.74128  0.46902  1.0000
  H   H2317     1.0  0.68706  0.75761  0.42941  1.0000
  C   C1354     1.0  0.66731  0.72813  0.45195  1.0000
  H   H2318     1.0  0.93467  0.64688  0.06310  1.0000
  H   H2319     1.0  0.67758  0.53551  0.25299  1.0000
  C   C1355     1.0  0.86597  0.72361  0.09608  1.0000
  C   C1356     1.0  0.91481  0.63755  0.18605  1.0000
  Fe  Fe195     1.0  0.85434  0.65315  0.01905  1.0000
  H   H2320     1.0  0.68871  0.75631  0.49202  1.0000
  C   C1357     1.0  0.94959  0.73490  0.44476  1.0000
  H   H2321     1.0  0.87753  0.74285  0.06895  1.0000
  C   C1358     1.0  0.99325  0.73635  0.42281  1.0000
  H   H2322     1.0  0.84716  0.57175  0.03669  1.0000
  C   C1359     1.0  0.64561  0.59389  0.24155  1.0000
  C   C1360     1.0  0.64414  0.73809  0.44986  1.0000
  H   H2323     1.0  0.79155  0.51803  0.47407  1.0000
  H   H2324     1.0  0.82299  0.72165  0.06837  1.0000
  H   H2325     1.0  0.92489  0.72366  0.42428  1.0000
  H   H2326     1.0  0.81325  0.72063  0.50011  1.0000
  H   H2327     1.0  0.90114  0.58903  0.11074  1.0000
  H   H2328     1.0  0.86272  0.72081  0.06187  1.0000
  C   C1361     1.0  0.92396  0.57102  0.06810  1.0000
  H   H2329     1.0  0.83946  0.56714  0.50351  1.0000
  C   C1362     1.0  0.92482  0.59515  0.06109  1.0000
  H   H2330     1.0  0.01223  0.60689  0.17425  1.0000
  C   C1363     1.0  0.80368  0.52888  0.46630  1.0000
  S   S391      1.0  0.51531  0.69758  0.05443  1.0000
  H   H2331     1.0  0.82148  0.56662  0.46302  1.0000
  H   H2332     1.0  0.96313  0.72673  0.45348  1.0000
  H   H2333     1.0  0.79880  0.76023  0.09065  1.0000
  H   H2334     1.0  0.53068  0.75754  0.45210  1.0000
  H   H2335     1.0  0.84247  0.54725  0.45894  1.0000
  C   C1364     1.0  0.76982  0.75030  0.02654  1.0000
  H   H2336     1.0  0.00540  0.55143  0.36781  1.0000
  H   H2337     1.0  0.80449  0.51593  0.30559  1.0000
  C   C1365     1.0  0.82337  0.73614  0.07841  1.0000
  C   C1366     1.0  0.80102  0.74814  0.07791  1.0000
  H   H2338     1.0  0.92344  0.65580  0.03844  1.0000
  C   C1367     1.0  0.84145  0.75553  0.04766  1.0000
  H   H2339     1.0  0.78020  0.57267  0.51001  1.0000
  S   S392      1.0  0.51348  0.63676  0.23799  1.0000
  C   C1368     1.0  0.00967  0.53383  0.36716  1.0000
  S   S393      1.0  0.84536  0.63020  0.51098  1.0000
  H   H2340     1.0  0.99117  0.75707  0.15715  1.0000
  H   H2341     1.0  0.51740  0.66297  0.12737  1.0000
  N   N99       1.0  0.95653  0.75567  0.43367  1.0000
  H   H2342     1.0  0.99926  0.74527  0.33612  1.0000
  H   H2343     1.0  0.81063  0.74585  0.51278  1.0000
  H   H2344     1.0  0.79778  0.75578  0.06190  1.0000
  Fe  Fe196     1.0  0.64046  0.51468  0.22319  1.0000
  H   H2345     1.0  0.94683  0.51471  0.38961  1.0000
  H   H2346     1.0  0.57282  0.51528  0.23879  1.0000
  S   S394      1.0  0.97867  0.76206  0.51460  1.0000
  H   H2347     1.0  0.55962  0.70779  0.61006  1.0000
  C   C1369     1.0  0.51530  0.71314  0.72511  1.0000
  Fe  Fe197     1.0  0.53648  0.63345  0.81979  1.0000
  S   S395      1.0  0.51317  0.74642  0.69412  1.0000
  S   S396      1.0  0.57100  0.62036  0.81251  1.0000
  C   C1370     1.0  0.57765  0.72534  0.63331  1.0000
  H   H2348     1.0  0.88970  0.58153  0.55032  1.0000
  N   N100      1.0  0.53610  0.55859  0.78135  1.0000
  S   S397      1.0  0.52765  0.66688  0.83172  1.0000
  C   C1371     1.0  0.73490  0.57831  0.94485  1.0000
  C   C1372     1.0  0.86173  0.63106  0.56957  1.0000
  H   H2349     1.0  0.78002  0.76213  0.52863  1.0000
  S   S398      1.0  0.83829  0.67403  0.99344  1.0000
  Fe  Fe198     1.0  0.87147  0.68647  0.98533  1.0000
  S   S399      1.0  0.88420  0.69119  0.95029  1.0000
  S   S400      1.0  0.99298  0.69421  0.85632  1.0000
  H   H2350     1.0  0.52965  0.64527  0.94644  1.0000
  S   S401      1.0  0.98496  0.68753  0.92380  1.0000
  H   H2351     1.0  0.53221  0.72514  0.62588  1.0000
  Fe  Fe199     1.0  0.81644  0.62088  0.53206  1.0000
  H   H2352     1.0  0.92369  0.60844  0.92207  1.0000
  S   S402      1.0  0.81982  0.58703  0.54784  1.0000
  H   H2353     1.0  0.51855  0.72162  0.82414  1.0000
  H   H2354     1.0  0.75892  0.51474  0.84567  1.0000
  S   S403      1.0  0.81110  0.65399  0.54531  1.0000
  H   H2355     1.0  0.94669  0.61173  0.93835  1.0000
  H   H2356     1.0  0.78420  0.74832  0.57572  1.0000
  H   H2357     1.0  0.85199  0.61671  0.56861  1.0000
  S   S404      1.0  0.82036  0.55882  0.64822  1.0000
  C   C1373     1.0  0.90109  0.70438  0.53585  1.0000
  H   H2358     1.0  0.58595  0.69719  0.61412  1.0000
  H   H2359     1.0  0.99712  0.57083  0.79287  1.0000
  H   H2360     1.0  0.57217  0.53088  0.76069  1.0000
  C   C1374     1.0  0.78484  0.69787  0.57516  1.0000
  S   S405      1.0  0.53701  0.71616  0.95127  1.0000
  C   C1375     1.0  0.81952  0.57969  0.57588  1.0000
  C   C1376     1.0  0.82368  0.55788  0.58217  1.0000
  C   C1377     1.0  0.82383  0.55127  0.60422  1.0000
  C   C1378     1.0  0.81992  0.56644  0.62026  1.0000
  C   C1379     1.0  0.81579  0.58829  0.61396  1.0000
  C   C1380     1.0  0.81548  0.59489  0.59188  1.0000
  H   H2361     1.0  0.82670  0.54598  0.56994  1.0000
  H   H2362     1.0  0.82693  0.53441  0.60881  1.0000
  H   H2363     1.0  0.81261  0.60011  0.62626  1.0000
  H   H2364     1.0  0.81190  0.61164  0.58727  1.0000
  C   C1381     1.0  0.80528  0.71105  0.57427  1.0000
  H   H2365     1.0  0.57948  0.55852  0.76149  1.0000
  C   C1382     1.0  0.71094  0.54980  0.98054  1.0000
  H   H2366     1.0  0.98331  0.60793  0.80214  1.0000
  C   C1383     1.0  0.52669  0.52900  0.75594  1.0000
  H   H2367     1.0  0.85624  0.66096  0.58734  1.0000
  H   H2368     1.0  0.53403  0.55304  0.82710  1.0000
  C   C1384     1.0  0.54704  0.64765  0.01260  1.0000
  H   H2369     1.0  0.54833  0.66999  0.96106  1.0000
  C   C1385     1.0  0.77634  0.54719  0.94353  1.0000
  C   C1386     1.0  0.91226  0.69098  0.94318  1.0000
  C   C1387     1.0  0.91937  0.69514  0.92149  1.0000
  C   C1388     1.0  0.94160  0.69474  0.91528  1.0000
  C   C1389     1.0  0.95689  0.68997  0.93074  1.0000
  C   C1390     1.0  0.94977  0.68594  0.95241  1.0000
  C   C1391     1.0  0.92759  0.68645  0.95863  1.0000
  H   H2370     1.0  0.90759  0.69880  0.90947  1.0000
  H   H2371     1.0  0.94690  0.69815  0.89861  1.0000
  H   H2372     1.0  0.96148  0.68225  0.96448  1.0000
  H   H2373     1.0  0.92234  0.68332  0.97537  1.0000
  H   H2374     1.0  0.76039  0.57818  0.96933  1.0000
  H   H2375     1.0  0.72745  0.54215  0.89966  1.0000
  H   H2376     1.0  0.93422  0.64966  0.85723  1.0000
  H   H2377     1.0  0.56624  0.64921  0.97123  1.0000
  S   S406      1.0  0.86677  0.71375  0.00828  1.0000
  S   S407      1.0  0.60643  0.52561  0.84087  1.0000
  H   H2378     1.0  0.83503  0.72862  0.51489  1.0000
  C   C1392     1.0  0.58105  0.59436  0.82131  1.0000
  C   C1393     1.0  0.56947  0.58164  0.83660  1.0000
  C   C1394     1.0  0.57771  0.56077  0.84269  1.0000
  C   C1395     1.0  0.59757  0.55243  0.83361  1.0000
  C   C1396     1.0  0.60923  0.56520  0.81845  1.0000
  C   C1397     1.0  0.60100  0.58607  0.81237  1.0000
  H   H2379     1.0  0.55421  0.58789  0.84375  1.0000
  H   H2380     1.0  0.56862  0.55106  0.85452  1.0000
  H   H2381     1.0  0.62453  0.55897  0.81132  1.0000
  H   H2382     1.0  0.61009  0.59584  0.80058  1.0000
  H   H2383     1.0  0.59802  0.75210  0.66039  1.0000
  C   C1398     1.0  0.52520  0.67889  0.90114  1.0000
  C   C1399     1.0  0.53527  0.69142  0.91571  1.0000
  C   C1400     1.0  0.74680  0.58825  0.96301  1.0000
  H   H2384     1.0  0.53452  0.67184  0.88764  1.0000
  H   H2385     1.0  0.55233  0.69403  0.91323  1.0000
  H   H2386     1.0  0.78417  0.59921  0.99636  1.0000
  C   C1401     1.0  0.71597  0.55337  0.90865  1.0000
  H   H2387     1.0  0.90908  0.52030  0.74226  1.0000
  C   C1402     1.0  0.53133  0.55289  0.75875  1.0000
  C   C1403     1.0  0.72806  0.71483  0.53102  1.0000
  S   S408      1.0  0.99954  0.64055  0.82736  1.0000
  C   C1404     1.0  0.51823  0.55742  0.82023  1.0000
  S   S409      1.0  0.86183  0.68567  0.53668  1.0000
  H   H2388     1.0  0.54070  0.62330  0.97862  1.0000
  H   H2389     1.0  0.56359  0.55762  0.80131  1.0000
  H   H2390     1.0  0.51711  0.53330  0.79694  1.0000
  C   C1405     1.0  0.99249  0.60824  0.88533  1.0000
  N   N101      1.0  0.73459  0.55395  0.94509  1.0000
  H   H2391     1.0  0.54043  0.71193  0.67330  1.0000
  N   N102      1.0  0.55885  0.74073  0.63938  1.0000
  H   H2392     1.0  0.54471  0.55689  0.74686  1.0000
  H   H2393     1.0  0.81220  0.54841  0.51577  1.0000
  H   H2394     1.0  0.52462  0.74700  0.83394  1.0000
  H   H2395     1.0  0.71260  0.54498  0.99787  1.0000
  H   H2396     1.0  0.78928  0.53773  0.93436  1.0000
  C   C1406     1.0  0.56262  0.74943  0.66120  1.0000
  H   H2397     1.0  0.01226  0.72481  0.79708  1.0000
  H   H2398     1.0  0.77004  0.70788  0.57972  1.0000
  H   H2399     1.0  0.51838  0.68337  0.98029  1.0000
  C   C1407     1.0  0.99839  0.60143  0.80827  1.0000
  H   H2400     1.0  0.78081  0.56427  0.94208  1.0000
  H   H2401     1.0  0.69750  0.54076  0.97494  1.0000
  N   N103      1.0  0.53704  0.65516  0.99177  1.0000
  C   C1408     1.0  0.00617  0.58039  0.80298  1.0000
  Fe  Fe200     1.0  0.83843  0.66394  0.52207  1.0000
  H   H2402     1.0  0.85874  0.63685  0.60474  1.0000
  H   H2403     1.0  0.67198  0.73347  0.51577  1.0000
  H   H2404     1.0  0.51557  0.62835  0.99219  1.0000
  H   H2405     1.0  0.73378  0.52590  0.96708  1.0000
  C   C1409     1.0  0.58297  0.76247  0.66242  1.0000
  Fe  Fe201     1.0  0.78984  0.66223  0.51741  1.0000
  Fe  Fe202     1.0  0.52262  0.73250  0.98162  1.0000
  H   H2406     1.0  0.69980  0.55104  0.90256  1.0000
  N   N104      1.0  0.88561  0.62503  0.56921  1.0000
  C   C1410     1.0  0.89717  0.64550  0.57184  1.0000
  C   C1411     1.0  0.89274  0.61668  0.54724  1.0000
  C   C1412     1.0  0.89155  0.60880  0.58710  1.0000
  C   C1413     1.0  0.92208  0.64352  0.56937  1.0000
  C   C1414     1.0  0.88298  0.59571  0.54095  1.0000
  C   C1415     1.0  0.87474  0.59208  0.59437  1.0000
  H   H2407     1.0  0.89177  0.65836  0.55997  1.0000
  H   H2408     1.0  0.89317  0.65210  0.58810  1.0000
  H   H2409     1.0  0.88926  0.62930  0.53433  1.0000
  H   H2410     1.0  0.91049  0.61310  0.54587  1.0000
  H   H2411     1.0  0.90691  0.59955  0.58249  1.0000
  H   H2412     1.0  0.89495  0.61705  0.60208  1.0000
  H   H2413     1.0  0.92784  0.64261  0.55210  1.0000
  H   H2414     1.0  0.79095  0.71273  0.53141  1.0000
  H   H2415     1.0  0.00755  0.60322  0.89347  1.0000
  Fe  Fe203     1.0  0.82376  0.52355  0.66008  1.0000
  H   H2416     1.0  0.86514  0.59643  0.54253  1.0000
  H   H2417     1.0  0.55030  0.61188  0.76843  1.0000
  H   H2418     1.0  0.86063  0.59965  0.60351  1.0000
  H   H2419     1.0  0.88218  0.57978  0.60563  1.0000
  H   H2420     1.0  0.86888  0.58329  0.58091  1.0000
  H   H2421     1.0  0.81986  0.75582  0.00240  1.0000
  C   C1416     1.0  0.80340  0.76000  0.00803  1.0000
  H   H2422     1.0  0.54999  0.74220  0.59426  1.0000
  H   H2423     1.0  0.73530  0.59290  0.97665  1.0000
  H   H2424     1.0  0.70013  0.55589  0.94009  1.0000
  C   C1417     1.0  0.88776  0.69142  0.52485  1.0000
  S   S410      1.0  0.75692  0.67994  0.52493  1.0000
  H   H2425     1.0  0.92976  0.66819  0.87903  1.0000
  H   H2426     1.0  0.83169  0.75026  0.54454  1.0000
  H   H2427     1.0  0.75323  0.52650  0.93210  1.0000
  H   H2428     1.0  0.71298  0.53029  0.93531  1.0000
  H   H2429     1.0  0.53128  0.70419  0.86014  1.0000
  H   H2430     1.0  0.75368  0.60358  0.95667  1.0000
  H   H2431     1.0  0.52668  0.68511  0.00690  1.0000
  C   C1418     1.0  0.79962  0.57114  0.01185  1.0000
  C   C1419     1.0  0.92177  0.70935  0.52697  1.0000
  H   H2432     1.0  0.71806  0.58552  0.94634  1.0000
  C   C1420     1.0  0.93357  0.62022  0.92943  1.0000
  H   H2433     1.0  0.74546  0.54784  0.97777  1.0000
  H   H2434     1.0  0.77266  0.52899  0.78963  1.0000
  C   C1421     1.0  0.53545  0.72039  0.85361  1.0000
  H   H2435     1.0  0.98629  0.59331  0.87938  1.0000
  H   H2436     1.0  0.81690  0.70123  0.53609  1.0000
  C   C1422     1.0  0.54507  0.75708  0.60280  1.0000
  H   H2437     1.0  0.53880  0.73093  0.86691  1.0000
  C   C1423     1.0  0.71994  0.73640  0.52791  1.0000
  H   H2438     1.0  0.54876  0.69613  0.65000  1.0000
  H   H2439     1.0  0.00742  0.73820  0.75916  1.0000
  H   H2440     1.0  0.58134  0.71362  0.64690  1.0000
  H   H2441     1.0  0.75665  0.55107  0.91671  1.0000
  C   C1424     1.0  0.55704  0.54795  0.78879  1.0000
  C   C1425     1.0  0.71534  0.54788  0.93321  1.0000
  H   H2442     1.0  0.89541  0.71069  0.55129  1.0000
  H   H2443     1.0  0.88753  0.59292  0.52363  1.0000
  H   H2444     1.0  0.59273  0.73421  0.63063  1.0000
  H   H2445     1.0  0.74196  0.58463  0.92905  1.0000
  S   S411      1.0  0.00150  0.71816  0.53549  1.0000
  H   H2446     1.0  0.53906  0.58783  0.79889  1.0000
  H   H2447     1.0  0.56399  0.73626  0.67384  1.0000
  N   N105      1.0  0.95572  0.62939  0.89347  1.0000
  C   C1426     1.0  0.94200  0.63745  0.91278  1.0000
  C   C1427     1.0  0.96105  0.64908  0.87943  1.0000
  C   C1428     1.0  0.97633  0.61909  0.90191  1.0000
  C   C1429     1.0  0.94335  0.61339  0.88213  1.0000
  H   H2448     1.0  0.76788  0.53413  0.82654  1.0000
  C   C1430     1.0  0.94206  0.66055  0.86770  1.0000
  C   C1431     1.0  0.72967  0.53510  0.80518  1.0000
  C   C1432     1.0  0.95130  0.60798  0.85866  1.0000
  H   H2449     1.0  0.95109  0.64868  0.92191  1.0000
  H   H2450     1.0  0.92734  0.64693  0.90763  1.0000
  H   H2451     1.0  0.97393  0.64552  0.86686  1.0000
  H   H2452     1.0  0.96809  0.66134  0.88921  1.0000
  H   H2453     1.0  0.98515  0.63130  0.91019  1.0000
  H   H2454     1.0  0.97287  0.60614  0.91431  1.0000
  H   H2455     1.0  0.94316  0.59778  0.89169  1.0000
  H   H2456     1.0  0.92605  0.61916  0.88155  1.0000
  H   H2457     1.0  0.55442  0.53192  0.79696  1.0000
  C   C1433     1.0  0.81386  0.60736  0.00973  1.0000
  H   H2458     1.0  0.92280  0.62856  0.94181  1.0000
  C   C1434     1.0  0.75465  0.54419  0.93353  1.0000
  H   H2459     1.0  0.77263  0.73566  0.55489  1.0000
  H   H2460     1.0  0.53792  0.51769  0.76467  1.0000
  H   H2461     1.0  0.70536  0.74209  0.53682  1.0000
  N   N106      1.0  0.80702  0.72818  0.55626  1.0000
  H   H2462     1.0  0.71990  0.57036  0.90476  1.0000
  H   H2463     1.0  0.95564  0.59041  0.85768  1.0000
  H   H2464     1.0  0.96544  0.61660  0.85206  1.0000
  H   H2465     1.0  0.93813  0.61167  0.84746  1.0000
  H   H2466     1.0  0.81958  0.69931  0.57333  1.0000
  C   C1435     1.0  0.55496  0.66294  0.97626  1.0000
  C   C1436     1.0  0.57559  0.54392  0.77147  1.0000
  H   H2467     1.0  0.52330  0.70387  0.71230  1.0000
  H   H2468     1.0  0.71950  0.70403  0.54223  1.0000
  H   H2469     1.0  0.56974  0.59067  0.77342  1.0000
  H   H2470     1.0  0.92864  0.65836  0.57530  1.0000
  Fe  Fe204     1.0  0.00274  0.68803  0.89060  1.0000
  C   C1437     1.0  0.52060  0.67365  0.99559  1.0000
  C   C1438     1.0  0.51827  0.73109  0.83908  1.0000
  H   H2471     1.0  0.51404  0.57487  0.82207  1.0000
  H   H2472     1.0  0.51701  0.56284  0.75319  1.0000
  H   H2473     1.0  0.80526  0.71824  0.59040  1.0000
  C   C1439     1.0  0.79794  0.59311  0.00513  1.0000
  H   H2474     1.0  0.78634  0.68466  0.58776  1.0000
  H   H2475     1.0  0.58025  0.67349  0.99653  1.0000
  H   H2476     1.0  0.73604  0.54686  0.81583  1.0000
  C   C1440     1.0  0.82996  0.75129  0.57897  1.0000
  H   H2477     1.0  0.99738  0.61909  0.87152  1.0000
  C   C1441     1.0  0.80742  0.71695  0.53505  1.0000
  H   H2478     1.0  0.94841  0.67380  0.85695  1.0000
  H   H2479     1.0  0.85788  0.64128  0.55496  1.0000
  C   C1442     1.0  0.85253  0.64364  0.58933  1.0000
  S   S412      1.0  0.51492  0.63789  0.79180  1.0000
  S   S413      1.0  0.88776  0.66380  0.00910  1.0000
  C   C1443     1.0  0.73229  0.54385  0.96765  1.0000
  H   H2480     1.0  0.55904  0.69401  0.99122  1.0000
  S   S414      1.0  0.77896  0.55407  0.00542  1.0000
  S   S415      1.0  0.67357  0.52014  0.82799  1.0000
  Fe  Fe205     1.0  0.77373  0.51811  0.01234  1.0000
  C   C1444     1.0  0.52343  0.70065  0.93340  1.0000
  H   H2481     1.0  0.52736  0.75775  0.60673  1.0000
  H   H2482     1.0  0.93184  0.71939  0.53555  1.0000
  C   C1445     1.0  0.52785  0.63630  0.98148  1.0000
  S   S416      1.0  0.54281  0.73285  0.01072  1.0000
  H   H2483     1.0  0.55086  0.71802  0.84374  1.0000
  H   H2484     1.0  0.54857  0.76013  0.66676  1.0000
  H   H2485     1.0  0.56041  0.63526  0.00933  1.0000
  C   C1446     1.0  0.55333  0.59412  0.76752  1.0000
  C   C1447     1.0  0.57610  0.71264  0.61264  1.0000
  H   H2486     1.0  0.78264  0.69012  0.55977  1.0000
  C   C1448     1.0  0.53621  0.58286  0.78230  1.0000
  H   H2487     1.0  0.81648  0.76358  0.58145  1.0000
  H   H2488     1.0  0.58236  0.72201  0.59815  1.0000
  H   H2489     1.0  0.84184  0.72633  0.55731  1.0000
  H   H2490     1.0  0.83115  0.74036  0.59353  1.0000
  H   H2491     1.0  0.81229  0.62421  0.00447  1.0000
  H   H2492     1.0  0.52453  0.74128  0.64790  1.0000
  H   H2493     1.0  0.92897  0.62954  0.57891  1.0000
  H   H2494     1.0  0.57903  0.68703  0.97060  1.0000
  C   C1449     1.0  0.81712  0.72902  0.51477  1.0000
  H   H2495     1.0  0.77672  0.54099  0.96053  1.0000
  H   H2496     1.0  0.52834  0.52539  0.73848  1.0000
  H   H2497     1.0  0.71184  0.53783  0.80605  1.0000
  C   C1450     1.0  0.53765  0.72980  0.64165  1.0000
  C   C1451     1.0  0.51743  0.64161  0.95970  1.0000
  H   H2498     1.0  0.70669  0.56738  0.97960  1.0000
  H   H2499     1.0  0.59048  0.53850  0.77977  1.0000
  C   C1452     1.0  0.82811  0.73873  0.55825  1.0000
  H   H2500     1.0  0.83465  0.64307  0.59054  1.0000
  H   H2501     1.0  0.52008  0.59042  0.77846  1.0000
  H   H2502     1.0  0.80354  0.52057  0.82406  1.0000
  C   C1453     1.0  0.55751  0.75975  0.62330  1.0000
  Fe  Fe206     1.0  0.00079  0.75372  0.54171  1.0000
  C   C1454     1.0  0.56897  0.68032  0.98445  1.0000
  C   C1455     1.0  0.53730  0.70902  0.65628  1.0000
  H   H2503     1.0  0.55279  0.59039  0.75027  1.0000
  H   H2504     1.0  0.51731  0.68658  0.74897  1.0000
  C   C1456     1.0  0.01000  0.61413  0.82133  1.0000
  H   H2505     1.0  0.52085  0.70275  0.65666  1.0000
  C   C1457     1.0  0.51768  0.55121  0.79641  1.0000
  H   H2506     1.0  0.73497  0.53870  0.78806  1.0000
  H   H2507     1.0  0.72141  0.52557  0.73484  1.0000
  S   S417      1.0  0.99359  0.76115  0.57735  1.0000
  H   H2508     1.0  0.84515  0.76005  0.57745  1.0000
  C   C1458     1.0  0.74724  0.70718  0.51995  1.0000
  C   C1459     1.0  0.78752  0.74373  0.55861  1.0000
  C   C1460     1.0  0.76876  0.51639  0.83009  1.0000
  H   H2509     1.0  0.75658  0.51458  0.71611  1.0000
  Fe  Fe207     1.0  0.64383  0.80437  0.49967  1.0000
  H   H2510     1.0  0.66365  0.78905  0.04493  1.0000
  S   S418      1.0  0.62210  0.78717  0.47811  1.0000
  H   H2511     1.0  0.71112  0.94659  0.49920  1.0000
  H   H2512     1.0  0.66430  0.78579  0.09454  1.0000
  H   H2513     1.0  0.53210  0.00089  0.12097  1.0000
  S   S419      1.0  0.67660  0.81530  0.48855  1.0000
  H   H2514     1.0  0.56774  0.79971  0.29460  1.0000
  C   C1461     1.0  0.80849  0.97023  0.41172  1.0000
  Fe  Fe208     1.0  0.54572  0.81471  0.37988  1.0000
  H   H2515     1.0  0.00053  0.82770  0.43741  1.0000
  S   S420      1.0  0.57277  0.82856  0.39748  1.0000
  H   H2516     1.0  0.99915  0.78083  0.16851  1.0000
  C   C1462     1.0  0.79134  0.97547  0.23968  1.0000
  S   S421      1.0  0.54475  0.81452  0.34351  1.0000
  C   C1463     1.0  0.53280  0.85736  0.27517  1.0000
  C   C1464     1.0  0.53145  0.81529  0.25062  1.0000
  C   C1465     1.0  0.53643  0.77421  0.45099  1.0000
  C   C1466     1.0  0.89866  0.98529  0.38702  1.0000
  H   H2517     1.0  0.95364  0.79833  0.41937  1.0000
  C   C1467     1.0  0.99893  0.78301  0.24790  1.0000
  H   H2518     1.0  0.68774  0.95393  0.07122  1.0000
  Fe  Fe209     1.0  0.73050  0.99929  0.17862  1.0000
  S   S422      1.0  0.79011  0.01378  0.49792  1.0000
  Fe  Fe210     1.0  0.71728  0.96917  0.14341  1.0000
  H   H2519     1.0  0.60514  0.77941  0.07006  1.0000
  S   S423      1.0  0.73135  0.94594  0.11795  1.0000
  Fe  Fe211     1.0  0.68443  0.98316  0.17949  1.0000
  N   N107      1.0  0.76656  0.89838  0.48691  1.0000
  S   S424      1.0  0.55291  0.79676  0.01921  1.0000
  S   S425      1.0  0.71760  0.96601  0.17993  1.0000
  Fe  Fe212     1.0  0.69611  0.85675  0.04100  1.0000
  S   S426      1.0  0.68552  0.87061  0.07377  1.0000
  H   H2520     1.0  0.81960  0.00340  0.45149  1.0000
  H   H2521     1.0  0.74113  0.99942  0.24926  1.0000
  H   H2522     1.0  0.54130  0.81520  0.43200  1.0000
  S   S427      1.0  0.70095  0.82094  0.03541  1.0000
  C   C1468     1.0  0.70299  0.99438  0.23594  1.0000
  H   H2523     1.0  0.76567  0.88945  0.45350  1.0000
  Fe  Fe213     1.0  0.88750  0.98205  0.31209  1.0000
  H   H2524     1.0  0.95711  0.78867  0.47837  1.0000
  S   S428      1.0  0.92047  0.96449  0.31550  1.0000
  H   H2525     1.0  0.65071  0.76947  0.06341  1.0000
  H   H2526     1.0  0.66366  0.83612  0.09696  1.0000
  S   S429      1.0  0.85344  0.97465  0.32334  1.0000
  H   H2527     1.0  0.68600  0.96339  0.04303  1.0000
  Fe  Fe214     1.0  0.98916  0.85358  0.31598  1.0000
  S   S430      1.0  0.95360  0.86524  0.31670  1.0000
  S   S431      1.0  0.99740  0.81761  0.31722  1.0000
  H   H2528     1.0  0.53903  0.85964  0.25815  1.0000
  Fe  Fe215     1.0  0.78217  0.98171  0.48590  1.0000
  H   H2529     1.0  0.52951  0.79437  0.30291  1.0000
  S   S432      1.0  0.74631  0.98790  0.49146  1.0000
  H   H2530     1.0  0.55579  0.83178  0.28146  1.0000
  S   S433      1.0  0.79305  0.96585  0.45416  1.0000
  H   H2531     1.0  0.00302  0.99280  0.28501  1.0000
  H   H2532     1.0  0.71806  0.93112  0.22888  1.0000
  H   H2533     1.0  0.86619  0.78002  0.04699  1.0000
  C   C1469     1.0  0.92925  0.93680  0.31470  1.0000
  C   C1470     1.0  0.95113  0.93109  0.31777  1.0000
  C   C1471     1.0  0.95888  0.90930  0.31804  1.0000
  C   C1472     1.0  0.94474  0.89294  0.31550  1.0000
  C   C1473     1.0  0.92283  0.89864  0.31251  1.0000
  C   C1474     1.0  0.91513  0.92048  0.31191  1.0000
  H   H2534     1.0  0.96221  0.94357  0.31995  1.0000
  H   H2535     1.0  0.97577  0.90512  0.32037  1.0000
  H   H2536     1.0  0.91181  0.88607  0.31042  1.0000
  H   H2537     1.0  0.89831  0.92462  0.30925  1.0000
  C   C1475     1.0  0.86120  0.76683  0.03719  1.0000
  C   C1476     1.0  0.80813  0.97859  0.43252  1.0000
  H   H2538     1.0  0.54553  0.95862  0.17327  1.0000
  C   C1477     1.0  0.65115  0.81483  0.12242  1.0000
  H   H2539     1.0  0.85706  0.77395  0.02109  1.0000
  H   H2540     1.0  0.64381  0.81905  0.04646  1.0000
  H   H2541     1.0  0.56078  0.80886  0.46191  1.0000
  N   N108      1.0  0.71394  0.99212  0.06314  1.0000
  H   H2542     1.0  0.73664  0.89486  0.50593  1.0000
  H   H2543     1.0  0.75468  0.85345  0.48376  1.0000
  H   H2544     1.0  0.55265  0.77351  0.45763  1.0000
  C   C1478     1.0  0.63191  0.98367  0.20779  1.0000
  C   C1479     1.0  0.83051  0.99918  0.39692  1.0000
  H   H2545     1.0  0.73176  0.85690  0.50218  1.0000
  H   H2546     1.0  0.70006  0.79289  0.44164  1.0000
  C   C1480     1.0  0.99816  0.00161  0.26999  1.0000
  H   H2547     1.0  0.73146  0.95071  0.25826  1.0000
  C   C1481     1.0  0.80173  0.99025  0.25168  1.0000
  H   H2548     1.0  0.81635  0.78699  0.07059  1.0000
  H   H2549     1.0  0.82545  0.79732  0.09450  1.0000
  C   C1482     1.0  0.97348  0.00433  0.26853  1.0000
  C   C1483     1.0  0.70304  0.00482  0.04510  1.0000
  C   C1484     1.0  0.52547  0.88785  0.33049  1.0000
  C   C1485     1.0  0.71776  0.92577  0.10535  1.0000
  C   C1486     1.0  0.69700  0.91994  0.11247  1.0000
  C   C1487     1.0  0.68725  0.90321  0.10248  1.0000
  C   C1488     1.0  0.69791  0.89243  0.08502  1.0000
  C   C1489     1.0  0.71840  0.89871  0.07753  1.0000
  C   C1490     1.0  0.72832  0.91513  0.08778  1.0000
  H   H2550     1.0  0.68868  0.92795  0.12598  1.0000
  H   H2551     1.0  0.67142  0.89847  0.10844  1.0000
  H   H2552     1.0  0.72687  0.89052  0.06422  1.0000
  H   H2553     1.0  0.74441  0.91944  0.08219  1.0000
  H   H2554     1.0  0.73251  0.92202  0.46443  1.0000
  S   S434      1.0  0.72505  0.86476  0.01958  1.0000
  C   C1491     1.0  0.70281  0.77725  0.45074  1.0000
  H   H2555     1.0  0.78847  0.87780  0.50583  1.0000
  C   C1492     1.0  0.78178  0.89482  0.50499  1.0000
  H   H2556     1.0  0.63592  0.00888  0.18317  1.0000
  H   H2557     1.0  0.58101  0.83194  0.02099  1.0000
  H   H2558     1.0  0.82708  0.76627  0.04448  1.0000
  H   H2559     1.0  0.68752  0.99830  0.04146  1.0000
  Fe  Fe216     1.0  0.84321  0.99472  0.29359  1.0000
  C   C1493     1.0  0.55919  0.78992  0.28355  1.0000
  C   C1494     1.0  0.74410  0.98210  0.27985  1.0000
  C   C1495     1.0  0.74832  0.92948  0.46414  1.0000
  S   S435      1.0  0.00931  0.79454  0.46996  1.0000
  H   H2560     1.0  0.98901  0.79440  0.25743  1.0000
  C   C1496     1.0  0.60393  0.01121  0.19911  1.0000
  C   C1497     1.0  0.70800  0.94456  0.23625  1.0000
  H   H2561     1.0  0.92322  0.76889  0.43514  1.0000
  H   H2562     1.0  0.56620  0.79181  0.26677  1.0000
  H   H2563     1.0  0.66204  0.98656  0.26793  1.0000
  C   C1498     1.0  0.96526  0.76925  0.45046  1.0000
  C   C1499     1.0  0.60893  0.79890  0.45547  1.0000
  C   C1500     1.0  0.59710  0.78574  0.44306  1.0000
  C   C1501     1.0  0.58594  0.79452  0.42525  1.0000
  C   C1502     1.0  0.58661  0.81657  0.41960  1.0000
  C   C1503     1.0  0.59860  0.82965  0.43190  1.0000
  C   C1504     1.0  0.60966  0.82091  0.44978  1.0000
  C   C1505     1.0  0.55131  0.01154  0.33546  1.0000
  H   H2564     1.0  0.79976  0.95601  0.40923  1.0000
  H   H2565     1.0  0.59931  0.84669  0.42759  1.0000
  H   H2566     1.0  0.61872  0.83121  0.45915  1.0000
  C   C1506     1.0  0.00363  0.76928  0.15563  1.0000
  H   H2567     1.0  0.52568  0.97589  0.34621  1.0000
  H   H2568     1.0  0.93946  0.76715  0.47656  1.0000
  H   H2569     1.0  0.69127  0.91833  0.48257  1.0000
  H   H2570     1.0  0.69310  0.01112  0.50829  1.0000
  H   H2571     1.0  0.67929  0.77055  0.06093  1.0000
  H   H2572     1.0  0.77630  0.93143  0.48291  1.0000
  H   H2573     1.0  0.73431  0.97453  0.29334  1.0000
  H   H2574     1.0  0.52177  0.00526  0.20211  1.0000
  C   C1507     1.0  0.66378  0.79642  0.07966  1.0000
  H   H2575     1.0  0.56247  0.77277  0.28885  1.0000
  C   C1508     1.0  0.64885  0.82686  0.10026  1.0000
  H   H2576     1.0  0.75718  0.97318  0.07521  1.0000
  C   C1509     1.0  0.62390  0.80249  0.08562  1.0000
  H   H2577     1.0  0.69017  0.98619  0.22844  1.0000
  H   H2578     1.0  0.69739  0.93713  0.24919  1.0000
  S   S436      1.0  0.53827  0.00668  0.27983  1.0000
  H   H2579     1.0  0.52725  0.78123  0.27831  1.0000
  C   C1510     1.0  0.81954  0.98053  0.39394  1.0000
  H   H2580     1.0  0.69408  0.99014  0.28351  1.0000
  H   H2581     1.0  0.54738  0.91324  0.33364  1.0000
  H   H2582     1.0  0.98092  0.76701  0.41006  1.0000
  H   H2583     1.0  0.66600  0.95974  0.27827  1.0000
  C   C1511     1.0  0.52005  0.78918  0.46367  1.0000
  H   H2584     1.0  0.71549  0.99667  0.22250  1.0000
  H   H2585     1.0  0.67193  0.98056  0.09780  1.0000
  H   H2586     1.0  0.55042  0.78465  0.49431  1.0000
  C   C1512     1.0  0.93742  0.76702  0.42340  1.0000
  H   H2587     1.0  0.00490  0.99174  0.25638  1.0000
  C   C1513     1.0  0.71718  0.96871  0.05742  1.0000
  C   C1514     1.0  0.61282  0.79488  0.06572  1.0000
  H   H2588     1.0  0.56389  0.98542  0.15044  1.0000
  H   H2589     1.0  0.93709  0.79131  0.45893  1.0000
  C   C1515     1.0  0.92805  0.91972  0.37566  1.0000
  H   H2590     1.0  0.66997  0.98972  0.07053  1.0000
  H   H2591     1.0  0.79439  0.91765  0.45292  1.0000
  H   H2592     1.0  0.62359  0.79186  0.05125  1.0000
  C   C1516     1.0  0.53329  0.90856  0.32585  1.0000
  C   C1517     1.0  0.59639  0.98415  0.22736  1.0000
  H   H2593     1.0  0.72623  0.95930  0.06993  1.0000
  H   H2594     1.0  0.54891  0.81767  0.24669  1.0000
  H   H2595     1.0  0.88944  0.00117  0.38634  1.0000
  C   C1518     1.0  0.64562  0.82781  0.06136  1.0000
  H   H2596     1.0  0.72300  0.00873  0.27034  1.0000
  C   C1519     1.0  0.52591  0.00615  0.13722  1.0000
  H   H2597     1.0  0.52988  0.84019  0.22456  1.0000
  H   H2598     1.0  0.73501  0.88902  0.47849  1.0000
  H   H2599     1.0  0.54122  0.86881  0.28468  1.0000
  C   C1520     1.0  0.51934  0.00566  0.37441  1.0000
  H   H2600     1.0  0.78236  0.87191  0.46937  1.0000
  S   S437      1.0  0.87770  0.99973  0.28146  1.0000
  H   H2601     1.0  0.70807  0.98162  0.09659  1.0000
  H   H2602     1.0  0.92294  0.95058  0.35904  1.0000
  H   H2603     1.0  0.65076  0.82693  0.13519  1.0000
  C   C1521     1.0  0.76132  0.92232  0.48396  1.0000
  C   C1522     1.0  0.77741  0.98259  0.22326  1.0000
  H   H2604     1.0  0.56762  0.80534  0.50015  1.0000
  H   H2605     1.0  0.70327  0.78084  0.46803  1.0000
  H   H2606     1.0  0.74492  0.00077  0.04801  1.0000
  H   H2607     1.0  0.79421  0.95832  0.24305  1.0000
  H   H2608     1.0  0.75751  0.92622  0.44864  1.0000
  C   C1523     1.0  0.73606  0.00095  0.06420  1.0000
  C   C1524     1.0  0.81951  0.99695  0.43554  1.0000
  H   H2609     1.0  0.51980  0.93791  0.18678  1.0000
  H   H2610     1.0  0.92648  0.79947  0.41229  1.0000
  H   H2611     1.0  0.59936  0.80645  0.06128  1.0000
  H   H2612     1.0  0.67942  0.80454  0.07820  1.0000
  H   H2613     1.0  0.63779  0.80401  0.12660  1.0000
  C   C1525     1.0  0.69607  0.97621  0.27264  1.0000
  C   C1526     1.0  0.74813  0.86274  0.49779  1.0000
  C   C1527     1.0  0.69134  0.89659  0.51065  1.0000
  C   C1528     1.0  0.66398  0.78072  0.06105  1.0000
  H   H2614     1.0  0.90021  0.98031  0.40427  1.0000
  H   H2615     1.0  0.74416  0.77547  0.02795  1.0000
  H   H2616     1.0  0.59651  0.76868  0.44730  1.0000
  H   H2617     1.0  0.81087  0.89875  0.46879  1.0000
  H   H2618     1.0  0.54561  0.97420  0.19674  1.0000
  Fe  Fe217     1.0  0.00932  0.76503  0.49340  1.0000
  S   S438      1.0  0.53358  0.94917  0.30612  1.0000
  H   H2619     1.0  0.96018  0.98684  0.30650  1.0000
  C   C1529     1.0  0.55109  0.80239  0.49532  1.0000
  C   C1530     1.0  0.51850  0.83144  0.23585  1.0000
  C   C1531     1.0  0.53800  0.83422  0.28412  1.0000
  C   C1532     1.0  0.61749  0.97487  0.22374  1.0000
  H   H2620     1.0  0.92217  0.91010  0.39008  1.0000
  H   H2621     1.0  0.66168  0.83487  0.05880  1.0000
  C   C1533     1.0  0.54345  0.97539  0.17895  1.0000
  H   H2622     1.0  0.92620  0.95180  0.38714  1.0000
  H   H2623     1.0  0.66933  0.77258  0.44750  1.0000
  H   H2624     1.0  0.94726  0.78687  0.39455  1.0000
  C   C1534     1.0  0.67292  0.97180  0.26644  1.0000
  H   H2625     1.0  0.75183  0.92860  0.49832  1.0000
  H   H2626     1.0  0.55179  0.99590  0.32734  1.0000
  C   C1535     1.0  0.52780  0.84675  0.43911  1.0000
  H   H2627     1.0  0.51603  0.86305  0.03457  1.0000
  S   S439      1.0  0.81824  0.98013  0.27300  1.0000
  C   C1536     1.0  0.69613  0.91590  0.49903  1.0000
  H   H2628     1.0  0.63300  0.85966  0.07228  1.0000
  H   H2629     1.0  0.62264  0.96072  0.23330  1.0000
  H   H2630     1.0  0.52877  0.79883  0.24505  1.0000
  H   H2631     1.0  0.55945  0.00947  0.35093  1.0000
  N   N109      1.0  0.71246  0.98097  0.25430  1.0000
  Fe  Fe218     1.0  0.52123  0.97525  0.28205  1.0000
  C   C1537     1.0  0.58951  0.00240  0.21504  1.0000
  C   C1538     1.0  0.52140  0.84610  0.03137  1.0000
  H   H2632     1.0  0.86141  0.77263  0.08531  1.0000
  H   H2633     1.0  0.75571  0.96989  0.27246  1.0000
  C   C1539     1.0  0.94163  0.78905  0.41172  1.0000
  Fe  Fe219     1.0  0.53694  0.00432  0.24383  1.0000
  C   C1540     1.0  0.59096  0.81796  0.01600  1.0000
  H   H2634     1.0  0.57698  0.78423  0.41578  1.0000
  H   H2635     1.0  0.55047  0.83167  0.47581  1.0000
  C   C1541     1.0  0.79769  0.90035  0.45741  1.0000
  C   C1542     1.0  0.00865  0.81419  0.42927  1.0000
  H   H2636     1.0  0.61214  0.84187  0.06590  1.0000
  S   S440      1.0  0.73295  0.00125  0.14205  1.0000
  H   H2637     1.0  0.58547  0.97716  0.23963  1.0000
  C   C1543     1.0  0.70197  0.99432  0.08492  1.0000
  H   H2638     1.0  0.70172  0.93961  0.05009  1.0000
  Fe  Fe220     1.0  0.66992  0.84284  0.51101  1.0000
  H   H2639     1.0  0.66931  0.00883  0.09156  1.0000
  H   H2640     1.0  0.96737  0.98784  0.26740  1.0000
  H   H2641     1.0  0.72718  0.96720  0.04195  1.0000
  H   H2642     1.0  0.88968  0.97314  0.35708  1.0000
  N   N110      1.0  0.52652  0.81626  0.27473  1.0000
  H   H2643     1.0  0.92526  0.91128  0.36069  1.0000
  S   S441      1.0  0.67875  0.87627  0.49735  1.0000
  C   C1544     1.0  0.53455  0.79514  0.28533  1.0000
  H   H2644     1.0  0.80383  0.89239  0.44237  1.0000
  H   H2645     1.0  0.62583  0.78827  0.09707  1.0000
  N   N111      1.0  0.89364  0.94540  0.37902  1.0000
  C   C1545     1.0  0.91789  0.94302  0.37500  1.0000
  C   C1546     1.0  0.88689  0.96883  0.37461  1.0000
  C   C1547     1.0  0.88364  0.93202  0.36284  1.0000
  C   C1548     1.0  0.88782  0.93767  0.40199  1.0000
  C   C1549     1.0  0.75119  0.98942  0.08046  1.0000
  Fe  Fe221     1.0  0.52905  0.78259  0.34845  1.0000
  C   C1550     1.0  0.85885  0.93148  0.36435  1.0000
  C   C1551     1.0  0.86687  0.94775  0.41307  1.0000
  H   H2646     1.0  0.84135  0.80068  0.07013  1.0000
  S   S442      1.0  0.53315  0.78167  0.38444  1.0000
  H   H2647     1.0  0.86931  0.97211  0.37798  1.0000
  H   H2648     1.0  0.97452  0.78260  0.44282  1.0000
  H   H2649     1.0  0.88855  0.93772  0.34606  1.0000
  H   H2650     1.0  0.88949  0.91478  0.36422  1.0000
  H   H2651     1.0  0.88653  0.91981  0.40285  1.0000
  H   H2652     1.0  0.90089  0.94071  0.41290  1.0000
  H   H2653     1.0  0.56309  0.00404  0.17248  1.0000
  H   H2654     1.0  0.53466  0.83428  0.30196  1.0000
  H   H2655     1.0  0.53355  0.87675  0.34173  1.0000
  H   H2656     1.0  0.93380  0.00939  0.32713  1.0000
  S   S443      1.0  0.01175  0.86057  0.34166  1.0000
  C   C1552     1.0  0.76065  0.77132  0.02237  1.0000
  H   H2657     1.0  0.85322  0.92140  0.37855  1.0000
  H   H2658     1.0  0.85369  0.92369  0.34980  1.0000
  H   H2659     1.0  0.85057  0.94773  0.36456  1.0000
  H   H2660     1.0  0.86829  0.96503  0.41638  1.0000
  H   H2661     1.0  0.86372  0.93928  0.42901  1.0000
  H   H2662     1.0  0.85244  0.94631  0.40376  1.0000
  S   S444      1.0  0.68341  0.98379  0.14323  1.0000
  H   H2663     1.0  0.76987  0.97095  0.21405  1.0000
  H   H2664     1.0  0.94587  0.92029  0.37622  1.0000
  C   C1553     1.0  0.69672  0.95616  0.05536  1.0000
  C   C1554     1.0  0.74586  0.88721  0.49219  1.0000
  C   C1555     1.0  0.77727  0.88923  0.46658  1.0000
  C   C1556     1.0  0.72298  0.96039  0.24551  1.0000
  H   H2665     1.0  0.97175  0.76909  0.23449  1.0000
  C   C1557     1.0  0.56291  0.98689  0.16825  1.0000
  H   H2666     1.0  0.74350  0.98812  0.09699  1.0000
  C   C1558     1.0  0.62502  0.00194  0.19550  1.0000
  H   H2667     1.0  0.70200  0.96218  0.28289  1.0000
  H   H2668     1.0  0.76567  0.99900  0.08147  1.0000
  N   N112      1.0  0.52129  0.98526  0.17451  1.0000
  C   C1559     1.0  0.77334  0.00471  0.21879  1.0000
  H   H2669     1.0  0.71299  0.00335  0.02960  1.0000
  H   H2670     1.0  0.51296  0.84118  0.48062  1.0000
  C   C1560     1.0  0.83100  0.78910  0.07941  1.0000
  S   S445      1.0  0.72227  0.77829  0.50993  1.0000
  H   H2671     1.0  0.73555  0.96423  0.23256  1.0000
  H   H2672     1.0  0.53966  0.80832  0.50843  1.0000
  H   H2673     1.0  0.81910  0.97439  0.37789  1.0000
  H   H2674     1.0  0.53494  0.99592  0.37462  1.0000
  H   H2675     1.0  0.69825  0.95200  0.22324  1.0000
  H   H2676     1.0  0.79606  0.90481  0.50192  1.0000
  S   S446      1.0  0.65825  0.97129  0.20381  1.0000
  H   H2677     1.0  0.00220  0.77769  0.13967  1.0000
  Fe  Fe222     1.0  0.85181  0.00635  0.33988  1.0000
  S   S447      1.0  0.52241  0.97191  0.24604  1.0000
  H   H2678     1.0  0.74493  0.94725  0.46430  1.0000
  C   C1561     1.0  0.70745  0.93190  0.50839  1.0000
  H   H2679     1.0  0.74453  0.99294  0.44370  1.0000
  H   H2680     1.0  0.53772  0.77907  0.43356  1.0000
  H   H2681     1.0  0.63534  0.83920  0.10277  1.0000
  C   C1562     1.0  0.72999  0.99376  0.26276  1.0000
  C   C1563     1.0  0.52312  0.92320  0.31120  1.0000
  H   H2682     1.0  0.91494  0.98787  0.37926  1.0000
  N   N113      1.0  0.64515  0.81308  0.08139  1.0000
  H   H2683     1.0  0.70544  0.00983  0.09209  1.0000
  H   H2684     1.0  0.67167  0.96524  0.25029  1.0000
  H   H2685     1.0  0.66696  0.80565  0.12318  1.0000
  C   C1564     1.0  0.67703  0.99335  0.08578  1.0000
  C   C1565     1.0  0.98918  0.76859  0.23487  1.0000
  H   H2686     1.0  0.00736  0.82989  0.39739  1.0000
  C   C1566     1.0  0.54746  0.81445  0.47342  1.0000
  H   H2687     1.0  0.51746  0.78205  0.48034  1.0000
  C   C1567     1.0  0.62867  0.84696  0.06144  1.0000
  H   H2688     1.0  0.98131  0.00307  0.31194  1.0000
  H   H2689     1.0  0.61188  0.81391  0.09380  1.0000
  H   H2690     1.0  0.95706  0.00506  0.34246  1.0000
  H   H2691     1.0  0.51543  0.86234  0.27691  1.0000
  C   C1568     1.0  0.83068  0.00712  0.41784  1.0000
  H   H2692     1.0  0.62855  0.85471  0.04495  1.0000
  H   H2693     1.0  0.93189  0.99893  0.28319  1.0000
  H   H2694     1.0  0.53067  0.85160  0.42177  1.0000
  H   H2695     1.0  0.71883  0.77026  0.44488  1.0000
  H   H2696     1.0  0.57798  0.97886  0.17428  1.0000
  C   C1569     1.0  0.96425  0.00402  0.30768  1.0000
  H   H2697     1.0  0.53590  0.84197  0.04074  1.0000
  H   H2698     1.0  0.75112  0.99830  0.41593  1.0000
  H   H2699     1.0  0.52491  0.97152  0.14288  1.0000
  C   C1570     1.0  0.74567  0.00620  0.43114  1.0000
  H   H2700     1.0  0.00659  0.77329  0.33417  1.0000
  H   H2701     1.0  0.75412  0.99407  0.28684  1.0000
  C   C1571     1.0  0.01248  0.81547  0.40657  1.0000
  H   H2702     1.0  0.51408  0.98893  0.32329  1.0000
  H   H2703     1.0  0.97112  0.01273  0.25256  1.0000
  H   H2704     1.0  0.54137  0.85269  0.44762  1.0000
  N   N114      1.0  0.52575  0.81243  0.46414  1.0000
  C   C1572     1.0  0.84428  0.76804  0.08548  1.0000
  C   C1573     1.0  0.94846  0.77948  0.46684  1.0000
  H   H2705     1.0  0.98490  0.76479  0.31972  1.0000
  C   C1574     1.0  0.95102  0.01306  0.32745  1.0000
  C   C1575     1.0  0.79797  0.01237  0.24693  1.0000
  S   S448      1.0  0.88650  0.01237  0.33074  1.0000
  C   C1576     1.0  0.51761  0.98631  0.15059  1.0000
  C   C1577     1.0  0.52681  0.82195  0.44130  1.0000
  H   H2706     1.0  0.77634  0.01272  0.44297  1.0000
  H   H2707     1.0  0.75796  0.85889  0.51194  1.0000
  C   C1578     1.0  0.51845  0.00700  0.18465  1.0000
  S   S449      1.0  0.51295  0.83184  0.38446  1.0000
  H   H2708     1.0  0.51308  0.81723  0.43210  1.0000
  H   H2709     1.0  0.72916  0.01382  0.43025  1.0000
  S   S450      1.0  0.67263  0.86289  0.01479  1.0000
  S   S451      1.0  0.68459  0.82449  0.53905  1.0000
  H   H2710     1.0  0.00387  0.82313  0.77974  1.0000
  Fe  Fe223     1.0  0.65080  0.81318  0.54675  1.0000
  S   S452      1.0  0.63711  0.81146  0.58182  1.0000
  S   S453      1.0  0.75525  0.00486  0.53955  1.0000
  S   S454      1.0  0.53623  0.81463  0.60822  1.0000
  S   S455      1.0  0.53006  0.80483  0.67427  1.0000
  S   S456      1.0  0.51428  0.85336  0.70860  1.0000
  H   H2711     1.0  0.91344  0.86194  0.76299  1.0000
  Fe  Fe224     1.0  0.70096  0.96907  0.86559  1.0000
  S   S457      1.0  0.67872  0.99368  0.88218  1.0000
  S   S458      1.0  0.69903  0.93334  0.87516  1.0000
  H   H2712     1.0  0.96382  0.79767  0.79416  1.0000
  C   C1579     1.0  0.00504  0.79621  0.62925  1.0000
  H   H2713     1.0  0.64919  0.00521  0.55319  1.0000
  S   S459      1.0  0.69358  0.98124  0.83168  1.0000
  S   S460      1.0  0.73039  0.98846  0.86659  1.0000
  H   H2714     1.0  0.73784  0.84114  0.91422  1.0000
  S   S461      1.0  0.70697  0.83433  0.98332  1.0000
  H   H2715     1.0  0.52430  0.86092  0.62338  1.0000
  Fe  Fe225     1.0  0.70203  0.86899  0.99275  1.0000
  S   S462      1.0  0.70612  0.90091  0.97368  1.0000
  Fe  Fe226     1.0  0.85002  0.98844  0.72695  1.0000
  S   S463      1.0  0.85243  0.96936  0.69669  1.0000
  S   S464      1.0  0.82920  0.97466  0.75564  1.0000
  H   H2716     1.0  0.78612  0.99231  0.58657  1.0000
  H   H2717     1.0  0.74855  0.00724  0.72664  1.0000
  C   C1580     1.0  0.62653  0.80174  0.00562  1.0000
  C   C1581     1.0  0.95828  0.79612  0.74206  1.0000
  Fe  Fe227     1.0  0.88777  0.97532  0.69404  1.0000
  S   S465      1.0  0.91281  0.95118  0.67910  1.0000
  S   S466      1.0  0.88619  0.99154  0.72588  1.0000
  C   C1582     1.0  0.71395  0.92884  0.52960  1.0000
  H   H2718     1.0  0.93878  0.79794  0.78280  1.0000
  H   H2719     1.0  0.94093  0.80679  0.82340  1.0000
  S   S467      1.0  0.96897  0.87575  0.72622  1.0000
  H   H2720     1.0  0.74484  0.96563  0.75542  1.0000
  S   S468      1.0  0.99504  0.82410  0.69639  1.0000
  H   H2721     1.0  0.92014  0.95698  0.62815  1.0000
  S   S469      1.0  0.65685  0.78340  0.52719  1.0000
  H   H2722     1.0  0.62036  0.96827  0.78664  1.0000
  S   S470      1.0  0.88311  0.00622  0.67382  1.0000
  H   H2723     1.0  0.59916  0.97691  0.89020  1.0000
  H   H2724     1.0  0.97669  0.00874  0.71421  1.0000
  H   H2725     1.0  0.80256  0.82230  0.94253  1.0000
  H   H2726     1.0  0.72928  0.99046  0.75711  1.0000
  H   H2727     1.0  0.52795  0.88408  0.73742  1.0000
  Fe  Fe228     1.0  0.54137  0.98746  0.77136  1.0000
  S   S471      1.0  0.57503  0.97526  0.78099  1.0000
  S   S472      1.0  0.53771  0.99457  0.73584  1.0000
  Fe  Fe229     1.0  0.75012  0.97300  0.52460  1.0000
  H   H2728     1.0  0.94527  0.83347  0.81444  1.0000
  H   H2729     1.0  0.62458  0.98862  0.89463  1.0000
  C   C1583     1.0  0.80066  0.00870  0.76870  1.0000
  H   H2730     1.0  0.54820  0.77086  0.59120  1.0000
  H   H2731     1.0  0.64587  0.98529  0.80943  1.0000
  C   C1584     1.0  0.92853  0.93064  0.69270  1.0000
  C   C1585     1.0  0.94461  0.91863  0.68072  1.0000
  C   C1586     1.0  0.95730  0.90195  0.69075  1.0000
  C   C1587     1.0  0.95388  0.89698  0.71288  1.0000
  C   C1588     1.0  0.93774  0.90894  0.72484  1.0000
  C   C1589     1.0  0.92518  0.92575  0.71485  1.0000
  H   H2732     1.0  0.94733  0.92228  0.66358  1.0000
  H   H2733     1.0  0.96962  0.89284  0.68135  1.0000
  H   H2734     1.0  0.93497  0.90526  0.74196  1.0000
  H   H2735     1.0  0.91285  0.93484  0.72425  1.0000
  H   H2736     1.0  0.75312  0.89606  0.96815  1.0000
  H   H2737     1.0  0.92533  0.82491  0.75969  1.0000
  H   H2738     1.0  0.52152  0.92386  0.73988  1.0000
  S   S473      1.0  0.72877  0.94821  0.54194  1.0000
  H   H2739     1.0  0.97814  0.82347  0.74193  1.0000
  Fe  Fe230     1.0  0.51801  0.81034  0.64096  1.0000
  C   C1590     1.0  0.97067  0.81224  0.75434  1.0000
  C   C1591     1.0  0.69753  0.89370  0.53199  1.0000
  C   C1592     1.0  0.76925  0.00383  0.79412  1.0000
  N   N115      1.0  0.77013  0.98024  0.71634  1.0000
  C   C1593     1.0  0.69435  0.00689  0.52577  1.0000
  H   H2740     1.0  0.81272  0.95550  0.71791  1.0000
  H   H2741     1.0  0.80337  0.77133  0.54101  1.0000
  H   H2742     1.0  0.78685  0.80191  0.95584  1.0000
  H   H2743     1.0  0.71338  0.90740  0.55794  1.0000
  H   H2744     1.0  0.92103  0.82116  0.80731  1.0000
  H   H2745     1.0  0.91934  0.92562  0.60634  1.0000
  C   C1594     1.0  0.77578  0.98199  0.79688  1.0000
  C   C1595     1.0  0.79447  0.97353  0.78539  1.0000
  C   C1596     1.0  0.80685  0.98672  0.77098  1.0000
  C   C1597     1.0  0.62158  0.00724  0.82369  1.0000
  H   H2746     1.0  0.79406  0.82390  0.97082  1.0000
  H   H2747     1.0  0.76623  0.97152  0.80754  1.0000
  H   H2748     1.0  0.79918  0.95654  0.78742  1.0000
  C   C1598     1.0  0.76718  0.96825  0.67678  1.0000
  C   C1599     1.0  0.70083  0.92442  0.90260  1.0000
  C   C1600     1.0  0.69755  0.90267  0.90865  1.0000
  C   C1601     1.0  0.69848  0.89522  0.93044  1.0000
  C   C1602     1.0  0.70326  0.90940  0.94626  1.0000
  C   C1603     1.0  0.70656  0.93110  0.94016  1.0000
  C   C1604     1.0  0.70519  0.93863  0.91849  1.0000
  H   H2749     1.0  0.69410  0.89157  0.89645  1.0000
  H   H2750     1.0  0.69573  0.87852  0.93495  1.0000
  H   H2751     1.0  0.71023  0.94220  0.95228  1.0000
  H   H2752     1.0  0.70773  0.95541  0.91410  1.0000
  C   C1605     1.0  0.97221  0.84112  0.77941  1.0000
  H   H2753     1.0  0.78242  0.96076  0.74326  1.0000
  Fe  Fe231     1.0  0.68932  0.79614  0.51723  1.0000
  C   C1606     1.0  0.59248  0.98792  0.79765  1.0000
  C   C1607     1.0  0.80059  0.99653  0.59397  1.0000
  S   S474      1.0  0.81887  0.00251  0.55214  1.0000
  Fe  Fe232     1.0  0.99797  0.85614  0.71157  1.0000
  H   H2754     1.0  0.79658  0.94524  0.69770  1.0000
  H   H2755     1.0  0.78605  0.98960  0.86265  1.0000
  H   H2756     1.0  0.80091  0.98566  0.69852  1.0000
  H   H2757     1.0  0.52675  0.84464  0.01406  1.0000
  C   C1608     1.0  0.79789  0.94710  0.71519  1.0000
  C   C1609     1.0  0.60901  0.81259  0.58901  1.0000
  C   C1610     1.0  0.60189  0.81158  0.61102  1.0000
  C   C1611     1.0  0.57965  0.81230  0.61725  1.0000
  C   C1612     1.0  0.56436  0.81402  0.60149  1.0000
  C   C1613     1.0  0.57148  0.81514  0.57954  1.0000
  C   C1614     1.0  0.59367  0.81440  0.57330  1.0000
  C   C1615     1.0  0.82007  0.00124  0.62666  1.0000
  H   H2758     1.0  0.57433  0.81158  0.63418  1.0000
  H   H2759     1.0  0.55975  0.81651  0.56723  1.0000
  H   H2760     1.0  0.59892  0.81522  0.55633  1.0000
  C   C1616     1.0  0.93862  0.81842  0.80946  1.0000
  H   H2761     1.0  0.53613  0.88635  0.62143  1.0000
  C   C1617     1.0  0.77230  0.90041  0.52782  1.0000
  H   H2762     1.0  0.80016  0.93065  0.72279  1.0000
  H   H2763     1.0  0.92403  0.85441  0.78860  1.0000
  H   H2764     1.0  0.59580  0.01212  0.72121  1.0000
  H   H2765     1.0  0.83316  0.94861  0.65747  1.0000
  C   C1618     1.0  0.59430  0.78041  0.00684  1.0000
  H   H2766     1.0  0.54240  0.92987  0.65706  1.0000
  C   C1619     1.0  0.78434  0.00539  0.85358  1.0000
  C   C1620     1.0  0.65874  0.01039  0.56644  1.0000
  H   H2767     1.0  0.69389  0.87897  0.54115  1.0000
  S   S475      1.0  0.76256  0.81407  0.00638  1.0000
  H   H2768     1.0  0.91676  0.98201  0.61323  1.0000
  C   C1621     1.0  0.90794  0.96966  0.62315  1.0000
  H   H2769     1.0  0.95260  0.78262  0.75283  1.0000
  C   C1622     1.0  0.92844  0.85678  0.77117  1.0000
  C   C1623     1.0  0.75608  0.97715  0.69777  1.0000
  H   H2770     1.0  0.83606  0.94231  0.58381  1.0000
  H   H2771     1.0  0.74327  0.96583  0.70278  1.0000
  H   H2772     1.0  0.84068  0.92671  0.64093  1.0000
  C   C1624     1.0  0.00330  0.78127  0.59337  1.0000
  Fe  Fe233     1.0  0.67311  0.00718  0.84846  1.0000
  H   H2773     1.0  0.68083  0.99683  0.53134  1.0000
  H   H2774     1.0  0.93938  0.87035  0.76858  1.0000
  C   C1625     1.0  0.75648  0.99216  0.73351  1.0000
  N   N116      1.0  0.95766  0.82482  0.77140  1.0000
  C   C1626     1.0  0.78913  0.81958  0.95477  1.0000
  C   C1627     1.0  0.58125  0.79829  0.01346  1.0000
  Fe  Fe234     1.0  0.72821  0.82946  0.01163  1.0000
  H   H2775     1.0  0.64883  0.00783  0.58176  1.0000
  H   H2776     1.0  0.58338  0.77633  0.65058  1.0000
  H   H2777     1.0  0.78729  0.99145  0.62666  1.0000
  Fe  Fe235     1.0  0.79059  0.99716  0.53122  1.0000
  C   C1628     1.0  0.51796  0.89290  0.72593  1.0000
  C   C1629     1.0  0.59956  0.01405  0.82427  1.0000
  H   H2778     1.0  0.85506  0.92976  0.66493  1.0000
  H   H2779     1.0  0.98428  0.80257  0.76148  1.0000
  H   H2780     1.0  0.80412  0.79303  0.99574  1.0000
  H   H2781     1.0  0.98783  0.82094  0.80510  1.0000
  C   C1630     1.0  0.61448  0.98105  0.79717  1.0000
  H   H2782     1.0  0.70938  0.99651  0.52726  1.0000
  H   H2783     1.0  0.96951  0.78871  0.72948  1.0000
  N   N117      1.0  0.76704  0.85585  0.94797  1.0000
  C   C1631     1.0  0.76777  0.83141  0.94817  1.0000
  C   C1632     1.0  0.74619  0.86395  0.93832  1.0000
  C   C1633     1.0  0.76644  0.86220  0.97126  1.0000
  C   C1634     1.0  0.78681  0.86374  0.93537  1.0000
  H   H2784     1.0  0.91706  0.90132  0.62249  1.0000
  C   C1635     1.0  0.74350  0.85777  0.91475  1.0000
  C   C1636     1.0  0.76663  0.88648  0.97540  1.0000
  C   C1637     1.0  0.78549  0.88732  0.92598  1.0000
  H   H2785     1.0  0.75438  0.82506  0.95902  1.0000
  H   H2786     1.0  0.76524  0.82546  0.93191  1.0000
  H   H2787     1.0  0.74370  0.88173  0.93874  1.0000
  H   H2788     1.0  0.73209  0.85791  0.94830  1.0000
  H   H2789     1.0  0.75187  0.85600  0.98026  1.0000
  H   H2790     1.0  0.78037  0.85470  0.97976  1.0000
  H   H2791     1.0  0.80109  0.86180  0.94553  1.0000
  H   H2792     1.0  0.79077  0.85342  0.92122  1.0000
  H   H2793     1.0  0.61368  0.81020  0.62326  1.0000
  C   C1638     1.0  0.80133  0.99601  0.61672  1.0000
  H   H2794     1.0  0.96354  0.85230  0.79081  1.0000
  H   H2795     1.0  0.75845  0.85918  0.90428  1.0000
  H   H2796     1.0  0.89963  0.90636  0.60070  1.0000
  H   H2797     1.0  0.73088  0.86870  0.90753  1.0000
  H   H2798     1.0  0.94312  0.84126  0.74371  1.0000
  C   C1639     1.0  0.77794  0.95876  0.72630  1.0000
  C   C1640     1.0  0.73833  0.97957  0.74553  1.0000
  H   H2799     1.0  0.80133  0.89449  0.92736  1.0000
  H   H2800     1.0  0.77326  0.89834  0.93401  1.0000
  H   H2801     1.0  0.78286  0.88764  0.90838  1.0000
  N   N118      1.0  0.56461  0.87640  0.65628  1.0000
  C   C1641     1.0  0.56609  0.87273  0.68043  1.0000
  C   C1642     1.0  0.56257  0.90051  0.65174  1.0000
  C   C1643     1.0  0.58519  0.86679  0.64530  1.0000
  C   C1644     1.0  0.54516  0.86530  0.64963  1.0000
  C   C1645     1.0  0.57075  0.84912  0.68849  1.0000
  C   C1646     1.0  0.54266  0.91260  0.66263  1.0000
  C   C1647     1.0  0.59318  0.87733  0.62344  1.0000
  C   C1648     1.0  0.95029  0.80897  0.78905  1.0000
  H   H2802     1.0  0.57887  0.88250  0.68646  1.0000
  H   H2803     1.0  0.55080  0.87817  0.68926  1.0000
  H   H2804     1.0  0.56199  0.90456  0.63415  1.0000
  H   H2805     1.0  0.57717  0.90817  0.65688  1.0000
  H   H2806     1.0  0.59909  0.86759  0.65581  1.0000
  H   H2807     1.0  0.58380  0.84927  0.64275  1.0000
  H   H2808     1.0  0.54738  0.84748  0.65219  1.0000
  H   H2809     1.0  0.53058  0.87009  0.66004  1.0000
  H   H2810     1.0  0.58615  0.84186  0.68143  1.0000
  H   H2811     1.0  0.57198  0.84878  0.70633  1.0000
  H   H2812     1.0  0.55732  0.83884  0.68549  1.0000
  Fe  Fe236     1.0  0.53281  0.76804  0.01266  1.0000
  H   H2813     1.0  0.52726  0.90627  0.65814  1.0000
  H   H2814     1.0  0.54324  0.91244  0.68050  1.0000
  H   H2815     1.0  0.60004  0.89315  0.62587  1.0000
  H   H2816     1.0  0.58061  0.87964  0.61155  1.0000
  H   H2817     1.0  0.60640  0.86675  0.61601  1.0000
  H   H2818     1.0  0.76696  0.95035  0.67693  1.0000
  S   S476      1.0  0.63574  0.83337  0.51995  1.0000
  H   H2819     1.0  0.90078  0.97783  0.63763  1.0000
  N   N119      1.0  0.62840  0.94507  0.87391  1.0000
  C   C1649     1.0  0.64017  0.94439  0.89465  1.0000
  C   C1650     1.0  0.62593  0.96842  0.86620  1.0000
  C   C1651     1.0  0.64266  0.93283  0.85750  1.0000
  C   C1652     1.0  0.60700  0.93479  0.87826  1.0000
  C   C1653     1.0  0.64408  0.92186  0.90579  1.0000
  C   C1654     1.0  0.61375  0.98385  0.88220  1.0000
  C   C1655     1.0  0.63391  0.93104  0.83495  1.0000
  C   C1656     1.0  0.58886  0.94154  0.86277  1.0000
  H   H2820     1.0  0.65617  0.95168  0.89188  1.0000
  H   H2821     1.0  0.63112  0.95418  0.90715  1.0000
  H   H2822     1.0  0.61757  0.97033  0.85093  1.0000
  H   H2823     1.0  0.64206  0.97497  0.86206  1.0000
  H   H2824     1.0  0.65861  0.94026  0.85505  1.0000
  H   H2825     1.0  0.64621  0.91589  0.86323  1.0000
  H   H2826     1.0  0.60938  0.91684  0.87837  1.0000
  H   H2827     1.0  0.60020  0.93880  0.89475  1.0000
  H   H2828     1.0  0.65533  0.91117  0.89607  1.0000
  H   H2829     1.0  0.65193  0.92385  0.92123  1.0000
  H   H2830     1.0  0.62885  0.91375  0.90996  1.0000
  H   H2831     1.0  0.97812  0.85183  0.76569  1.0000
  H   H2832     1.0  0.83301  0.95494  0.60919  1.0000
  C   C1657     1.0  0.53936  0.86906  0.62590  1.0000
  H   H2833     1.0  0.61983  0.92073  0.83559  1.0000
  H   H2834     1.0  0.64666  0.92297  0.82431  1.0000
  H   H2835     1.0  0.62996  0.94696  0.82705  1.0000
  H   H2836     1.0  0.57872  0.92755  0.86118  1.0000
  H   H2837     1.0  0.59430  0.94667  0.84614  1.0000
  H   H2838     1.0  0.57775  0.95437  0.86985  1.0000
  Fe  Fe237     1.0  0.72150  0.00278  0.83407  1.0000
  H   H2839     1.0  0.76459  0.88868  0.99313  1.0000
  H   H2840     1.0  0.85129  0.96513  0.58769  1.0000
  C   C1658     1.0  0.70862  0.90983  0.54145  1.0000
  C   C1659     1.0  0.61344  0.81972  0.01201  1.0000
  C   C1660     1.0  0.79436  0.78113  0.00421  1.0000
  H   H2841     1.0  0.76481  0.94719  0.72743  1.0000
  H   H2842     1.0  0.78234  0.89310  0.96995  1.0000
  C   C1661     1.0  0.77291  0.78696  0.01129  1.0000
  C   C1662     1.0  0.62897  0.99066  0.81007  1.0000
  C   C1663     1.0  0.93856  0.83614  0.76078  1.0000
  H   H2843     1.0  0.60848  0.99899  0.87331  1.0000
  H   H2844     1.0  0.58712  0.76518  0.00478  1.0000
  C   C1664     1.0  0.51434  0.91544  0.72737  1.0000
  H   H2845     1.0  0.55188  0.86162  0.61468  1.0000
  C   C1665     1.0  0.99219  0.83172  0.79097  1.0000
  Fe  Fe238     1.0  0.84744  0.00110  0.67846  1.0000
  N   N120      1.0  0.87711  0.94358  0.62050  1.0000
  C   C1666     1.0  0.89055  0.96086  0.60956  1.0000
  C   C1667     1.0  0.86341  0.93492  0.60382  1.0000
  C   C1668     1.0  0.89102  0.92518  0.62975  1.0000
  C   C1669     1.0  0.86349  0.95345  0.63884  1.0000
  C   C1670     1.0  0.58505  0.00437  0.81142  1.0000
  C   C1671     1.0  0.84497  0.95041  0.59594  1.0000
  C   C1672     1.0  0.90759  0.91423  0.61362  1.0000
  C   C1673     1.0  0.84735  0.93858  0.65115  1.0000
  H   H2846     1.0  0.89881  0.95516  0.59425  1.0000
  H   H2847     1.0  0.88004  0.97514  0.60459  1.0000
  H   H2848     1.0  0.85630  0.91952  0.60962  1.0000
  H   H2849     1.0  0.87353  0.93054  0.58906  1.0000
  H   H2850     1.0  0.89996  0.93043  0.64346  1.0000
  H   H2851     1.0  0.88083  0.91225  0.63703  1.0000
  H   H2852     1.0  0.87392  0.95882  0.65137  1.0000
  H   H2853     1.0  0.85468  0.96869  0.63362  1.0000
  S   S477      1.0  0.82003  0.99988  0.65540  1.0000
  C   C1674     1.0  0.99740  0.78097  0.61567  1.0000
  S   S478      1.0  0.65507  0.80261  0.00107  1.0000
  H   H2854     1.0  0.76901  0.00569  0.84532  1.0000
  H   H2855     1.0  0.56811  0.00956  0.81221  1.0000
  C   C1675     1.0  0.81859  0.00245  0.58088  1.0000
  Fe  Fe239     1.0  0.67920  0.82782  0.00766  1.0000
  C   C1676     1.0  0.61678  0.78215  0.00297  1.0000
  H   H2856     1.0  0.72655  0.97416  0.73442  1.0000
  S   S479      1.0  0.78556  0.96445  0.51838  1.0000
  C   C1677     1.0  0.83728  0.00787  0.59083  1.0000
  H   H2857     1.0  0.85252  0.01148  0.62099  1.0000
  H   H2858     1.0  0.77739  0.77748  0.55265  1.0000
  H   H2859     1.0  0.94465  0.80405  0.73343  1.0000
  H   H2860     1.0  0.54943  0.77417  0.63111  1.0000
  H   H2861     1.0  0.98684  0.76885  0.62252  1.0000
  H   H2862     1.0  0.00081  0.84523  0.79712  1.0000
  H   H2863     1.0  0.00034  0.79575  0.64635  1.0000
  H   H2864     1.0  0.67369  0.99987  0.56788  1.0000
  C   C1678     1.0  0.83808  0.00720  0.61359  1.0000
  H   H2865     1.0  0.79847  0.99643  0.72422  1.0000
  H   H2866     1.0  0.79804  0.00587  0.84124  1.0000
  S   S480      1.0  0.51499  0.76823  0.98213  1.0000
  C   C1679     1.0  0.78903  0.99385  0.70988  1.0000
  H   H2867     1.0  0.62670  0.76815  0.99794  1.0000
  H   H2868     1.0  0.75837  0.97496  0.66268  1.0000
  H   H2869     1.0  0.57865  0.01273  0.74507  1.0000
  H   H2870     1.0  0.76675  0.99742  0.74617  1.0000
  H   H2871     1.0  0.78391  0.97312  0.67338  1.0000
  H   H2872     1.0  0.85126  0.01256  0.58085  1.0000
  H   H2873     1.0  0.58287  0.76923  0.67876  1.0000
  H   H2874     1.0  0.76682  0.91768  0.52874  1.0000
  H   H2875     1.0  0.75886  0.89019  0.53352  1.0000
  H   H2876     1.0  0.78512  0.89751  0.53955  1.0000
  H   H2877     1.0  0.74674  0.99239  0.69329  1.0000
  H   H2878     1.0  0.60756  0.01390  0.74650  1.0000
  H   H2879     1.0  0.62062  0.83499  0.01367  1.0000
  H   H2880     1.0  0.57395  0.76469  0.61769  1.0000
  Fe  Fe240     1.0  0.70752  0.01421  0.88108  1.0000
  C   C1680     1.0  0.78735  0.76462  0.54420  1.0000
