data_image0
_chemical_formula_structural       HC2HNCH2SHFeSHFeSFeHSH2C2HCSCSCH3C2H3C3H3NHS2C2HC3H2SH2CH6CHC3H2CH3CHCH2FeCSHC2H3CFeNCH2CHFeH5CH2CHCH5SCH2CHCHCHSH3FeC2H2FeCHCH2CH5CFeC2SFeS2FeSCSFeSCHFeC3H3CHC3H4SC2H4CH2CSCS2H2CFeHC3HC6HCH5SNHNCH4CHNH2C3H2CHC2H2NH6CH7CH3CH9CHCH4CHC2H2CSH2SHFeC3H3CNH2CHCH4FeCHFeHSHCH6C3HCHCHCSC2SCH5C2SCH2CHNCFeCH3CH2S2C2H3S2CH4CNHFeC2S3H6CH2C2H5CH2C2FeHCH7C2H2SCH2CHS2FeHSHCHSH2FeHCHCHC2H2C2FeCHC3H3CH2CSCH3C2H2FeCSCH3CH2CHFeHC2H8CHCSNHSHC2SHC2H7NC4H5SHSHC2HCHCH4CH6SCSH4CH2C2HCFeH2CHFeCH3SC2H2C3H2SFeHFeCHCSHCNHCSHCH2C2NC7H19CNH6SCHCSCHCHCH7C2H3C2HC2H2CH2CHSHCHNFeS3H5SH4CSHC3H3C2H3FeCH2CH8CHCHC2H3C2HFeCSHS2NC2HCHSNC3FeCHCHCH3FeC3HSCHC2H2SCHC3H11C2H2CHFeH3CH2SH3C3H9CHSHSHC2FeHSH2SCHC2H3SHCSCH2CSCH4CHCH3CHSCHCH2CH2C3H3C2H2C2H3SCH2CS2HCHCH5C2FeHNFeH2CH4C3H5FeSC3NFeHSHCH2CFeCH2CH7C3SH2FeHNCHSCH2C2SFeC3HSCH3C2H4FeHSCH3FeNCH2CFeH2C2H3C2HC2SHCH3C2FeH3SHC2HN2C5SHCH10CHC2HCHCSH4S2CH2CHFeHCH3SCSH5C2H2SCHCH2CH2
_chemical_formula_sum              "H576 C336 N24 S96 Fe48"
_cell_length_a       39.3539
_cell_length_b       39.0847
_cell_length_c       39.3069
_cell_angle_alpha    89.906
_cell_angle_beta     90.0296
_cell_angle_gamma    96.5629

_space_group_name_H-M_alt    "P 1"
_space_group_IT_number       1

loop_
  _space_group_symop_operation_xyz
  'x, y, z'

loop_
  _atom_site_type_symbol
  _atom_site_label
  _atom_site_symmetry_multiplicity
  _atom_site_fract_x
  _atom_site_fract_y
  _atom_site_fract_z
  _atom_site_occupancy
  H   H1        1.0  0.99754  0.46806  0.40728  1.0000
  C   C1        1.0  0.27985  0.29993  0.01798  1.0000
  C   C2        1.0  0.98572  0.46234  0.43265  1.0000
  H   H2        1.0  0.17549  0.07274  0.38306  1.0000
  N   N1        1.0  0.34515  0.99239  0.46283  1.0000
  C   C3        1.0  0.47052  0.17145  0.07777  1.0000
  H   H3        1.0  0.34281  0.20967  0.05216  1.0000
  H   H4        1.0  0.19717  0.11764  0.30575  1.0000
  S   S1        1.0  0.43608  0.29377  0.00484  1.0000
  H   H5        1.0  0.21350  0.02861  0.27424  1.0000
  Fe  Fe1       1.0  0.43772  0.23611  0.00422  1.0000
  S   S2        1.0  0.41581  0.20141  0.04847  1.0000
  H   H6        1.0  0.08705  0.45893  0.11168  1.0000
  Fe  Fe2       1.0  0.17807  0.06393  0.45566  1.0000
  S   S3        1.0  0.15466  0.11248  0.43758  1.0000
  Fe  Fe3       1.0  0.22587  0.01204  0.42876  1.0000
  H   H7        1.0  0.36064  0.35096  0.00316  1.0000
  S   S4        1.0  0.16855  0.01347  0.42723  1.0000
  H   H8        1.0  0.07682  0.44339  0.99754  1.0000
  H   H9        1.0  0.30272  0.20094  0.03203  1.0000
  C   C4        1.0  0.46355  0.12729  0.12290  1.0000
  C   C5        1.0  0.16434  0.08239  0.27614  1.0000
  H   H10       1.0  0.02385  0.40585  0.34804  1.0000
  C   C6        1.0  0.16838  0.07855  0.35647  1.0000
  S   S5        1.0  0.38358  0.04745  0.29051  1.0000
  C   C7        1.0  0.06838  0.17692  0.47253  1.0000
  S   S6        1.0  0.23562  0.06410  0.45310  1.0000
  C   C8        1.0  0.43510  0.17264  0.07629  1.0000
  H   H11       1.0  0.31114  0.22543  0.10661  1.0000
  H   H12       1.0  0.29751  0.01074  0.44763  1.0000
  H   H13       1.0  0.99857  0.44048  0.30341  1.0000
  C   C9        1.0  0.42810  0.12822  0.12119  1.0000
  C   C10       1.0  0.41408  0.15085  0.09824  1.0000
  H   H14       1.0  0.36834  0.24581  0.09369  1.0000
  H   H15       1.0  0.41148  0.11176  0.13778  1.0000
  H   H16       1.0  0.38669  0.15141  0.09750  1.0000
  C   C11       1.0  0.33018  0.05593  0.46172  1.0000
  C   C12       1.0  0.31681  0.21830  0.05095  1.0000
  C   C13       1.0  0.99695  0.40047  0.34200  1.0000
  H   H17       1.0  0.12990  0.03303  0.35962  1.0000
  H   H18       1.0  0.23832  0.13406  0.34265  1.0000
  H   H19       1.0  0.25239  0.30368  0.01556  1.0000
  N   N2        1.0  0.31861  0.25531  0.03955  1.0000
  H   H20       1.0  0.31912  0.28150  0.08831  1.0000
  S   S7        1.0  0.46946  0.05951  0.24531  1.0000
  S   S8        1.0  0.25526  0.99152  0.38404  1.0000
  C   C14       1.0  0.34400  0.36206  0.98539  1.0000
  C   C15       1.0  0.30733  0.04129  0.36173  1.0000
  H   H21       1.0  0.26375  0.11706  0.37466  1.0000
  C   C16       1.0  0.12023  0.13579  0.45114  1.0000
  C   C17       1.0  0.08646  0.18450  0.44222  1.0000
  C   C18       1.0  0.11234  0.16432  0.43186  1.0000
  H   H22       1.0  0.08100  0.20639  0.42713  1.0000
  H   H23       1.0  0.12644  0.17107  0.40875  1.0000
  S   S9        1.0  0.40984  0.02639  0.19182  1.0000
  H   H24       1.0  0.21910  0.08764  0.28453  1.0000
  H   H25       1.0  0.40616  0.01833  0.42122  1.0000
  C   C19       1.0  0.29129  0.00760  0.35872  1.0000
  H   H26       1.0  0.30113  0.18244  0.09175  1.0000
  H   H27       1.0  0.46684  0.40993  0.02187  1.0000
  H   H28       1.0  0.13137  0.47745  0.06824  1.0000
  H   H29       1.0  0.23244  0.05971  0.37108  1.0000
  H   H30       1.0  0.99361  0.36920  0.47566  1.0000
  H   H31       1.0  0.03094  0.44128  0.44887  1.0000
  C   C20       1.0  0.00290  0.43308  0.44931  1.0000
  H   H32       1.0  0.33212  0.98548  0.40951  1.0000
  C   C21       1.0  0.13166  0.06058  0.35213  1.0000
  C   C22       1.0  0.37070  0.27035  0.07922  1.0000
  C   C23       1.0  0.19099  0.03057  0.32564  1.0000
  H   H33       1.0  0.17245  0.08823  0.24947  1.0000
  H   H34       1.0  0.37081  0.04293  0.41172  1.0000
  C   C24       1.0  0.30399  0.98567  0.33460  1.0000
  H   H35       1.0  0.26891  0.26440  0.05896  1.0000
  H   H36       1.0  0.14414  0.09886  0.28291  1.0000
  H   H37       1.0  0.16674  0.10683  0.35587  1.0000
  C   C25       1.0  0.98267  0.42019  0.31649  1.0000
  H   H38       1.0  0.16508  0.02132  0.31616  1.0000
  C   C26       1.0  0.32270  0.38660  0.99675  1.0000
  H   H39       1.0  0.29190  0.32132  0.03394  1.0000
  H   H40       1.0  0.27136  0.21280  0.08428  1.0000
  Fe  Fe4       1.0  0.00115  0.24216  0.47007  1.0000
  C   C27       1.0  0.34806  0.03101  0.31637  1.0000
  S   S10       1.0  0.00828  0.30032  0.47610  1.0000
  H   H41       1.0  0.21984  0.12019  0.38343  1.0000
  C   C28       1.0  0.38013  0.01741  0.41021  1.0000
  C   C29       1.0  0.29902  0.20985  0.08542  1.0000
  H   H42       1.0  0.38167  0.29084  0.09691  1.0000
  H   H43       1.0  0.38947  0.26889  0.05854  1.0000
  H   H44       1.0  0.11453  0.07282  0.36975  1.0000
  C   C30       1.0  0.33536  0.05290  0.34060  1.0000
  Fe  Fe5       1.0  0.46249  0.05582  0.18821  1.0000
  N   N3        1.0  0.19546  0.06889  0.33215  1.0000
  C   C31       1.0  0.19556  0.08968  0.29982  1.0000
  H   H45       1.0  0.42400  0.43577  0.98760  1.0000
  H   H46       1.0  0.38282  0.01188  0.38265  1.0000
  C   C32       1.0  0.33596  0.27943  0.06584  1.0000
  H   H47       1.0  0.34494  0.28680  0.99995  1.0000
  Fe  Fe6       1.0  0.41791  0.02724  0.24908  1.0000
  H   H48       1.0  0.34737  0.07911  0.34296  1.0000
  H   H49       1.0  0.29797  0.05856  0.38001  1.0000
  H   H50       1.0  0.32310  0.39391  0.02330  1.0000
  H   H51       1.0  0.42616  0.38535  0.02713  1.0000
  H   H52       1.0  0.25110  0.07348  0.33146  1.0000
  C   C33       1.0  0.22984  0.07737  0.34917  1.0000
  H   H53       1.0  0.34084  0.30605  0.05546  1.0000
  H   H54       1.0  0.19327  0.01624  0.34995  1.0000
  C   C34       1.0  0.44683  0.39277  0.00838  1.0000
  H   H55       1.0  0.35746  0.06385  0.46691  1.0000
  C   C35       1.0  0.23783  0.11441  0.36304  1.0000
  H   H56       1.0  0.15326  0.05513  0.27571  1.0000
  H   H57       1.0  0.26737  0.24452  0.01864  1.0000
  H   H58       1.0  0.32408  0.06451  0.43573  1.0000
  H   H59       1.0  0.05389  0.39330  0.46834  1.0000
  H   H60       1.0  0.12140  0.06297  0.32621  1.0000
  S   S11       1.0  0.99695  0.34929  0.39109  1.0000
  C   C36       1.0  0.33904  0.25923  0.00707  1.0000
  H   H61       1.0  0.99962  0.41067  0.43174  1.0000
  H   H62       1.0  0.36441  0.24976  0.01059  1.0000
  C   C37       1.0  0.28274  0.26437  0.03427  1.0000
  H   H63       1.0  0.45723  0.36884  0.00067  1.0000
  C   C38       1.0  0.35520  0.98845  0.42607  1.0000
  H   H64       1.0  0.24307  0.02220  0.30844  1.0000
  C   C39       1.0  0.21613  0.01746  0.29992  1.0000
  H   H65       1.0  0.21030  0.98907  0.29750  1.0000
  S   S12       1.0  0.27376  0.43205  0.99059  1.0000
  H   H66       1.0  0.31614  0.07075  0.48006  1.0000
  H   H67       1.0  0.18687  0.17604  0.47195  1.0000
  H   H68       1.0  0.39149  0.02644  0.47508  1.0000
  Fe  Fe7       1.0  0.16773  0.98829  0.47873  1.0000
  C   C40       1.0  0.31851  0.01709  0.46631  1.0000
  C   C41       1.0  0.33221  0.99719  0.31365  1.0000
  H   H69       1.0  0.02210  0.45768  0.01475  1.0000
  H   H70       1.0  0.29075  0.30218  0.99196  1.0000
  Fe  Fe8       1.0  0.97942  0.30291  0.42624  1.0000
  C   C42       1.0  0.10152  0.12764  0.48094  1.0000
  H   H71       1.0  0.28410  0.40318  0.92221  1.0000
  C   C43       1.0  0.05407  0.45178  0.73688  1.0000
  H   H72       1.0  0.03227  0.48192  0.81743  1.0000
  H   H73       1.0  0.09531  0.41038  0.77158  1.0000
  C   C44       1.0  0.30080  0.40181  0.97422  1.0000
  H   H74       1.0  0.38124  0.42415  0.93128  1.0000
  H   H75       1.0  0.19721  0.20142  0.50883  1.0000
  H   H76       1.0  0.26143  0.15759  0.60020  1.0000
  H   H77       1.0  0.30523  0.01393  0.49135  1.0000
  H   H78       1.0  0.44956  0.37010  0.87884  1.0000
  C   C45       1.0  0.47141  0.38157  0.89458  1.0000
  Fe  Fe9       1.0  0.46230  0.23684  0.92993  1.0000
  C   C46       1.0  0.29637  0.99923  0.57547  1.0000
  C   C47       1.0  0.20170  0.17708  0.49605  1.0000
  S   S13       1.0  0.46277  0.29468  0.92519  1.0000
  Fe  Fe10      1.0  0.44305  0.05939  0.73494  1.0000
  S   S14       1.0  0.41042  0.00822  0.73947  1.0000
  S   S15       1.0  0.42783  0.10635  0.76414  1.0000
  Fe  Fe11      1.0  0.41452  0.00507  0.68196  1.0000
  S   S16       1.0  0.37033  0.98464  0.64595  1.0000
  C   C48       1.0  0.34357  0.35192  0.95118  1.0000
  S   S17       1.0  0.17491  0.03895  0.50725  1.0000
  Fe  Fe12      1.0  0.23165  0.03522  0.50311  1.0000
  S   S18       1.0  0.27155  0.05549  0.54324  1.0000
  C   C49       1.0  0.34315  0.00504  0.61758  1.0000
  H   H79       1.0  0.42240  0.09367  0.90474  1.0000
  Fe  Fe13      1.0  0.41217  0.28858  0.95319  1.0000
  C   C50       1.0  0.29849  0.03505  0.57176  1.0000
  C   C51       1.0  0.32322  0.05566  0.59097  1.0000
  C   C52       1.0  0.34542  0.04084  0.61360  1.0000
  H   H80       1.0  0.32531  0.08337  0.58837  1.0000
  H   H81       1.0  0.36417  0.05713  0.62816  1.0000
  H   H82       1.0  0.45572  0.08824  0.87550  1.0000
  C   C53       1.0  0.37333  0.03990  0.82547  1.0000
  H   H83       1.0  0.24707  0.12167  0.53052  1.0000
  C   C54       1.0  0.44333  0.13099  0.80038  1.0000
  C   C55       1.0  0.42254  0.15406  0.81506  1.0000
  C   C56       1.0  0.43396  0.17494  0.84310  1.0000
  H   H84       1.0  0.09517  0.45100  0.79016  1.0000
  H   H85       1.0  0.03290  0.45912  0.50428  1.0000
  H   H86       1.0  0.39740  0.15595  0.80457  1.0000
  H   H87       1.0  0.41766  0.19262  0.85387  1.0000
  S   S19       1.0  0.40993  0.23023  0.95374  1.0000
  C   C57       1.0  0.46669  0.17352  0.85659  1.0000
  C   C58       1.0  0.47582  0.12904  0.81425  1.0000
  H   H88       1.0  0.06713  0.45535  0.86089  1.0000
  H   H89       1.0  0.32102  0.35967  0.90216  1.0000
  H   H90       1.0  0.03991  0.40266  0.76469  1.0000
  H   H91       1.0  0.15510  0.46715  0.77842  1.0000
  C   C59       1.0  0.99376  0.37996  0.61640  1.0000
  H   H92       1.0  0.04396  0.46262  0.71323  1.0000
  H   H93       1.0  0.10853  0.46015  0.96660  1.0000
  C   C60       1.0  0.30074  0.39199  0.93996  1.0000
  S   S20       1.0  0.36947  0.32058  0.93504  1.0000
  C   C61       1.0  0.32175  0.36716  0.92867  1.0000
  S   S21       1.0  0.44358  0.05767  0.67743  1.0000
  S   S22       1.0  0.03742  0.20315  0.48880  1.0000
  H   H94       1.0  0.19619  0.11382  0.59909  1.0000
  H   H95       1.0  0.99374  0.37995  0.51905  1.0000
  C   C62       1.0  0.00063  0.44375  0.54717  1.0000
  Fe  Fe14      1.0  0.23818  0.47153  0.97116  1.0000
  H   H96       1.0  0.15710  0.43177  0.74890  1.0000
  C   C63       1.0  0.38939  0.00926  0.84082  1.0000
  C   C64       1.0  0.08166  0.44915  0.97024  1.0000
  C   C65       1.0  0.26268  0.13674  0.58134  1.0000
  H   H97       1.0  0.39213  0.43700  0.88881  1.0000
  C   C66       1.0  0.05673  0.47277  0.95504  1.0000
  C   C67       1.0  0.10296  0.43412  0.70379  1.0000
  C   C68       1.0  0.03321  0.41625  0.74133  1.0000
  C   C69       1.0  0.40057  0.42242  0.91096  1.0000
  C   C70       1.0  0.43639  0.43853  0.92252  1.0000
  C   C71       1.0  0.32268  0.23989  0.97579  1.0000
  H   H98       1.0  0.14377  0.07921  0.58603  1.0000
  C   C72       1.0  0.24238  0.14262  0.54858  1.0000
  H   H99       1.0  0.35892  0.98397  0.53515  1.0000
  H   H100      1.0  0.00574  0.41983  0.74376  1.0000
  H   H101      1.0  0.07855  0.42417  0.95651  1.0000
  H   H102      1.0  0.39020  0.05481  0.80693  1.0000
  H   H103      1.0  0.14289  0.09334  0.54317  1.0000
  S   S23       1.0  0.18035  0.46707  0.97700  1.0000
  N   N4        1.0  0.09246  0.45241  0.73526  1.0000
  H   H104      1.0  0.01906  0.37925  0.62695  1.0000
  N   N5        1.0  0.45457  0.41705  0.94701  1.0000
  C   C73       1.0  0.10313  0.39457  0.70617  1.0000
  H   H105      1.0  0.44388  0.05745  0.82194  1.0000
  H   H106      1.0  0.99981  0.34054  0.57877  1.0000
  H   H107      1.0  0.01500  0.42243  0.55550  1.0000
  H   H108      1.0  0.43320  0.46400  0.93407  1.0000
  C   C74       1.0  0.36989  0.00801  0.52233  1.0000
  H   H109      1.0  0.06256  0.47423  0.92734  1.0000
  N   N6        1.0  0.20443  0.14425  0.55294  1.0000
  H   H110      1.0  0.43722  0.36399  0.93495  1.0000
  H   H111      1.0  0.44725  0.01541  0.80759  1.0000
  C   C75       1.0  0.18981  0.11198  0.57149  1.0000
  C   C76       1.0  0.19979  0.17603  0.57339  1.0000
  C   C77       1.0  0.00514  0.45153  0.50881  1.0000
  H   H112      1.0  0.33884  0.24694  0.95314  1.0000
  H   H113      1.0  0.10661  0.10554  0.49584  1.0000
  C   C78       1.0  0.16326  0.18668  0.57618  1.0000
  H   H114      1.0  0.03486  0.40003  0.71842  1.0000
  C   C79       1.0  0.18931  0.14511  0.51772  1.0000
  C   C80       1.0  0.44937  0.03175  0.83085  1.0000
  H   H115      1.0  0.39452  0.01638  0.53533  1.0000
  H   H116      1.0  0.29007  0.13645  0.57457  1.0000
  N   N7        1.0  0.42402  0.01715  0.85737  1.0000
  H   H117      1.0  0.20852  0.17300  0.60004  1.0000
  H   H118      1.0  0.21686  0.19881  0.56402  1.0000
  H   H119      1.0  0.20172  0.08924  0.56197  1.0000
  H   H120      1.0  0.35316  0.02858  0.52643  1.0000
  H   H121      1.0  0.12956  0.38795  0.71010  1.0000
  H   H122      1.0  0.05585  0.40903  0.51189  1.0000
  C   C81       1.0  0.46078  0.38257  0.93249  1.0000
  H   H123      1.0  0.37014  0.99745  0.85931  1.0000
  H   H124      1.0  0.09476  0.38295  0.68132  1.0000
  H   H125      1.0  0.13570  0.12228  0.57758  1.0000
  H   H126      1.0  0.08632  0.43941  0.68186  1.0000
  H   H127      1.0  0.15056  0.17625  0.59985  1.0000
  H   H128      1.0  0.14644  0.17929  0.55428  1.0000
  H   H129      1.0  0.16476  0.21523  0.57718  1.0000
  C   C82       1.0  0.00378  0.38948  0.49396  1.0000
  H   H130      1.0  0.01102  0.46683  0.56194  1.0000
  H   H131      1.0  0.03046  0.45892  0.95688  1.0000
  H   H132      1.0  0.19456  0.12186  0.50309  1.0000
  C   C83       1.0  0.42228  0.04057  0.88777  1.0000
  H   H133      1.0  0.39064  0.98990  0.82012  1.0000
  H   H134      1.0  0.25509  0.16679  0.53710  1.0000
  H   H135      1.0  0.22895  0.17764  0.48874  1.0000
  H   H136      1.0  0.41252  0.08873  0.86068  1.0000
  H   H137      1.0  0.44134  0.03526  0.90752  1.0000
  H   H138      1.0  0.39700  0.03534  0.90064  1.0000
  H   H139      1.0  0.25443  0.11136  0.59320  1.0000
  H   H140      1.0  0.40023  0.39516  0.90305  1.0000
  H   H141      1.0  0.04676  0.46853  0.75791  1.0000
  C   C84       1.0  0.42850  0.07980  0.88125  1.0000
  H   H142      1.0  0.34990  0.02987  0.81123  1.0000
  C   C85       1.0  0.15083  0.10176  0.56918  1.0000
  H   H143      1.0  0.08601  0.38138  0.72550  1.0000
  H   H144      1.0  0.16111  0.14360  0.51820  1.0000
  H   H145      1.0  0.40774  0.39481  0.97129  1.0000
  H   H146      1.0  0.36499  0.05692  0.84561  1.0000
  C   C86       1.0  0.10512  0.43777  0.76785  1.0000
  H   H147      1.0  0.06251  0.14200  0.51517  1.0000
  C   C87       1.0  0.43185  0.41103  0.97795  1.0000
  C   C88       1.0  0.98291  0.35792  0.58899  1.0000
  H   H148      1.0  0.12943  0.44450  0.69621  1.0000
  H   H149      1.0  0.45139  0.44503  0.89916  1.0000
  C   C89       1.0  0.14432  0.44044  0.77191  1.0000
  S   S24       1.0  0.13267  0.47592  0.89169  1.0000
  H   H150      1.0  0.45984  0.14624  0.70293  1.0000
  H   H151      1.0  0.15065  0.42395  0.79356  1.0000
  S   S25       1.0  0.98740  0.42951  0.66545  1.0000
  H   H152      1.0  0.29701  0.24708  0.96952  1.0000
  Fe  Fe15      1.0  0.46020  0.98473  0.74161  1.0000
  C   C90       1.0  0.07617  0.48045  0.85065  1.0000
  C   C91       1.0  0.07628  0.14834  0.49177  1.0000
  C   C92       1.0  0.37655  0.00249  0.48420  1.0000
  H   H153      1.0  0.04921  0.36408  0.50335  1.0000
  H   H154      1.0  0.99287  0.47535  0.50399  1.0000
  H   H155      1.0  0.47494  0.12985  0.66423  1.0000
  C   C93       1.0  0.04299  0.38957  0.49430  1.0000
  N   N8        1.0  0.99109  0.42320  0.48489  1.0000
  H   H156      1.0  0.46020  0.98724  0.88235  1.0000
  H   H157      1.0  0.32160  0.21158  0.97884  1.0000
  C   C94       1.0  0.31844  0.98442  0.59828  1.0000
  H   H158      1.0  0.06193  0.56253  0.11988  1.0000
  C   C95       1.0  0.04052  0.77418  0.34504  1.0000
  H   H159      1.0  0.44964  0.62515  0.02600  1.0000
  H   H160      1.0  0.06379  0.77757  0.32866  1.0000
  H   H161      1.0  0.17768  0.61690  0.05718  1.0000
  H   H162      1.0  0.09120  0.86603  0.40586  1.0000
  Fe  Fe16      1.0  0.99743  0.51322  0.18379  1.0000
  C   C96       1.0  0.07121  0.50941  0.11897  1.0000
  H   H163      1.0  0.99328  0.56401  0.34027  1.0000
  Fe  Fe17      1.0  0.47197  0.80543  0.00323  1.0000
  H   H164      1.0  0.27360  0.70896  0.05337  1.0000
  S   S26       1.0  0.42094  0.92795  0.16315  1.0000
  H   H165      1.0  0.16830  0.65380  0.07978  1.0000
  C   C97       1.0  0.05560  0.50694  0.00836  1.0000
  H   H166      1.0  0.15821  0.65079  0.03598  1.0000
  H   H167      1.0  0.31243  0.92878  0.42886  1.0000
  H   H168      1.0  0.24890  0.69188  0.99382  1.0000
  H   H169      1.0  0.01060  0.64111  0.33775  1.0000
  H   H170      1.0  0.12917  0.91377  0.43268  1.0000
  H   H171      1.0  0.29185  0.95954  0.33193  1.0000
  C   C98       1.0  0.43716  0.85788  0.08913  1.0000
  C   C99       1.0  0.42305  0.87566  0.11608  1.0000
  C   C100      1.0  0.43809  0.90838  0.12672  1.0000
  H   H172      1.0  0.05328  0.72230  0.35901  1.0000
  C   C101      1.0  0.22121  0.62402  0.99974  1.0000
  H   H173      1.0  0.42546  0.83259  0.08171  1.0000
  C   C102      1.0  0.07684  0.54390  0.10860  1.0000
  H   H174      1.0  0.30943  0.58861  0.99094  1.0000
  C   C103      1.0  0.26277  0.67408  0.00935  1.0000
  S   S27       1.0  0.99823  0.51329  0.24155  1.0000
  C   C104      1.0  0.04568  0.74579  0.37132  1.0000
  C   C105      1.0  0.05393  0.86189  0.44629  1.0000
  S   S28       1.0  0.24488  0.52341  0.99796  1.0000
  C   C106      1.0  0.10580  0.90335  0.44524  1.0000
  H   H175      1.0  0.03273  0.79755  0.28145  1.0000
  H   H176      1.0  0.35318  0.62942  0.02021  1.0000
  H   H177      1.0  0.10651  0.58122  0.07667  1.0000
  H   H178      1.0  0.06692  0.75544  0.38870  1.0000
  H   H179      1.0  0.40049  0.86376  0.12905  1.0000
  C   C107      1.0  0.00952  0.73515  0.30453  1.0000
  C   C108      1.0  0.08422  0.87618  0.43013  1.0000
  S   S29       1.0  0.02846  0.82659  0.42684  1.0000
  C   C109      1.0  0.11628  0.49611  0.07920  1.0000
  H   H180      1.0  0.34153  0.98001  0.29517  1.0000
  H   H181      1.0  0.45644  0.67096  0.02975  1.0000
  C   C110      1.0  0.12223  0.53067  0.06923  1.0000
  H   H182      1.0  0.03322  0.73618  0.28885  1.0000
  N   N9        1.0  0.23801  0.64731  0.02700  1.0000
  C   C111      1.0  0.23896  0.59596  0.06900  1.0000
  Fe  Fe18      1.0  0.43756  0.97849  0.19188  1.0000
  C   C112      1.0  0.34529  0.63493  0.99460  1.0000
  H   H183      1.0  0.22427  0.67527  0.07160  1.0000
  H   H184      1.0  0.98800  0.79528  0.28073  1.0000
  H   H185      1.0  0.20190  0.60396  0.01017  1.0000
  C   C113      1.0  0.10225  0.55441  0.08406  1.0000
  H   H186      1.0  0.98936  0.48636  0.44780  1.0000
  H   H187      1.0  0.05865  0.76812  0.45681  1.0000
  S   S30       1.0  0.15396  0.54572  0.03838  1.0000
  S   S31       1.0  0.98108  0.73796  0.45326  1.0000
  C   C114      1.0  0.09105  0.48566  0.10390  1.0000
  C   C115      1.0  0.28728  0.69724  0.03254  1.0000
  H   H188      1.0  0.09845  0.77698  0.47842  1.0000
  H   H189      1.0  0.03804  0.84279  0.32389  1.0000
  H   H190      1.0  0.99991  0.49587  0.01664  1.0000
  S   S32       1.0  0.98672  0.60398  0.27764  1.0000
  S   S33       1.0  0.39063  0.69370  0.00063  1.0000
  C   C116      1.0  0.25853  0.62670  0.05020  1.0000
  H   H191      1.0  0.02278  0.73908  0.38740  1.0000
  H   H192      1.0  0.20671  0.68891  0.03288  1.0000
  H   H193      1.0  0.22502  0.57704  0.05160  1.0000
  H   H194      1.0  0.27942  0.61647  0.03567  1.0000
  C   C117      1.0  0.46755  0.64817  0.01956  1.0000
  N   N10       1.0  0.00848  0.76852  0.32355  1.0000
  H   H195      1.0  0.30772  0.68292  0.04309  1.0000
  Fe  Fe19      1.0  0.18708  0.52027  0.99952  1.0000
  C   C118      1.0  0.46723  0.92336  0.10945  1.0000
  C   C119      1.0  0.21277  0.66562  0.04703  1.0000
  S   S34       1.0  0.04030  0.49440  0.15067  1.0000
  S   S35       1.0  0.44131  0.97720  0.24943  1.0000
  S   S36       1.0  0.47764  0.74859  0.00952  1.0000
  H   H196      1.0  0.30058  0.71855  0.01706  1.0000
  H   H197      1.0  0.27128  0.64320  0.07057  1.0000
  H   H198      1.0  0.25768  0.58184  0.08284  1.0000
  H   H199      1.0  0.22155  0.60455  0.08859  1.0000
  H   H200      1.0  0.36756  0.96438  0.42270  1.0000
  H   H201      1.0  0.05507  0.53313  0.01922  1.0000
  C   C120      1.0  0.46692  0.87234  0.07259  1.0000
  H   H202      1.0  0.07866  0.49742  0.01964  1.0000
  H   H203      1.0  0.04102  0.79834  0.36005  1.0000
  C   C121      1.0  0.02390  0.48492  0.02296  1.0000
  C   C122      1.0  0.17767  0.64503  0.05498  1.0000
  H   H204      1.0  0.99326  0.83586  0.33494  1.0000
  H   H205      1.0  0.09557  0.57087  0.99816  1.0000
  H   H206      1.0  0.98869  0.51950  0.35130  1.0000
  H   H207      1.0  0.98297  0.67655  0.37995  1.0000
  H   H208      1.0  0.27892  0.66178  0.99086  1.0000
  C   C123      1.0  0.98385  0.64452  0.33497  1.0000
  H   H209      1.0  0.28892  0.91559  0.46638  1.0000
  H   H210      1.0  0.24043  0.60920  0.98747  1.0000
  C   C124      1.0  0.04522  0.87546  0.47759  1.0000
  C   C125      1.0  0.09753  0.91633  0.47698  1.0000
  Fe  Fe20      1.0  0.98048  0.79545  0.44854  1.0000
  H   H211      1.0  0.46154  0.87994  0.20085  1.0000
  C   C126      1.0  0.30145  0.93843  0.45252  1.0000
  H   H212      1.0  0.28119  0.95460  0.44566  1.0000
  H   H213      1.0  0.45497  0.88429  0.26110  1.0000
  H   H214      1.0  0.02593  0.48488  0.05121  1.0000
  H   H215      1.0  0.98405  0.69953  0.26791  1.0000
  H   H216      1.0  0.34933  0.93969  0.47887  1.0000
  H   H217      1.0  0.45527  0.57735  0.98919  1.0000
  H   H218      1.0  0.40462  0.59978  0.98923  1.0000
  C   C127      1.0  0.32940  0.95752  0.47542  1.0000
  C   C128      1.0  0.01004  0.79785  0.29839  1.0000
  H   H219      1.0  0.00645  0.85298  0.29416  1.0000
  H   H220      1.0  0.01062  0.71337  0.32243  1.0000
  S   S37       1.0  0.22435  0.98297  0.47864  1.0000
  C   C129      1.0  0.01198  0.83423  0.31413  1.0000
  H   H221      1.0  0.47899  0.94860  0.11690  1.0000
  H   H222      1.0  0.98309  0.78525  0.36816  1.0000
  C   C130      1.0  0.07192  0.76434  0.48123  1.0000
  H   H223      1.0  0.98335  0.64555  0.65177  1.0000
  S   S38       1.0  0.04616  0.54622  0.77729  1.0000
  S   S39       1.0  0.00036  0.52504  0.68818  1.0000
  Fe  Fe21      1.0  0.24182  0.54559  0.94559  1.0000
  H   H224      1.0  0.12209  0.57861  0.96180  1.0000
  S   S40       1.0  0.18485  0.54660  0.94870  1.0000
  H   H225      1.0  0.04888  0.80671  0.50176  1.0000
  C   C131      1.0  0.09219  0.52825  0.96084  1.0000
  H   H226      1.0  0.31627  0.95673  0.60116  1.0000
  S   S41       1.0  0.27521  0.59299  0.92498  1.0000
  H   H227      1.0  0.45607  0.57191  0.94434  1.0000
  H   H228      1.0  0.40311  0.97764  0.91588  1.0000
  Fe  Fe22      1.0  0.42751  0.73926  0.98084  1.0000
  H   H229      1.0  0.09618  0.83823  0.50812  1.0000
  C   C132      1.0  0.04763  0.79652  0.57065  1.0000
  H   H230      1.0  0.08716  0.72980  0.53856  1.0000
  C   C133      1.0  0.10777  0.49731  0.86191  1.0000
  H   H231      1.0  0.05985  0.74303  0.61025  1.0000
  C   C134      1.0  0.10770  0.48968  0.73348  1.0000
  C   C135      1.0  0.45303  0.59119  0.96461  1.0000
  H   H232      1.0  0.10486  0.74860  0.59864  1.0000
  H   H233      1.0  0.36089  0.69482  0.93206  1.0000
  C   C136      1.0  0.30918  0.61914  0.94543  1.0000
  C   C137      1.0  0.46452  0.91624  0.81189  1.0000
  Fe  Fe23      1.0  0.45009  0.79683  0.92853  1.0000
  C   C138      1.0  0.05635  0.49542  0.82581  1.0000
  H   H234      1.0  0.12302  0.78000  0.53254  1.0000
  C   C139      1.0  0.02889  0.52564  0.95615  1.0000
  C   C140      1.0  0.09929  0.54458  0.82323  1.0000
  C   C141      1.0  0.11890  0.52981  0.84837  1.0000
  H   H235      1.0  0.10871  0.56935  0.81245  1.0000
  H   H236      1.0  0.14307  0.54323  0.85661  1.0000
  H   H237      1.0  0.31594  0.65493  0.90353  1.0000
  C   C142      1.0  0.43666  0.89248  0.80290  1.0000
  H   H238      1.0  0.11240  0.85335  0.54904  1.0000
  H   H239      1.0  0.13914  0.83596  0.51808  1.0000
  C   C143      1.0  0.42700  0.86348  0.82378  1.0000
  S   S42       1.0  0.12522  0.94832  0.49883  1.0000
  C   C144      1.0  0.20345  0.64235  0.97109  1.0000
  H   H240      1.0  0.01413  0.82673  0.54100  1.0000
  H   H241      1.0  0.02427  0.77872  0.57712  1.0000
  H   H242      1.0  0.44929  0.66530  0.91565  1.0000
  C   C145      1.0  0.43498  0.98330  0.86925  1.0000
  C   C146      1.0  0.09649  0.56688  0.97028  1.0000
  H   H243      1.0  0.11354  0.51695  0.97365  1.0000
  H   H244      1.0  0.05252  0.55096  0.90989  1.0000
  Fe  Fe24      1.0  0.99751  0.52965  0.74553  1.0000
  C   C147      1.0  0.03443  0.83078  0.56059  1.0000
  S   S43       1.0  0.23659  0.49426  0.91833  1.0000
  C   C148      1.0  0.02995  0.53295  0.91747  1.0000
  H   H245      1.0  0.02244  0.84153  0.58318  1.0000
  H   H246      1.0  0.11122  0.53630  0.70275  1.0000
  H   H247      1.0  0.02674  0.55037  0.96956  1.0000
  C   C149      1.0  0.06707  0.90222  0.49297  1.0000
  H   H248      1.0  0.05478  0.85053  0.55179  1.0000
  H   H249      1.0  0.13596  0.49177  0.73040  1.0000
  C   C150      1.0  0.32433  0.64903  0.92888  1.0000
  H   H250      1.0  0.06195  0.80136  0.59494  1.0000
  Fe  Fe25      1.0  0.17926  0.49393  0.92586  1.0000
  H   H251      1.0  0.40574  0.84503  0.81619  1.0000
  C   C151      1.0  0.11310  0.83304  0.52940  1.0000
  C   C152      1.0  0.34981  0.67175  0.94502  1.0000
  H   H252      1.0  0.00419  0.50952  0.96099  1.0000
  H   H253      1.0  0.31753  0.95962  0.50097  1.0000
  H   H254      1.0  0.47270  0.80347  0.81892  1.0000
  H   H255      1.0  0.42392  0.94079  0.90480  1.0000
  H   H256      1.0  0.42281  0.89616  0.77964  1.0000
  H   H257      1.0  0.10332  0.50325  0.75770  1.0000
  H   H258      1.0  0.09750  0.52622  0.93314  1.0000
  H   H259      1.0  0.11548  0.79901  0.57159  1.0000
  C   C153      1.0  0.10560  0.79668  0.54508  1.0000
  H   H260      1.0  0.06031  0.91216  0.51742  1.0000
  C   C154      1.0  0.09468  0.51134  0.70445  1.0000
  S   S44       1.0  0.47860  0.95321  0.78650  1.0000
  N   N11       1.0  0.06903  0.77999  0.54484  1.0000
  H   H261      1.0  0.09512  0.49854  0.67936  1.0000
  S   S45       1.0  0.43227  0.81973  0.87833  1.0000
  H   H262      1.0  0.46148  0.75585  0.85765  1.0000
  C   C155      1.0  0.06922  0.74259  0.55479  1.0000
  C   C156      1.0  0.06807  0.52741  0.81139  1.0000
  S   S46       1.0  0.45297  0.73942  0.92995  1.0000
  H   H263      1.0  0.22257  0.65516  0.95301  1.0000
  C   C157      1.0  0.46940  0.75029  0.83137  1.0000
  C   C158      1.0  0.44455  0.85803  0.85424  1.0000
  H   H264      1.0  0.02956  0.50906  0.90226  1.0000
  H   H265      1.0  0.47003  0.65149  0.87893  1.0000
  H   H266      1.0  0.43897  0.62177  0.89946  1.0000
  H   H267      1.0  0.38755  0.94956  0.88097  1.0000
  H   H268      1.0  0.27751  0.98290  0.56111  1.0000
  H   H269      1.0  0.18687  0.62298  0.95614  1.0000
  H   H270      1.0  0.08008  0.70751  0.59531  1.0000
  N   N12       1.0  0.05831  0.50839  0.97011  1.0000
  C   C159      1.0  0.07921  0.73565  0.59196  1.0000
  C   C160      1.0  0.41063  0.96206  0.89417  1.0000
  C   C161      1.0  0.36010  0.66508  0.97820  1.0000
  C   C162      1.0  0.05261  0.78039  0.51019  1.0000
  H   H271      1.0  0.04361  0.72789  0.55054  1.0000
  H   H272      1.0  0.02619  0.76669  0.51115  1.0000
  H   H273      1.0  0.06859  0.51781  0.71002  1.0000
  H   H274      1.0  0.41177  0.62436  0.95049  1.0000
  H   H275      1.0  0.02171  0.86528  0.49002  1.0000
  S   S47       1.0  0.42029  0.79588  0.97786  1.0000
  H   H276      1.0  0.07759  0.58143  0.95747  1.0000
  S   S48       1.0  0.46242  0.97754  0.68434  1.0000
  H   H277      1.0  0.99540  0.69949  0.61797  1.0000
  C   C163      1.0  0.45973  0.64288  0.90423  1.0000
  C   C164      1.0  0.32041  0.61179  0.97813  1.0000
  H   H278      1.0  0.44977  0.66292  0.97084  1.0000
  C   C165      1.0  0.47187  0.88226  0.86367  1.0000
  H   H279      1.0  0.00692  0.54525  0.91013  1.0000
  C   C166      1.0  0.41565  0.59993  0.96323  1.0000
  H   H280      1.0  0.07182  0.73616  0.48448  1.0000
  H   H281      1.0  0.44538  0.74333  0.81685  1.0000
  H   H282      1.0  0.39965  0.57930  0.94921  1.0000
  H   H283      1.0  0.43849  0.96645  0.84709  1.0000
  C   C167      1.0  0.47283  0.65264  0.98085  1.0000
  H   H284      1.0  0.39463  0.98262  0.48213  1.0000
  H   H285      1.0  0.18712  0.66131  0.98106  1.0000
  H   H286      1.0  0.59506  0.16524  0.17050  1.0000
  H   H287      1.0  0.90119  0.38119  0.31905  1.0000
  H   H288      1.0  0.59480  0.12522  0.14960  1.0000
  H   H289      1.0  0.58074  0.07145  0.36250  1.0000
  S   S49       1.0  0.97625  0.24496  0.41840  1.0000
  C   C168      1.0  0.48456  0.14914  0.10101  1.0000
  S   S50       1.0  0.92797  0.43823  0.27648  1.0000
  H   H290      1.0  0.94924  0.38373  0.44212  1.0000
  H   H291      1.0  0.57295  0.07821  0.45847  1.0000
  H   H292      1.0  0.82687  0.25695  0.45948  1.0000
  H   H293      1.0  0.77914  0.12034  0.43215  1.0000
  C   C169      1.0  0.60934  0.02761  0.36082  1.0000
  H   H294      1.0  0.63824  0.37985  0.99137  1.0000
  H   H295      1.0  0.69206  0.37218  0.07512  1.0000
  C   C170      1.0  0.70325  0.37930  0.04971  1.0000
  C   C171      1.0  0.56796  0.40316  0.99285  1.0000
  H   H296      1.0  0.67611  0.43416  0.98819  1.0000
  C   C172      1.0  0.97706  0.37346  0.35919  1.0000
  Fe  Fe26      1.0  0.49215  0.00938  0.24312  1.0000
  H   H297      1.0  0.64274  0.40053  0.07003  1.0000
  H   H298      1.0  0.60861  0.35874  0.04298  1.0000
  C   C173      1.0  0.83534  0.04371  0.41614  1.0000
  H   H299      1.0  0.54651  0.15760  0.22588  1.0000
  Fe  Fe27      1.0  0.73622  0.04984  0.47981  1.0000
  C   C174      1.0  0.67462  0.44802  0.06885  1.0000
  H   H300      1.0  0.88526  0.08394  0.46841  1.0000
  H   H301      1.0  0.64370  0.33493  0.05568  1.0000
  H   H302      1.0  0.85410  0.29580  0.46304  1.0000
  S   S51       1.0  0.48947  0.00774  0.18570  1.0000
  C   C175      1.0  0.82348  0.15871  0.43102  1.0000
  C   C176      1.0  0.58633  0.13731  0.17321  1.0000
  H   H303      1.0  0.81840  0.16719  0.40549  1.0000
  H   H304      1.0  0.51761  0.00283  0.38450  1.0000
  C   C177      1.0  0.94230  0.36701  0.35081  1.0000
  C   C178      1.0  0.92800  0.38679  0.32536  1.0000
  C   C179      1.0  0.94805  0.41333  0.30767  1.0000
  H   H305      1.0  0.92649  0.34646  0.36361  1.0000
  H   H306      1.0  0.75298  0.38603  0.07479  1.0000
  S   S52       1.0  0.92840  0.29951  0.45167  1.0000
  Fe  Fe28      1.0  0.67665  0.02354  0.43096  1.0000
  H   H307      1.0  0.64271  0.11930  0.26276  1.0000
  Fe  Fe29      1.0  0.92665  0.24184  0.44794  1.0000
  C   C180      1.0  0.61232  0.99636  0.34437  1.0000
  H   H308      1.0  0.71444  0.43922  0.01148  1.0000
  C   C181      1.0  0.82493  0.02482  0.44969  1.0000
  S   S53       1.0  0.53983  0.99180  0.26916  1.0000
  H   H309      1.0  0.55996  0.03392  0.42144  1.0000
  C   C182      1.0  0.54012  0.01548  0.43390  1.0000
  N   N13       1.0  0.67803  0.39621  0.02813  1.0000
  H   H310      1.0  0.56189  0.03730  0.15881  1.0000
  C   C183      1.0  0.85197  0.17482  0.44884  1.0000
  S   S54       1.0  0.73442  0.02609  0.42767  1.0000
  H   H311      1.0  0.55810  0.13496  0.17370  1.0000
  C   C184      1.0  0.83611  0.27755  0.47783  1.0000
  H   H312      1.0  0.51640  0.11955  0.21818  1.0000
  H   H313      1.0  0.90074  0.03204  0.45164  1.0000
  C   C185      1.0  0.89585  0.45685  0.37425  1.0000
  C   C186      1.0  0.63011  0.34509  0.03383  1.0000
  N   N14       1.0  0.58296  0.09546  0.22526  1.0000
  C   C187      1.0  0.60710  0.07502  0.24459  1.0000
  C   C188      1.0  0.56094  0.07020  0.20335  1.0000
  C   C189      1.0  0.56059  0.11080  0.25094  1.0000
  C   C190      1.0  0.60374  0.12325  0.20491  1.0000
  C   C191      1.0  0.62937  0.09462  0.27223  1.0000
  C   C192      1.0  0.58032  0.04963  0.17780  1.0000
  C   C193      1.0  0.53404  0.13320  0.23689  1.0000
  H   H314      1.0  0.59276  0.05226  0.25716  1.0000
  H   H315      1.0  0.62530  0.06430  0.22696  1.0000
  H   H316      1.0  0.54179  0.08259  0.18862  1.0000
  H   H317      1.0  0.54536  0.05108  0.21968  1.0000
  H   H318      1.0  0.54652  0.08999  0.26661  1.0000
  H   H319      1.0  0.57617  0.12788  0.26901  1.0000
  H   H320      1.0  0.61254  0.14558  0.22153  1.0000
  H   H321      1.0  0.62746  0.11351  0.19525  1.0000
  H   H322      1.0  0.64927  0.07843  0.28070  1.0000
  H   H323      1.0  0.61415  0.09908  0.29525  1.0000
  H   H324      1.0  0.59194  0.02855  0.19081  1.0000
  H   H325      1.0  0.61825  0.32273  0.01884  1.0000
  H   H326      1.0  0.60028  0.06612  0.16364  1.0000
  H   H327      1.0  0.60184  0.99933  0.44045  1.0000
  H   H328      1.0  0.51781  0.14047  0.25823  1.0000
  H   H329      1.0  0.75430  0.40248  0.03246  1.0000
  H   H330      1.0  0.93663  0.47244  0.33910  1.0000
  H   H331      1.0  0.91243  0.40525  0.44976  1.0000
  H   H332      1.0  0.69026  0.43984  0.09018  1.0000
  C   C194      1.0  0.93324  0.39310  0.46245  1.0000
  N   N15       1.0  0.85166  0.00515  0.46564  1.0000
  H   H333      1.0  0.54121  0.05149  0.31534  1.0000
  H   H334      1.0  0.66923  0.35083  0.99592  1.0000
  H   H335      1.0  0.55911  0.40820  0.01821  1.0000
  H   H336      1.0  0.63581  0.42653  0.03416  1.0000
  H   H337      1.0  0.69014  0.46622  0.05191  1.0000
  H   H338      1.0  0.51198  0.14880  0.10196  1.0000
  S   S55       1.0  0.87753  0.21010  0.42948  1.0000
  C   C195      1.0  0.73861  0.39998  0.05595  1.0000
  H   H339      1.0  0.81638  0.06187  0.41016  1.0000
  C   C196      1.0  0.56097  0.03606  0.32312  1.0000
  S   S56       1.0  0.63770  0.04412  0.39404  1.0000
  C   C197      1.0  0.65441  0.36844  0.01058  1.0000
  H   H340      1.0  0.86077  0.05898  0.41768  1.0000
  C   C198      1.0  0.65620  0.41684  0.04987  1.0000
  H   H341      1.0  0.83645  0.46685  0.98607  1.0000
  C   C199      1.0  0.58340  0.04725  0.35002  1.0000
  H   H342      1.0  0.81633  0.04420  0.46707  1.0000
  H   H343      1.0  0.70884  0.35445  0.03834  1.0000
  H   H344      1.0  0.73705  0.42599  0.06632  1.0000
  H   H345      1.0  0.65511  0.46280  0.08047  1.0000
  H   H346      1.0  0.85095  0.47890  0.12291  1.0000
  H   H347      1.0  0.80344  0.46047  0.08275  1.0000
  H   H348      1.0  0.51820  0.03029  0.43949  1.0000
  C   C200      1.0  0.80116  0.13208  0.44607  1.0000
  C   C201      1.0  0.56471  0.00538  0.30589  1.0000
  H   H349      1.0  0.90832  0.43585  0.38647  1.0000
  H   H350      1.0  0.88006  0.44454  0.35319  1.0000
  H   H351      1.0  0.80134  0.00706  0.44436  1.0000
  C   C202      1.0  0.80673  0.12163  0.47945  1.0000
  C   C203      1.0  0.69510  0.41926  0.00081  1.0000
  H   H352      1.0  0.60887  0.05352  0.46234  1.0000
  C   C204      1.0  0.52860  0.98913  0.40595  1.0000
  C   C205      1.0  0.58674  0.06212  0.47583  1.0000
  H   H353      1.0  0.60303  0.45016  0.99050  1.0000
  H   H354      1.0  0.87934  0.46752  0.39343  1.0000
  C   C206      1.0  0.59042  0.98558  0.31690  1.0000
  H   H355      1.0  0.48715  0.18795  0.06123  1.0000
  H   H356      1.0  0.92121  0.37014  0.47644  1.0000
  C   C207      1.0  0.88418  0.02772  0.47461  1.0000
  H   H357      1.0  0.83484  0.02536  0.39458  1.0000
  S   S57       1.0  0.52406  0.34321  0.99742  1.0000
  H   H358      1.0  0.87251  0.99127  0.41706  1.0000
  C   C208      1.0  0.58556  0.98450  0.45967  1.0000
  H   H359      1.0  0.95811  0.45456  0.42829  1.0000
  N   N16       1.0  0.55368  0.00154  0.46640  1.0000
  Fe  Fe30      1.0  0.94647  0.48267  0.23917  1.0000
  S   S58       1.0  0.94663  0.47958  0.18147  1.0000
  S   S59       1.0  0.48316  0.10040  0.15244  1.0000
  S   S60       1.0  0.67912  0.05166  0.48146  1.0000
  H   H360      1.0  0.72736  0.38011  0.98255  1.0000
  H   H361      1.0  0.59694  0.07894  0.49713  1.0000
  H   H362      1.0  0.55153  0.19288  0.65518  1.0000
  H   H363      1.0  0.53081  0.17647  0.78067  1.0000
  H   H364      1.0  0.53183  0.19940  0.70582  1.0000
  S   S61       1.0  0.95087  0.23744  0.49907  1.0000
  H   H365      1.0  0.55569  0.34376  0.92965  1.0000
  H   H366      1.0  0.59316  0.15962  0.68921  1.0000
  H   H367      1.0  0.56978  0.12080  0.67428  1.0000
  H   H368      1.0  0.49152  0.36396  0.89185  1.0000
  C   C209      1.0  0.82616  0.32067  0.54681  1.0000
  S   S62       1.0  0.53676  0.05211  0.64804  1.0000
  H   H369      1.0  0.57948  0.08040  0.75737  1.0000
  C   C210      1.0  0.56346  0.03147  0.61948  1.0000
  C   C211      1.0  0.60958  0.03688  0.57674  1.0000
  C   C212      1.0  0.58747  0.05193  0.59924  1.0000
  H   H370      1.0  0.62792  0.05303  0.56157  1.0000
  H   H371      1.0  0.58915  0.07967  0.60112  1.0000
  H   H372      1.0  0.86361  0.23787  0.49779  1.0000
  C   C213      1.0  0.56266  0.03161  0.49019  1.0000
  C   C214      1.0  0.82625  0.00806  0.52642  1.0000
  H   H373      1.0  0.59793  0.09740  0.71851  1.0000
  H   H374      1.0  0.81941  0.46494  0.82651  1.0000
  H   H375      1.0  0.58451  0.14571  0.75185  1.0000
  Fe  Fe31      1.0  0.95653  0.29565  0.50122  1.0000
  C   C215      1.0  0.89027  0.23947  0.57325  1.0000
  H   H376      1.0  0.78552  0.26263  0.52346  1.0000
  H   H377      1.0  0.76433  0.20471  0.51197  1.0000
  C   C216      1.0  0.48766  0.43706  0.95841  1.0000
  H   H378      1.0  0.56761  0.19654  0.73149  1.0000
  H   H379      1.0  0.89083  0.25587  0.59635  1.0000
  H   H380      1.0  0.50270  0.05251  0.82374  1.0000
  H   H381      1.0  0.84012  0.12946  0.52294  1.0000
  H   H382      1.0  0.57543  0.02317  0.51351  1.0000
  H   H383      1.0  0.90186  0.21584  0.58036  1.0000
  H   H384      1.0  0.53170  0.15120  0.63990  1.0000
  H   H385      1.0  0.49749  0.00987  0.84054  1.0000
  C   C217      1.0  0.59144  0.39024  0.92784  1.0000
  H   H386      1.0  0.80595  0.20907  0.49334  1.0000
  C   C218      1.0  0.48747  0.15037  0.84191  1.0000
  H   H387      1.0  0.73110  0.41936  0.95851  1.0000
  C   C219      1.0  0.54168  0.18319  0.72574  1.0000
  C   C220      1.0  0.97219  0.40272  0.63042  1.0000
  H   H388      1.0  0.49220  0.11160  0.80332  1.0000
  H   H389      1.0  0.81327  0.99066  0.54600  1.0000
  H   H390      1.0  0.92247  0.42024  0.62698  1.0000
  C   C221      1.0  0.93947  0.40306  0.61651  1.0000
  C   C222      1.0  0.56691  0.14744  0.68291  1.0000
  H   H391      1.0  0.51302  0.10255  0.69343  1.0000
  Fe  Fe32      1.0  0.49125  0.03070  0.68197  1.0000
  C   C223      1.0  0.56159  0.12906  0.74228  1.0000
  S   S63       1.0  0.73262  0.99890  0.50776  1.0000
  H   H392      1.0  0.48248  0.46106  0.97176  1.0000
  S   S64       1.0  0.49245  0.03648  0.73923  1.0000
  S   S65       1.0  0.93432  0.33031  0.54121  1.0000
  N   N17       1.0  0.54426  0.14683  0.71394  1.0000
  C   C224      1.0  0.83550  0.13740  0.49713  1.0000
  C   C225      1.0  0.56183  0.99561  0.61670  1.0000
  H   H393      1.0  0.60158  0.98507  0.48302  1.0000
  C   C226      1.0  0.88033  0.06411  0.48866  1.0000
  H   H394      1.0  0.97340  0.43809  0.55455  1.0000
  S   S66       1.0  0.96661  0.47823  0.75145  1.0000
  N   N18       1.0  0.83723  0.25672  0.54099  1.0000
  C   C227      1.0  0.85325  0.22947  0.56080  1.0000
  C   C228      1.0  0.79980  0.24387  0.53680  1.0000
  C   C229      1.0  0.84069  0.28914  0.56214  1.0000
  Fe  Fe33      1.0  0.48671  0.29819  0.97722  1.0000
  C   C230      1.0  0.50982  0.12674  0.70727  1.0000
  H   H395      1.0  0.82912  0.34186  0.56578  1.0000
  C   C231      1.0  0.51459  0.44738  0.93074  1.0000
  H   H396      1.0  0.83767  0.22132  0.58372  1.0000
  C   C232      1.0  0.81857  0.47451  0.96641  1.0000
  H   H397      1.0  0.78716  0.24061  0.56217  1.0000
  H   H398      1.0  0.82858  0.28397  0.58755  1.0000
  H   H399      1.0  0.86803  0.29825  0.56722  1.0000
  Fe  Fe34      1.0  0.67513  0.99924  0.50526  1.0000
  C   C233      1.0  0.85583  0.26257  0.50748  1.0000
  C   C234      1.0  0.83641  0.98608  0.49645  1.0000
  C   C235      1.0  0.48729  0.03520  0.84177  1.0000
  H   H400      1.0  0.80993  0.45114  0.95128  1.0000
  S   S67       1.0  0.63962  0.44712  0.92573  1.0000
  C   C236      1.0  0.51925  0.18649  0.75749  1.0000
  H   H401      1.0  0.51284  0.14900  0.85207  1.0000
  C   C237      1.0  0.56583  0.36688  0.94303  1.0000
  C   C238      1.0  0.55436  0.37291  0.97590  1.0000
  H   H402      1.0  0.54430  0.12438  0.76463  1.0000
  H   H403      1.0  0.53664  0.46334  0.94259  1.0000
  S   S68       1.0  0.77780  0.09044  0.50087  1.0000
  C   C239      1.0  0.60552  0.42012  0.94504  1.0000
  H   H404      1.0  0.85384  0.20574  0.54528  1.0000
  C   C240      1.0  0.95003  0.35799  0.57539  1.0000
  C   C241      1.0  0.92845  0.38071  0.58939  1.0000
  C   C242      1.0  0.60819  0.00099  0.57426  1.0000
  H   H405      1.0  0.90669  0.25306  0.55351  1.0000
  H   H406      1.0  0.88017  0.27967  0.51109  1.0000
  H   H407      1.0  0.90293  0.38106  0.57926  1.0000
  H   H408      1.0  0.84103  0.33045  0.52413  1.0000
  H   H409      1.0  0.79853  0.31577  0.54088  1.0000
  H   H410      1.0  0.51702  0.21415  0.76231  1.0000
  H   H411      1.0  0.60081  0.38481  0.90276  1.0000
  H   H412      1.0  0.84904  0.02201  0.53885  1.0000
  H   H413      1.0  0.49290  0.17354  0.75409  1.0000
  H   H414      1.0  0.55452  0.07692  0.71928  1.0000
  H   H415      1.0  0.50505  0.46318  0.91020  1.0000
  C   C243      1.0  0.79210  0.20931  0.51782  1.0000
  C   C244      1.0  0.57387  0.09397  0.73351  1.0000
  H   H416      1.0  0.57516  0.16531  0.63110  1.0000
  H   H417      1.0  0.49728  0.11792  0.73166  1.0000
  C   C245      1.0  0.55505  0.16553  0.65092  1.0000
  H   H418      1.0  0.88027  0.17528  0.49567  1.0000
  Fe  Fe35      1.0  0.96681  0.47471  0.69389  1.0000
  H   H419      1.0  0.52510  0.42449  0.92018  1.0000
  H   H420      1.0  0.79814  0.18730  0.53372  1.0000
  H   H421      1.0  0.49128  0.04594  0.86773  1.0000
  C   C246      1.0  0.95263  0.41876  0.48769  1.0000
  H   H422      1.0  0.80780  0.02612  0.51915  1.0000
  H   H423      1.0  0.50257  0.99126  0.48703  1.0000
  S   S69       1.0  0.48353  0.20069  0.89067  1.0000
  H   H424      1.0  0.53917  0.04226  0.49924  1.0000
  H   H425      1.0  0.69379  0.38929  0.95351  1.0000
  H   H426      1.0  0.94457  0.40945  0.51357  1.0000
  C   C247      1.0  0.71286  0.40058  0.97244  1.0000
  C   C248      1.0  0.48318  0.14511  0.68722  1.0000
  C   C249      1.0  0.59298  0.42690  0.97732  1.0000
  H   H427      1.0  0.49177  0.17142  0.67836  1.0000
  H   H428      1.0  0.94215  0.44395  0.48535  1.0000
  H   H429      1.0  0.50102  0.42194  0.97713  1.0000
  H   H430      1.0  0.90041  0.07093  0.50815  1.0000
  H   H431      1.0  0.81479  0.29196  0.48523  1.0000
  H   H432      1.0  0.85565  0.06702  0.50100  1.0000
  H   H433      1.0  0.79546  0.48228  0.97878  1.0000
  H   H434      1.0  0.48063  0.37120  0.94758  1.0000
  H   H435      1.0  0.48216  0.40633  0.88336  1.0000
  C   C250      1.0  0.85824  0.16350  0.48181  1.0000
  H   H436      1.0  0.89934  0.01445  0.49342  1.0000
  S   S70       1.0  0.49013  0.24086  0.98069  1.0000
  H   H437      1.0  0.53517  0.98439  0.53856  1.0000
  S   S71       1.0  0.76449  0.93508  0.43612  1.0000
  H   H438      1.0  0.50470  0.91681  0.07044  1.0000
  C   C251      1.0  0.58077  0.94640  0.44798  1.0000
  C   C252      1.0  0.90650  0.55544  0.99402  1.0000
  Fe  Fe36      1.0  0.92968  0.73374  0.42776  1.0000
  H   H439      1.0  0.81036  0.89381  0.40212  1.0000
  S   S72       1.0  0.91259  0.69555  0.38462  1.0000
  H   H440      1.0  0.57574  0.88674  0.26237  1.0000
  H   H441      1.0  0.89086  0.58589  0.40184  1.0000
  S   S73       1.0  0.93045  0.79128  0.41987  1.0000
  C   C253      1.0  0.88386  0.95234  0.45209  1.0000
  H   H442      1.0  0.92216  0.75843  0.34240  1.0000
  C   C254      1.0  0.96522  0.62862  0.30748  1.0000
  C   C255      1.0  0.96825  0.66476  0.35895  1.0000
  H   H443      1.0  0.86140  0.49373  0.33581  1.0000
  H   H444      1.0  0.56846  0.87161  0.19667  1.0000
  H   H445      1.0  0.53692  0.87188  0.14712  1.0000
  S   S74       1.0  0.67159  0.97082  0.45496  1.0000
  H   H446      1.0  0.89056  0.58625  0.35662  1.0000
  C   C256      1.0  0.54770  0.87518  0.21518  1.0000
  S   S75       1.0  0.88263  0.54813  0.14372  1.0000
  C   C257      1.0  0.86727  0.54116  0.30938  1.0000
  H   H447      1.0  0.48092  0.84652  0.22140  1.0000
  H   H448      1.0  0.94110  0.77155  0.30302  1.0000
  C   C258      1.0  0.94363  0.77538  0.33073  1.0000
  S   S76       1.0  0.67085  0.51816  0.99777  1.0000
  C   C259      1.0  0.51359  0.86574  0.16296  1.0000
  H   H449      1.0  0.97278  0.74096  0.35866  1.0000
  H   H450      1.0  0.81067  0.53481  0.99579  1.0000
  H   H451      1.0  0.95521  0.71696  0.29587  1.0000
  H   H452      1.0  0.83615  0.96358  0.43031  1.0000
  C   C260      1.0  0.88325  0.51019  0.32420  1.0000
  H   H453      1.0  0.56827  0.70274  0.00386  1.0000
  C   C261      1.0  0.80587  0.54695  0.07284  1.0000
  H   H454      1.0  0.93873  0.80199  0.33736  1.0000
  H   H455      1.0  0.89170  0.93768  0.42978  1.0000
  H   H456      1.0  0.50848  0.60103  0.00439  1.0000
  C   C262      1.0  0.48428  0.87464  0.21616  1.0000
  H   H457      1.0  0.54217  0.92958  0.13741  1.0000
  S   S77       1.0  0.64342  0.61068  0.98903  1.0000
  C   C263      1.0  0.79162  0.90455  0.45208  1.0000
  H   H458      1.0  0.91298  0.55262  0.02136  1.0000
  C   C264      1.0  0.79488  0.51196  0.06794  1.0000
  H   H459      1.0  0.49227  0.64714  0.03291  1.0000
  H   H460      1.0  0.84897  0.58372  0.01630  1.0000
  C   C265      1.0  0.57949  0.68680  0.98548  1.0000
  H   H461      1.0  0.58586  0.91811  0.23047  1.0000
  H   H462      1.0  0.89186  0.49501  0.30247  1.0000
  C   C266      1.0  0.93372  0.66970  0.35563  1.0000
  C   C267      1.0  0.91504  0.65358  0.32830  1.0000
  C   C268      1.0  0.93058  0.63320  0.30444  1.0000
  H   H463      1.0  0.88831  0.65711  0.32537  1.0000
  H   H464      1.0  0.91587  0.62151  0.28335  1.0000
  H   H465      1.0  0.49908  0.88213  0.26982  1.0000
  C   C269      1.0  0.90022  0.53640  0.38033  1.0000
  C   C270      1.0  0.90325  0.57620  0.37895  1.0000
  H   H466      1.0  0.87304  0.52711  0.38621  1.0000
  H   H467      1.0  0.52175  0.93909  0.21143  1.0000
  C   C271      1.0  0.60131  0.66250  0.99649  1.0000
  C   C272      1.0  0.83656  0.85633  0.47479  1.0000
  H   H468      1.0  0.49214  0.87380  0.14770  1.0000
  H   H469      1.0  0.84063  0.58448  0.09967  1.0000
  H   H470      1.0  0.54157  0.84991  0.22823  1.0000
  S   S78       1.0  0.90045  0.73472  0.47756  1.0000
  C   C273      1.0  0.48173  0.90525  0.08297  1.0000
  H   H471      1.0  0.88633  0.56132  0.29871  1.0000
  H   H472      1.0  0.52664  0.81530  0.18176  1.0000
  C   C274      1.0  0.83284  0.55731  0.09578  1.0000
  S   S79       1.0  0.97354  0.56295  0.18142  1.0000
  S   S80       1.0  0.76010  0.49713  0.04016  1.0000
  H   H473      1.0  0.50841  0.96893  0.41455  1.0000
  C   C275      1.0  0.51909  0.92290  0.18831  1.0000
  H   H474      1.0  0.85099  0.55232  0.32848  1.0000
  C   C276      1.0  0.97557  0.54318  0.35210  1.0000
  H   H475      1.0  0.90012  0.58204  0.99091  1.0000
  H   H476      1.0  0.57311  0.92773  0.17136  1.0000
  H   H477      1.0  0.49481  0.92919  0.17658  1.0000
  H   H478      1.0  0.93583  0.56394  0.32375  1.0000
  H   H479      1.0  0.86489  0.51718  0.00854  1.0000
  C   C277      1.0  0.97771  0.76685  0.34668  1.0000
  C   C278      1.0  0.54842  0.93677  0.16421  1.0000
  Fe  Fe37      1.0  0.72960  0.97489  0.45577  1.0000
  H   H480      1.0  0.60661  0.66014  0.02335  1.0000
  N   N19       1.0  0.91204  0.51810  0.34938  1.0000
  Fe  Fe38      1.0  0.96980  0.56051  0.23900  1.0000
  H   H481      1.0  0.55172  0.96537  0.16520  1.0000
  H   H482      1.0  0.94336  0.48851  0.38069  1.0000
  C   C279      1.0  0.94188  0.53818  0.33157  1.0000
  H   H483      1.0  0.54655  0.91713  0.25442  1.0000
  H   H484      1.0  0.87047  0.93291  0.46955  1.0000
  H   H485      1.0  0.93026  0.58797  0.37937  1.0000
  H   H486      1.0  0.84942  0.85207  0.42193  1.0000
  C   C280      1.0  0.85997  0.97861  0.43991  1.0000
  C   C281      1.0  0.83868  0.49799  0.10899  1.0000
  C   C282      1.0  0.84938  0.53302  0.11426  1.0000
  H   H487      1.0  0.51059  0.81538  0.13917  1.0000
  H   H488      1.0  0.85008  0.53200  0.28802  1.0000
  H   H489      1.0  0.60016  0.94277  0.42815  1.0000
  H   H490      1.0  0.48132  0.81687  0.17332  1.0000
  H   H491      1.0  0.79305  0.56610  0.05964  1.0000
  Fe  Fe39      1.0  0.92259  0.52930  0.18074  1.0000
  S   S81       1.0  0.91788  0.52992  0.23821  1.0000
  C   C283      1.0  0.56420  0.90118  0.24181  1.0000
  C   C284      1.0  0.81194  0.88815  0.42899  1.0000
  C   C285      1.0  0.83426  0.86440  0.44017  1.0000
  N   N20       1.0  0.51671  0.88494  0.19640  1.0000
  Fe  Fe40      1.0  0.72873  0.52135  0.99853  1.0000
  H   H492      1.0  0.91474  0.53020  0.40344  1.0000
  S   S82       1.0  0.48836  0.84945  0.04118  1.0000
  H   H493      1.0  0.94774  0.52528  0.30732  1.0000
  C   C286      1.0  0.50777  0.82607  0.16510  1.0000
  H   H494      1.0  0.90747  0.96487  0.46424  1.0000
  H   H495      1.0  0.97528  0.74268  0.26093  1.0000
  C   C287      1.0  0.81162  0.48762  0.08611  1.0000
  Fe  Fe41      1.0  0.90503  0.79285  0.47119  1.0000
  C   C288      1.0  0.48121  0.89164  0.25114  1.0000
  H   H496      1.0  0.63215  0.98096  0.35215  1.0000
  H   H497      1.0  0.80922  0.59636  0.00286  1.0000
  C   C289      1.0  0.87777  0.52663  0.98445  1.0000
  H   H498      1.0  0.48475  0.92010  0.24998  1.0000
  H   H499      1.0  0.58631  0.92917  0.46931  1.0000
  H   H500      1.0  0.97157  0.55038  0.37891  1.0000
  H   H501      1.0  0.55070  0.97756  0.39517  1.0000
  H   H502      1.0  0.55575  0.93722  0.43667  1.0000
  H   H503      1.0  0.59376  0.96186  0.30382  1.0000
  H   H504      1.0  0.51701  0.95516  0.46781  1.0000
  C   C290      1.0  0.83297  0.58666  0.99348  1.0000
  C   C291      1.0  0.97904  0.72364  0.28106  1.0000
  C   C292      1.0  0.92371  0.48432  0.36042  1.0000
  S   S83       1.0  0.95551  0.80014  0.49927  1.0000
  H   H505      1.0  0.82993  0.63282  0.62206  1.0000
  H   H506      1.0  0.58264  0.67187  0.90061  1.0000
  Fe  Fe42      1.0  0.67712  0.56951  0.96990  1.0000
  H   H507      1.0  0.93023  0.65573  0.53783  1.0000
  N   N21       1.0  0.85158  0.53547  0.95875  1.0000
  C   C293      1.0  0.55063  0.77328  0.81079  1.0000
  H   H508      1.0  0.77875  0.90878  0.50496  1.0000
  S   S84       1.0  0.95138  0.55971  0.74264  1.0000
  C   C294      1.0  0.52969  0.58127  0.95945  1.0000
  H   H509      1.0  0.81317  0.96874  0.48902  1.0000
  H   H510      1.0  0.55977  0.79547  0.91034  1.0000
  C   C295      1.0  0.94210  0.65363  0.56246  1.0000
  C   C296      1.0  0.57235  0.69036  0.95081  1.0000
  S   S85       1.0  0.50144  0.80844  0.95341  1.0000
  Fe  Fe43      1.0  0.73482  0.54618  0.92405  1.0000
  C   C297      1.0  0.82266  0.49258  0.82997  1.0000
  C   C298      1.0  0.58765  0.66937  0.92749  1.0000
  C   C299      1.0  0.79415  0.89672  0.48673  1.0000
  H   H511      1.0  0.90986  0.67267  0.67707  1.0000
  S   S86       1.0  0.67740  0.54554  0.91767  1.0000
  C   C300      1.0  0.56155  0.80067  0.88258  1.0000
  H   H512      1.0  0.90734  0.56552  0.89289  1.0000
  H   H513      1.0  0.91557  0.70956  0.70395  1.0000
  H   H514      1.0  0.49630  0.60779  0.91103  1.0000
  C   C301      1.0  0.51318  0.61012  0.97777  1.0000
  C   C302      1.0  0.82097  0.74753  0.62865  1.0000
  H   H515      1.0  0.56145  0.83966  0.82467  1.0000
  H   H516      1.0  0.58274  0.95281  0.59285  1.0000
  H   H517      1.0  0.57730  0.78578  0.81435  1.0000
  H   H518      1.0  0.81765  0.86690  0.52471  1.0000
  Fe  Fe44      1.0  0.50289  0.75080  0.95800  1.0000
  H   H519      1.0  0.51572  0.94275  0.52653  1.0000
  S   S87       1.0  0.73506  0.57411  0.97464  1.0000
  C   C303      1.0  0.84842  0.51270  0.81148  1.0000
  H   H520      1.0  0.88064  0.52590  0.88882  1.0000
  H   H521      1.0  0.49368  0.67416  0.97710  1.0000
  H   H522      1.0  0.54279  0.59088  0.93569  1.0000
  Fe  Fe45      1.0  0.95238  0.74211  0.50252  1.0000
  N   N22       1.0  0.52502  0.79345  0.82795  1.0000
  C   C304      1.0  0.48201  0.91086  0.84243  1.0000
  H   H523      1.0  0.83415  0.76725  0.61140  1.0000
  H   H524      1.0  0.53287  0.71837  0.80334  1.0000
  C   C305      1.0  0.52612  0.79079  0.86623  1.0000
  Fe  Fe46      1.0  0.92039  0.50759  0.74669  1.0000
  H   H525      1.0  0.81479  0.69318  0.63838  1.0000
  H   H526      1.0  0.51709  0.76457  0.87557  1.0000
  C   C306      1.0  0.80419  0.54355  0.85709  1.0000
  C   C307      1.0  0.55006  0.73493  0.82051  1.0000
  H   H527      1.0  0.87804  0.74101  0.67132  1.0000
  H   H528      1.0  0.50793  0.80735  0.87775  1.0000
  H   H529      1.0  0.82351  0.70379  0.59540  1.0000
  C   C308      1.0  0.96360  0.68159  0.57542  1.0000
  C   C309      1.0  0.52585  0.97786  0.48353  1.0000
  H   H530      1.0  0.57036  0.82849  0.87967  1.0000
  C   C310      1.0  0.94991  0.61977  0.61427  1.0000
  C   C311      1.0  0.53411  0.83104  0.81901  1.0000
  S   S88       1.0  0.86382  0.82597  0.49079  1.0000
  H   H531      1.0  0.86968  0.61946  0.63746  1.0000
  C   C312      1.0  0.83014  0.56367  0.83884  1.0000
  H   H532      1.0  0.54298  0.72898  0.84725  1.0000
  H   H533      1.0  0.48939  0.77797  0.78708  1.0000
  H   H534      1.0  0.85478  0.48987  0.92774  1.0000
  C   C313      1.0  0.58412  0.98057  0.59441  1.0000
  C   C314      1.0  0.80073  0.50779  0.85254  1.0000
  Fe  Fe47      1.0  0.95183  0.55036  0.68553  1.0000
  H   H535      1.0  0.54269  0.82681  0.76348  1.0000
  H   H536      1.0  0.55002  0.57271  0.97604  1.0000
  H   H537      1.0  0.57631  0.72733  0.81804  1.0000
  S   S89       1.0  0.91808  0.49946  0.68954  1.0000
  H   H538      1.0  0.93033  0.55227  0.97983  1.0000
  C   C315      1.0  0.85208  0.54845  0.81627  1.0000
  C   C316      1.0  0.89329  0.54422  0.90779  1.0000
  H   H539      1.0  0.54724  0.77373  0.78271  1.0000
  N   N23       1.0  0.48100  0.62094  0.96200  1.0000
  N   N24       1.0  0.86851  0.70731  0.62772  1.0000
  C   C317      1.0  0.89154  0.73319  0.60727  1.0000
  C   C318      1.0  0.87678  0.71315  0.66493  1.0000
  C   C319      1.0  0.83135  0.71128  0.62184  1.0000
  C   C320      1.0  0.87472  0.67167  0.61681  1.0000
  C   C321      1.0  0.88411  0.73452  0.56874  1.0000
  S   S90       1.0  0.97126  0.72188  0.55352  1.0000
  H   H540      1.0  0.48561  0.87863  0.88701  1.0000
  C   C322      1.0  0.85408  0.64143  0.63577  1.0000
  H   H541      1.0  0.89103  0.75974  0.61732  1.0000
  H   H542      1.0  0.91869  0.72813  0.60964  1.0000
  H   H543      1.0  0.58106  0.78492  0.87270  1.0000
  H   H544      1.0  0.50065  0.83822  0.77487  1.0000
  H   H545      1.0  0.53731  0.86904  0.77833  1.0000
  H   H546      1.0  0.86860  0.66754  0.58940  1.0000
  H   H547      1.0  0.90224  0.66829  0.61839  1.0000
  H   H548      1.0  0.90220  0.75520  0.55713  1.0000
  H   H549      1.0  0.88857  0.71029  0.55574  1.0000
  H   H550      1.0  0.85806  0.74106  0.56296  1.0000
  C   C323      1.0  0.93529  0.62304  0.58179  1.0000
  H   H551      1.0  0.51105  0.55849  0.95405  1.0000
  C   C324      1.0  0.83551  0.50263  0.94221  1.0000
  C   C325      1.0  0.97873  0.67813  0.60759  1.0000
  H   H552      1.0  0.91805  0.60190  0.57178  1.0000
  C   C326      1.0  0.61649  0.64135  0.97319  1.0000
  H   H553      1.0  0.84778  0.64746  0.66233  1.0000
  C   C327      1.0  0.52822  0.84123  0.78165  1.0000
  S   S91       1.0  0.54419  0.71987  0.93508  1.0000
  H   H554      1.0  0.93295  0.71248  0.66188  1.0000
  H   H555      1.0  0.83321  0.59133  0.84206  1.0000
  H   H556      1.0  0.80279  0.55570  0.95688  1.0000
  H   H557      1.0  0.82555  0.75548  0.65549  1.0000
  S   S92       1.0  0.87503  0.49167  0.78304  1.0000
  S   S93       1.0  0.93718  0.58186  0.63878  1.0000
  C   C328      1.0  0.86662  0.55892  0.93068  1.0000
  H   H558      1.0  0.62082  0.62921  0.92017  1.0000
  H   H559      1.0  0.87879  0.58386  0.94047  1.0000
  C   C329      1.0  0.60938  0.64502  0.93852  1.0000
  H   H560      1.0  0.87165  0.56439  0.80237  1.0000
  Fe  Fe48      1.0  0.67313  0.49472  0.94587  1.0000
  H   H561      1.0  0.54369  0.97941  0.63206  1.0000
  C   C330      1.0  0.81632  0.87283  0.49789  1.0000
  H   H562      1.0  0.56043  0.95405  0.51885  1.0000
  H   H563      1.0  0.85446  0.96927  0.50761  1.0000
  H   H564      1.0  0.85610  0.70058  0.68156  1.0000
  S   S94       1.0  0.77778  0.56447  0.88585  1.0000
  C   C331      1.0  0.91081  0.70119  0.67720  1.0000
  S   S95       1.0  0.73031  0.49399  0.94817  1.0000
  H   H565      1.0  0.91224  0.53149  0.92261  1.0000
  H   H566      1.0  0.79310  0.74718  0.62385  1.0000
  H   H567      1.0  0.84598  0.56620  0.91369  1.0000
  H   H568      1.0  0.51925  0.84753  0.83492  1.0000
  H   H569      1.0  0.81581  0.50836  0.92328  1.0000
  C   C332      1.0  0.82315  0.55185  0.97575  1.0000
  C   C333      1.0  0.48924  0.78248  0.81505  1.0000
  H   H570      1.0  0.84521  0.60671  0.97610  1.0000
  H   H571      1.0  0.50349  0.92910  0.84984  1.0000
  S   S96       1.0  0.63516  0.98020  0.54612  1.0000
  C   C334      1.0  0.48881  0.63024  0.92534  1.0000
  H   H572      1.0  0.51112  0.65046  0.92381  1.0000
  C   C335      1.0  0.53522  0.96414  0.51877  1.0000
  H   H573      1.0  0.78094  0.49183  0.86614  1.0000
  H   H574      1.0  0.53320  0.63242  0.97967  1.0000
  C   C336      1.0  0.97203  0.64748  0.62685  1.0000
  H   H575      1.0  0.89108  0.50493  0.97472  1.0000
  H   H576      1.0  0.48365  0.72759  0.83147  1.0000
