data_image0
_chemical_formula_structural       FeHSC2SFeSHFeS2FeSFeS3HSCFeSHFeHFeHSH4FeSC2H2C6H4C4H3CH2C6H5CH2CH2C3H3CH2C3NC5H13NH2C2H3NH3CHCHC2HCH3C2HCH2SHCH2SHNC3H2C2H4CH6CH4CSCSCH3SHCHC2H5C2H7CH3SCH3CH2CH5NSH2CH4C2H2CSCH8C3HCHC2H2FeH4C3H3CH4SHFeSHFeHSFeS2CHC3HSC6H4C6H5CFeS2FeS2FeSFeHS2HSH2SCFeCFeS2HC3HCH2SNC2HFeCH2SH6CHCHFeH3CHC2H3SHCHC2H10CNHC2HC3H2SHSH3CHSHNC2H2CH3CH8CNCHCH2FeH8C2H3FeH3CH2CHS2H2C3H3CHCH3FeSNFeS2FeSFeS3FeS2FeS2FeSFeS3CSC2H5SHC5H4C6H7C3HC2H3C4HCH6CH2C2HC3H2C2H2NC6HCH5CH5C2HC2H3NHC3H2CH6CH2CH2CNCH2NCH2CH3SH2CH2CH8CH3CH6CH2C2H3CHC2H4C2HCHCHCH2CH3CHCH2NH2CHCH6NCH4CH2CHCHC2HCH3CHFeS2HCSFeSCFeS2FeSFeS3CS2FeSHFeHFeCSH2SCHSCH3C7H3C2HCH6C6H7CHSNHC3HCHCHCHC2HSCH5CH4CH13NC8H5CH2CHNHC3H5C2H4SH4CHCH3NC3H3CH6CH2CHC2H3FeH3CSCHCH2CH2C3HC3H2CH3C2H9FeCH10CH2C4FeCFeSHFeS2FeHS2HSH2SHFeH2C6H4C6H4S2FeS2FeS2FeSFeHS2CSNFeSHFeSFeS2H2C4H2CH2C2H4NC5H7NH2SH5CFeH4SHSC2HCH2C2HCHCH2SCH3NC4HC2H5CH2C2HFeH9CHC2SH3CH2CFeH6CH2CH2CH7SCH2CHCHC2HC2H2CFeSHFeS2FeSFeS3FeS2FeS2FeSFeS3HC3H5CH3C3H3CHC5H2CH2C8H3C3HCH2CH2C5H2NCH5CHCHNHCHC2HCH7CH2NC6HCH15C2H3CHNHCH2CHCH2NCHCHCH2C2H4SH2NHCH3CH4NH5CH3CHCHCHSCH11CHC2H8CH2CHC3H3CHCH4C4H3CH2CHC2H5NHC2HCHC2H3CH2SC3FeS2FeS2FeCFeHS2CSHCHSHSFeSCH2SHCNHCH3CH2CHCH2C2H4NCH2C2H2C2HC3SCFeH2C6H5FeHCH2CHSH3CSC2HNC5HCNH5FeH6CNH3CH6FeCHSHCH3C3HSHCH9C2H2SHCH4CH9CHCFeHCH2CH3SC3HSH3CHC3H3C2H3CHCH2CHFeS2FeS2FeCFeH2SCH2CHC2H4CHC3HC3H4C4NH4FeS2FeCSFeSCH2SH2C2H3CSHCH4C3HCSNHC6H2CHCH2CHCH3CH2NHCHCH3CHSC3H11NHC3H3C3H2SH2SHCH3C2HCH3CHSCH4CH5CHFeHC2HCHC2H3CH3C2HCH2CH4CSH4CSCHC2H3CHNH3CH2CHC2H9C2NHCH4C3HCH2C2H3C2H5CHFeS2FeSCFeSCFeS2FeHFeS5C2HSHSFeS2CFeHSHNSCFeC5H3Fe2H3FeHC3HCHC2H2C2HS2CH4C6H4SH3SHCHC2SHCH2CH2C2H7CHC2H6SH6C2H6CH11CH2SFeNC4H3C2HC2H6CH2C4H2NCHCHCNCHCH5CH2CH2FeH4C2H3CH2C3H3C2H2SH6NCH2S2CHSFeS2FeS2FeCFeCS2HSCHCSHSFeSH10CH3SFeCSHC3SH4CHCHCH6FeH2SH2C7H7CH5FeHCHNH3CNCHC5FeH2CH4C2H2C2H2CHCHNC7H3SH6NH3CH5C2HCHC2H2C2SH5SCHCHC2HC2H6CH2CH2CH3NCH3CHCH5C3H5C3H3CH3FeHSH3CH3CSH2FeS2FeS2FeS2CHSC4HCFeH8C2H2CHC2HC4H4CFeS2FeHSFeS2H2SCH3C2H3SH3C2HCHFeC2H2C4HCHCNH2CHCHC2HC3HCH3C2H3C2HCSC2H2CH2CHCH7C2H5NCH2NH4CH7CHCNCH2SH2CHSCH3CHCH4CH2C3NCH2CHC2H2CH2CH4C3NHCNCH7C2HCNH7C2HCH8CH4CHCH2CHCH3C4H5C2HSFe2S2FeSCFeS2FeCFeS3HSCFeHSC2FeSNHFeHSH2SCH2C3H2CH2FeHCH2SC2FeH5CHC2H3CH2CHC6H7CH3C4FeHNHCH3CHCHSH2CHS2HFeH6C2H3CHSH3CH2C2HCHCH2CHCHCH2CHCH3C2SHCH2SH2SCNC6H2SC2HSH2CH7FeH2CSHSH4
_chemical_formula_sum              "Fe128 H1536 S256 C896 N64"
_cell_length_a       31.3216
_cell_length_b       44.3103
_cell_length_c       40.563
_cell_angle_alpha    89.8507
_cell_angle_beta     89.3979
_cell_angle_gamma    89.6038

_space_group_name_H-M_alt    "P 1"
_space_group_IT_number       1

loop_
  _space_group_symop_operation_xyz
  'x, y, z'

loop_
  _atom_site_type_symbol
  _atom_site_label
  _atom_site_symmetry_multiplicity
  _atom_site_fract_x
  _atom_site_fract_y
  _atom_site_fract_z
  _atom_site_occupancy
  Fe  Fe1       1.0  0.18694  0.33441  0.33759  1.0000
  H   H1        1.0  0.26249  0.30737  0.05380  1.0000
  S   S1        1.0  0.24486  0.33085  0.30403  1.0000
  C   C1        1.0  0.14882  0.43108  0.02960  1.0000
  C   C2        1.0  0.08566  0.04431  0.35112  1.0000
  S   S2        1.0  0.12050  0.34147  0.31870  1.0000
  Fe  Fe2       1.0  0.32135  0.25354  0.08036  1.0000
  S   S3        1.0  0.31303  0.21219  0.11159  1.0000
  H   H2        1.0  0.17766  0.43394  0.04496  1.0000
  Fe  Fe3       1.0  0.37478  0.28372  0.13246  1.0000
  S   S4        1.0  0.37060  0.24496  0.16810  1.0000
  S   S5        1.0  0.40909  0.32677  0.14362  1.0000
  Fe  Fe4       1.0  0.38226  0.21653  0.12314  1.0000
  S   S6        1.0  0.42043  0.17327  0.12399  1.0000
  Fe  Fe5       1.0  0.30176  0.24407  0.15344  1.0000
  S   S7        1.0  0.24841  0.23413  0.18939  1.0000
  S   S8        1.0  0.39206  0.25537  0.08844  1.0000
  S   S9        1.0  0.30442  0.28540  0.12143  1.0000
  H   H3        1.0  0.17870  0.34828  0.25585  1.0000
  S   S10       1.0  0.12463  0.00356  0.08345  1.0000
  C   C3        1.0  0.24309  0.06416  0.03961  1.0000
  Fe  Fe6       1.0  0.18005  0.99267  0.16794  1.0000
  S   S11       1.0  0.18796  0.03499  0.13788  1.0000
  H   H4        1.0  0.21790  0.34694  0.02713  1.0000
  Fe  Fe7       1.0  0.11725  0.03034  0.13006  1.0000
  H   H5        1.0  0.36282  0.26627  0.32686  1.0000
  Fe  Fe8       1.0  0.19465  0.00399  0.09440  1.0000
  H   H6        1.0  0.04007  0.37655  0.31725  1.0000
  S   S12       1.0  0.10900  0.99008  0.16301  1.0000
  H   H7        1.0  0.44964  0.24018  0.27000  1.0000
  H   H8        1.0  0.22965  0.06734  0.06399  1.0000
  H   H9        1.0  0.39821  0.37259  0.26325  1.0000
  H   H10       1.0  0.06838  0.03368  0.33067  1.0000
  Fe  Fe9       1.0  0.32661  0.08265  0.33947  1.0000
  S   S13       1.0  0.29804  0.09074  0.28955  1.0000
  C   C4        1.0  0.14822  0.00386  0.30629  1.0000
  C   C5        1.0  0.15216  0.12072  0.09399  1.0000
  H   H11       1.0  0.22792  0.01192  0.33267  1.0000
  H   H12       1.0  0.16538  0.13726  0.07627  1.0000
  C   C6        1.0  0.23561  0.01239  0.23648  1.0000
  C   C7        1.0  0.26043  0.00673  0.26443  1.0000
  C   C8        1.0  0.28069  0.03057  0.28065  1.0000
  C   C9        1.0  0.27585  0.06008  0.26896  1.0000
  C   C10       1.0  0.25141  0.06568  0.24090  1.0000
  C   C11       1.0  0.23112  0.04191  0.22478  1.0000
  H   H13       1.0  0.26396  0.98387  0.27353  1.0000
  H   H14       1.0  0.29979  0.02617  0.30223  1.0000
  H   H15       1.0  0.24750  0.08854  0.23208  1.0000
  H   H16       1.0  0.21129  0.04652  0.20379  1.0000
  C   C12       1.0  0.46539  0.17376  0.09773  1.0000
  C   C13       1.0  0.48346  0.14649  0.08688  1.0000
  C   C14       1.0  0.19171  0.38711  0.15826  1.0000
  C   C15       1.0  0.48306  0.20108  0.08722  1.0000
  H   H17       1.0  0.46987  0.12530  0.09491  1.0000
  H   H18       1.0  0.46999  0.22219  0.09608  1.0000
  H   H19       1.0  0.13896  0.39789  0.19115  1.0000
  C   C16       1.0  0.18598  0.40721  0.25080  1.0000
  H   H20       1.0  0.16498  0.09794  0.08790  1.0000
  H   H21       1.0  0.17679  0.99229  0.29541  1.0000
  C   C17       1.0  0.24463  0.30358  0.27257  1.0000
  C   C18       1.0  0.27626  0.30482  0.24796  1.0000
  C   C19       1.0  0.27740  0.28359  0.22245  1.0000
  C   C20       1.0  0.24680  0.26084  0.22138  1.0000
  C   C21       1.0  0.21488  0.25956  0.24587  1.0000
  C   C22       1.0  0.21367  0.28102  0.27142  1.0000
  H   H22       1.0  0.29973  0.32247  0.24842  1.0000
  H   H23       1.0  0.30184  0.28497  0.20348  1.0000
  H   H24       1.0  0.19104  0.24203  0.24510  1.0000
  H   H25       1.0  0.18903  0.27996  0.29030  1.0000
  H   H26       1.0  0.19340  0.10046  0.33341  1.0000
  C   C23       1.0  0.47786  0.13811  0.32905  1.0000
  H   H27       1.0  0.37692  0.97585  0.03396  1.0000
  H   H28       1.0  0.15324  0.33589  0.18398  1.0000
  C   C24       1.0  0.51816  0.20114  0.06546  1.0000
  H   H29       1.0  0.13755  0.14666  0.13780  1.0000
  H   H30       1.0  0.12130  0.42404  0.23831  1.0000
  C   C25       1.0  0.46568  0.35222  0.18527  1.0000
  C   C26       1.0  0.45050  0.32517  0.17231  1.0000
  C   C27       1.0  0.46810  0.29767  0.18279  1.0000
  H   H31       1.0  0.49077  0.98929  0.04990  1.0000
  H   H32       1.0  0.45213  0.37351  0.17722  1.0000
  H   H33       1.0  0.45656  0.27671  0.17276  1.0000
  C   C28       1.0  0.20826  0.18532  0.10395  1.0000
  H   H34       1.0  0.20407  0.36375  0.15879  1.0000
  H   H35       1.0  0.51789  0.12229  0.28905  1.0000
  C   C29       1.0  0.49767  0.35190  0.20910  1.0000
  C   C30       1.0  0.46082  0.15287  0.21118  1.0000
  C   C31       1.0  0.17050  0.33059  0.20703  1.0000
  N   N1        1.0  0.38836  0.15168  0.24235  1.0000
  C   C32       1.0  0.41161  0.15479  0.20978  1.0000
  C   C33       1.0  0.34101  0.15104  0.23612  1.0000
  C   C34       1.0  0.40090  0.12291  0.25980  1.0000
  C   C35       1.0  0.32174  0.17966  0.22024  1.0000
  C   C36       1.0  0.39686  0.09354  0.23972  1.0000
  H   H36       1.0  0.40043  0.13777  0.19173  1.0000
  H   H37       1.0  0.40428  0.17700  0.19818  1.0000
  H   H38       1.0  0.32290  0.14650  0.25933  1.0000
  H   H39       1.0  0.33284  0.13213  0.21944  1.0000
  H   H40       1.0  0.43423  0.12405  0.26876  1.0000
  H   H41       1.0  0.38112  0.11962  0.28242  1.0000
  H   H42       1.0  0.28652  0.17709  0.21912  1.0000
  H   H43       1.0  0.32765  0.20038  0.23468  1.0000
  H   H44       1.0  0.33318  0.18281  0.19450  1.0000
  H   H45       1.0  0.40704  0.07427  0.25546  1.0000
  H   H46       1.0  0.41774  0.09335  0.21751  1.0000
  H   H47       1.0  0.36341  0.08899  0.23274  1.0000
  H   H48       1.0  0.37636  0.16094  0.31211  1.0000
  N   N2        1.0  0.19187  0.38534  0.22253  1.0000
  H   H49       1.0  0.47446  0.17184  0.22530  1.0000
  H   H50       1.0  0.14749  0.13446  0.19497  1.0000
  C   C37       1.0  0.16787  0.35702  0.23153  1.0000
  C   C38       1.0  0.17443  0.39954  0.19152  1.0000
  H   H51       1.0  0.12754  0.98538  0.31569  1.0000
  H   H52       1.0  0.21676  0.40215  0.14797  1.0000
  H   H53       1.0  0.02702  0.25796  0.05151  1.0000
  N   N3        1.0  0.16098  0.02464  0.33410  1.0000
  H   H54       1.0  0.04949  0.98226  0.31731  1.0000
  H   H55       1.0  0.16552  0.38766  0.13996  1.0000
  H   H56       1.0  0.24518  0.13356  0.18342  1.0000
  C   C39       1.0  0.37652  0.35309  0.26060  1.0000
  H   H57       1.0  0.24647  0.36142  0.20077  1.0000
  C   C40       1.0  0.04112  0.41944  0.07770  1.0000
  H   H58       1.0  0.32473  0.29668  0.33163  1.0000
  C   C41       1.0  0.48338  0.33313  0.33036  1.0000
  C   C42       1.0  0.36753  0.00343  0.07671  1.0000
  H   H59       1.0  0.47394  0.15466  0.18569  1.0000
  C   C43       1.0  0.50718  0.14177  0.30298  1.0000
  H   H60       1.0  0.34016  0.18691  0.29189  1.0000
  H   H61       1.0  0.34156  0.28657  0.29191  1.0000
  H   H62       1.0  0.17037  0.27490  0.03606  1.0000
  C   C44       1.0  0.21180  0.17055  0.13819  1.0000
  C   C45       1.0  0.36838  0.99971  0.03894  1.0000
  H   H63       1.0  0.09474  0.30899  0.04667  1.0000
  C   C46       1.0  0.25358  0.30508  0.02825  1.0000
  H   H64       1.0  0.34844  0.98482  0.08771  1.0000
  H   H65       1.0  0.15414  0.31081  0.21822  1.0000
  S   S14       1.0  0.07741  0.42245  0.11049  1.0000
  H   H66       1.0  0.50880  0.37295  0.21930  1.0000
  C   C47       1.0  0.45204  0.33955  0.30194  1.0000
  H   H67       1.0  0.30086  0.39720  0.20678  1.0000
  H   H68       1.0  0.23243  0.17651  0.08623  1.0000
  S   S15       1.0  0.18732  0.46040  0.11715  1.0000
  H   H69       1.0  0.29465  0.14807  0.12725  1.0000
  N   N4        1.0  0.42161  0.31443  0.29346  1.0000
  C   C48       1.0  0.04047  0.42489  0.32259  1.0000
  C   C49       1.0  0.40093  0.32274  0.26123  1.0000
  C   C50       1.0  0.44742  0.28564  0.28966  1.0000
  H   H70       1.0  0.12489  0.44818  0.03745  1.0000
  H   H71       1.0  0.36137  0.17228  0.05961  1.0000
  C   C51       1.0  0.46455  0.16300  0.34767  1.0000
  C   C52       1.0  0.42826  0.26026  0.26859  1.0000
  H   H72       1.0  0.50660  0.31494  0.32408  1.0000
  H   H73       1.0  0.39636  0.25314  0.27723  1.0000
  H   H74       1.0  0.37836  0.30532  0.25278  1.0000
  H   H75       1.0  0.42554  0.32375  0.24136  1.0000
  C   C53       1.0  0.51537  0.32454  0.21967  1.0000
  H   H76       1.0  0.42685  0.26674  0.24216  1.0000
  H   H77       1.0  0.14838  0.03173  0.26125  1.0000
  H   H78       1.0  0.47195  0.34579  0.28006  1.0000
  H   H79       1.0  0.44695  0.03058  0.05548  1.0000
  H   H80       1.0  0.03392  0.02404  0.17094  1.0000
  H   H81       1.0  0.20362  0.32312  0.20165  1.0000
  C   C54       1.0  0.13950  0.41585  0.25987  1.0000
  H   H82       1.0  0.14523  0.06642  0.30847  1.0000
  H   H83       1.0  0.11434  0.99977  0.25995  1.0000
  H   H84       1.0  0.50257  0.35373  0.33467  1.0000
  H   H85       1.0  0.09815  0.25566  0.04718  1.0000
  C   C55       1.0  0.03369  0.07194  0.16169  1.0000
  S   S16       1.0  0.07522  0.07160  0.13211  1.0000
  C   C56       1.0  0.35318  0.28882  0.31734  1.0000
  S   S17       1.0  0.24412  0.00327  0.05352  1.0000
  C   C57       1.0  0.23901  0.37826  0.22010  1.0000
  H   H86       1.0  0.35139  0.02473  0.08422  1.0000
  H   H87       1.0  0.14008  0.43443  0.27816  1.0000
  H   H88       1.0  0.38568  0.05933  0.05335  1.0000
  S   S18       1.0  0.39707  0.07765  0.34690  1.0000
  H   H89       1.0  0.18776  0.12815  0.22498  1.0000
  C   C58       1.0  0.39999  0.17801  0.26385  1.0000
  H   H90       1.0  0.40180  0.14975  0.04079  1.0000
  C   C59       1.0  0.50062  0.29737  0.20646  1.0000
  C   C60       1.0  0.18125  0.13922  0.20092  1.0000
  H   H91       1.0  0.45487  0.27574  0.31423  1.0000
  H   H92       1.0  0.11713  0.11985  0.09003  1.0000
  H   H93       1.0  0.18544  0.16381  0.20480  1.0000
  H   H94       1.0  0.09777  0.03223  0.28277  1.0000
  H   H95       1.0  0.21218  0.10161  0.17649  1.0000
  C   C61       1.0  0.28511  0.12410  0.12633  1.0000
  C   C62       1.0  0.37419  0.18134  0.29632  1.0000
  H   H96       1.0  0.39706  0.19963  0.25003  1.0000
  H   H97       1.0  0.38758  0.20022  0.31082  1.0000
  H   H98       1.0  0.18150  0.42417  0.19121  1.0000
  H   H99       1.0  0.14987  0.10811  0.14441  1.0000
  H   H100      1.0  0.12235  0.39703  0.27212  1.0000
  H   H101      1.0  0.02411  0.11993  0.15709  1.0000
  H   H102      1.0  0.25008  0.36756  0.24338  1.0000
  C   C63       1.0  0.17275  0.05527  0.32061  1.0000
  H   H103      1.0  0.43409  0.17652  0.27110  1.0000
  H   H104      1.0  0.21422  0.20992  0.10642  1.0000
  H   H105      1.0  0.20226  0.42893  0.24542  1.0000
  S   S19       1.0  0.29581  0.25006  0.02872  1.0000
  C   C64       1.0  0.25122  0.03498  0.02801  1.0000
  H   H106      1.0  0.35074  0.35404  0.27953  1.0000
  H   H107      1.0  0.25712  0.41985  0.19287  1.0000
  H   H108      1.0  0.23430  0.12677  0.09173  1.0000
  C   C65       1.0  0.26837  0.40551  0.21347  1.0000
  H   H109      1.0  0.13314  0.36176  0.23445  1.0000
  H   H110      1.0  0.17573  0.18313  0.09390  1.0000
  C   C66       1.0  0.12572  0.01811  0.27624  1.0000
  H   H111      1.0  0.29356  0.11253  0.14969  1.0000
  H   H112      1.0  0.47893  0.29049  0.27778  1.0000
  H   H113      1.0  0.24319  0.17689  0.14858  1.0000
  H   H114      1.0  0.30479  0.11332  0.10661  1.0000
  H   H115      1.0  0.20105  0.39815  0.27365  1.0000
  N   N5        1.0  0.20574  0.13683  0.13971  1.0000
  S   S20       1.0  0.09011  0.42616  0.34243  1.0000
  H   H116      1.0  0.36125  0.35575  0.23613  1.0000
  H   H117      1.0  0.23098  0.09551  0.11882  1.0000
  C   C67       1.0  0.16055  0.12850  0.13051  1.0000
  H   H118      1.0  0.47248  0.13117  0.22142  1.0000
  H   H119      1.0  0.13621  0.40821  0.03496  1.0000
  H   H120      1.0  0.51327  0.27612  0.21511  1.0000
  H   H121      1.0  0.27181  0.41965  0.23583  1.0000
  C   C68       1.0  0.21305  0.12674  0.17481  1.0000
  C   C69       1.0  0.23750  0.12020  0.11800  1.0000
  H   H122      1.0  0.18772  0.18239  0.15394  1.0000
  H   H123      1.0  0.16935  0.23475  0.03417  1.0000
  C   C70       1.0  0.48050  0.19167  0.33990  1.0000
  S   S21       1.0  0.20898  0.98251  0.21746  1.0000
  C   C71       1.0  0.50969  0.19537  0.31368  1.0000
  H   H124      1.0  0.39994  0.00208  0.08736  1.0000
  H   H125      1.0  0.19739  0.05278  0.30084  1.0000
  H   H126      1.0  0.02956  0.37229  0.08701  1.0000
  H   H127      1.0  0.41813  0.20450  0.03571  1.0000
  H   H128      1.0  0.33487  0.00175  0.03035  1.0000
  H   H129      1.0  0.04420  0.97226  0.07928  1.0000
  H   H130      1.0  0.09225  0.06834  0.34551  1.0000
  H   H131      1.0  0.51014  0.33365  0.11121  1.0000
  C   C72       1.0  0.38947  0.31184  0.32127  1.0000
  C   C73       1.0  0.51853  0.14655  0.06502  1.0000
  C   C74       1.0  0.37599  0.16622  0.03544  1.0000
  H   H132      1.0  0.24868  0.11183  0.02921  1.0000
  C   C75       1.0  0.20023  0.01134  0.35008  1.0000
  H   H133      1.0  0.34476  0.05409  0.02416  1.0000
  C   C76       1.0  0.03032  0.44434  0.05813  1.0000
  C   C77       1.0  0.19017  0.07813  0.34568  1.0000
  H   H134      1.0  0.46664  0.11586  0.33530  1.0000
  H   H135      1.0  0.40564  0.30529  0.34449  1.0000
  Fe  Fe10      1.0  0.11716  0.38011  0.35428  1.0000
  H   H136      1.0  0.22266  0.07182  0.35397  1.0000
  H   H137      1.0  0.46677  0.32778  0.35387  1.0000
  H   H138      1.0  0.43432  0.36047  0.30898  1.0000
  H   H139      1.0  0.37471  0.33409  0.32742  1.0000
  C   C78       1.0  0.46460  0.98880  0.03162  1.0000
  C   C79       1.0  0.37999  0.05291  0.02726  1.0000
  C   C80       1.0  0.44254  0.02001  0.03087  1.0000
  H   H140      1.0  0.44384  0.97017  0.03986  1.0000
  H   H141      1.0  0.04493  0.46217  0.24128  1.0000
  H   H142      1.0  0.52154  0.21755  0.30769  1.0000
  C   C81       1.0  0.02336  0.39746  0.31227  1.0000
  H   H143      1.0  0.51822  0.37311  0.10625  1.0000
  H   H144      1.0  0.02347  0.29887  0.04996  1.0000
  H   H145      1.0  0.47025  0.21103  0.35421  1.0000
  H   H146      1.0  0.03009  0.97911  0.59419  1.0000
  S   S22       1.0  0.09207  0.35273  0.39653  1.0000
  H   H147      1.0  0.04421  0.32312  0.46893  1.0000
  Fe  Fe11      1.0  0.16060  0.34418  0.40944  1.0000
  S   S23       1.0  0.17766  0.34944  0.46326  1.0000
  H   H148      1.0  0.31063  0.20380  0.48808  1.0000
  Fe  Fe12      1.0  0.30764  0.09014  0.41307  1.0000
  H   H149      1.0  0.39668  0.12555  0.52799  1.0000
  S   S24       1.0  0.25165  0.09786  0.44739  1.0000
  Fe  Fe13      1.0  0.37872  0.04901  0.39062  1.0000
  S   S25       1.0  0.40771  0.00400  0.40338  1.0000
  S   S26       1.0  0.37658  0.08713  0.42691  1.0000
  C   C82       1.0  0.27520  0.11667  0.60819  1.0000
  H   H150      1.0  0.51947  0.20884  0.53073  1.0000
  C   C83       1.0  0.45463  0.00464  0.42697  1.0000
  C   C84       1.0  0.47319  0.03178  0.43696  1.0000
  C   C85       1.0  0.25211  0.99863  0.44947  1.0000
  H   H151      1.0  0.45906  0.05308  0.42982  1.0000
  S   S27       1.0  0.04956  0.43381  0.62197  1.0000
  C   C86       1.0  0.24596  0.04469  0.54415  1.0000
  C   C87       1.0  0.28517  0.04865  0.52769  1.0000
  C   C88       1.0  0.28730  0.06503  0.49802  1.0000
  C   C89       1.0  0.25027  0.07789  0.48494  1.0000
  C   C90       1.0  0.21132  0.07477  0.50197  1.0000
  C   C91       1.0  0.20907  0.05802  0.53141  1.0000
  H   H152      1.0  0.31390  0.03868  0.53768  1.0000
  H   H153      1.0  0.31753  0.06763  0.48524  1.0000
  H   H154      1.0  0.18264  0.08494  0.49210  1.0000
  H   H155      1.0  0.17878  0.05529  0.54410  1.0000
  C   C92       1.0  0.21418  0.32372  0.48094  1.0000
  C   C93       1.0  0.23237  0.30037  0.46235  1.0000
  C   C94       1.0  0.26126  0.28010  0.47698  1.0000
  C   C95       1.0  0.27219  0.28299  0.51028  1.0000
  C   C96       1.0  0.25402  0.30637  0.52897  1.0000
  C   C97       1.0  0.22511  0.32672  0.51428  1.0000
  H   H156      1.0  0.22426  0.29786  0.43669  1.0000
  H   H157      1.0  0.27516  0.26207  0.46239  1.0000
  H   H158      1.0  0.26237  0.30880  0.55463  1.0000
  H   H159      1.0  0.21130  0.34481  0.52880  1.0000
  H   H160      1.0  0.25766  0.38703  0.46779  1.0000
  C   C98       1.0  0.33500  0.19480  0.47039  1.0000
  Fe  Fe14      1.0  0.32898  0.25656  0.58064  1.0000
  S   S28       1.0  0.31826  0.21378  0.60942  1.0000
  S   S29       1.0  0.30890  0.25695  0.52716  1.0000
  Fe  Fe15      1.0  0.38241  0.28336  0.63535  1.0000
  S   S30       1.0  0.37666  0.24270  0.66792  1.0000
  S   S31       1.0  0.41779  0.32507  0.64987  1.0000
  Fe  Fe16      1.0  0.38781  0.21629  0.62143  1.0000
  S   S32       1.0  0.42666  0.17304  0.62082  1.0000
  Fe  Fe17      1.0  0.30796  0.24420  0.65309  1.0000
  H   H161      1.0  0.16629  0.42674  0.54377  1.0000
  S   S33       1.0  0.39959  0.25707  0.58997  1.0000
  S   S34       1.0  0.31257  0.28689  0.62331  1.0000
  H   H162      1.0  0.33811  0.13091  0.48272  1.0000
  S   S35       1.0  0.11554  0.00861  0.58686  1.0000
  H   H163      1.0  0.22445  0.41379  0.50555  1.0000
  H   H164      1.0  0.05328  0.46087  0.55678  1.0000
  S   S36       1.0  0.15970  0.04806  0.64664  1.0000
  C   C99       1.0  0.12630  0.02657  0.36015  1.0000
  Fe  Fe18      1.0  0.09351  0.03717  0.62959  1.0000
  C   C100      1.0  0.22671  0.11250  0.60377  1.0000
  Fe  Fe19      1.0  0.18131  0.01569  0.60720  1.0000
  S   S37       1.0  0.24426  0.02262  0.58025  1.0000
  S   S38       1.0  0.08466  0.99889  0.66499  1.0000
  H   H165      1.0  0.23681  0.11191  0.67152  1.0000
  C   C101      1.0  0.16383  0.39040  0.66044  1.0000
  C   C102      1.0  0.46641  0.16906  0.59009  1.0000
  C   C103      1.0  0.48509  0.14066  0.58448  1.0000
  H   H166      1.0  0.28612  0.19587  0.43276  1.0000
  C   C104      1.0  0.47958  0.19370  0.57107  1.0000
  H   H167      1.0  0.47538  0.12151  0.59928  1.0000
  H   H168      1.0  0.46626  0.21577  0.57575  1.0000
  S   S39       1.0  0.04276  0.07293  0.62477  1.0000
  N   N6        1.0  0.20808  0.44416  0.46521  1.0000
  C   C105      1.0  0.26428  0.40369  0.44798  1.0000
  C   C106      1.0  0.16812  0.46035  0.45353  1.0000
  H   H169      1.0  0.13889  0.44740  0.46035  1.0000
  Fe  Fe20      1.0  0.11052  0.97076  0.62364  1.0000
  C   C107      1.0  0.19616  0.42561  0.49519  1.0000
  H   H170      1.0  0.19877  0.40654  0.43258  1.0000
  H   H171      1.0  0.13880  0.03690  0.38308  1.0000
  S   S40       1.0  0.16761  0.30260  0.37834  1.0000
  H   H172      1.0  0.02341  0.39023  0.48054  1.0000
  H   H173      1.0  0.12927  0.39294  0.65552  1.0000
  H   H174      1.0  0.20987  0.02483  0.37184  1.0000
  H   H175      1.0  0.37482  0.07306  0.63047  1.0000
  H   H176      1.0  0.35959  0.20220  0.53215  1.0000
  H   H177      1.0  0.31732  0.99279  0.43176  1.0000
  C   C108      1.0  0.33970  0.11523  0.64152  1.0000
  H   H178      1.0  0.17430  0.43383  0.68211  1.0000
  C   C109      1.0  0.22441  0.42263  0.43914  1.0000
  H   H179      1.0  0.33173  0.17405  0.42107  1.0000
  Fe  Fe21      1.0  0.10057  0.31349  0.36251  1.0000
  H   H180      1.0  0.17318  0.40770  0.48838  1.0000
  H   H181      1.0  0.14650  0.45560  0.51721  1.0000
  H   H182      1.0  0.42634  0.23191  0.52626  1.0000
  C   C110      1.0  0.38552  0.19379  0.51547  1.0000
  H   H183      1.0  0.30104  0.16506  0.67005  1.0000
  C   C111      1.0  0.29940  0.99084  0.45553  1.0000
  C   C112      1.0  0.45123  0.32298  0.68429  1.0000
  H   H184      1.0  0.41223  0.18430  0.44827  1.0000
  H   H185      1.0  0.30149  0.06073  0.62079  1.0000
  H   H186      1.0  0.22260  0.96526  0.49890  1.0000
  S   S41       1.0  0.42847  0.15887  0.38089  1.0000
  H   H187      1.0  0.23285  0.97904  0.44209  1.0000
  C   C113      1.0  0.27015  0.12031  0.66944  1.0000
  H   H188      1.0  0.21748  0.12199  0.57946  1.0000
  C   C114      1.0  0.41238  0.22115  0.50429  1.0000
  C   C115      1.0  0.31037  0.17967  0.44217  1.0000
  H   H189      1.0  0.11007  0.29866  0.47238  1.0000
  H   H190      1.0  0.26798  0.45482  0.48864  1.0000
  H   H191      1.0  0.36010  0.09452  0.59428  1.0000
  H   H192      1.0  0.10166  0.37921  0.51589  1.0000
  H   H193      1.0  0.27409  0.39028  0.42602  1.0000
  H   H194      1.0  0.25405  0.06616  0.64299  1.0000
  H   H195      1.0  0.25002  0.01464  0.42844  1.0000
  H   H196      1.0  0.39276  0.23882  0.49223  1.0000
  H   H197      1.0  0.38614  0.14997  0.44492  1.0000
  H   H198      1.0  0.41569  0.97467  0.49458  1.0000
  C   C116      1.0  0.37059  0.09609  0.62017  1.0000
  N   N7        1.0  0.06138  0.33960  0.51773  1.0000
  H   H199      1.0  0.03049  0.32575  0.56316  1.0000
  C   C117      1.0  0.05219  0.34442  0.48164  1.0000
  C   C118      1.0  0.09772  0.31725  0.52196  1.0000
  H   H200      1.0  0.28222  0.14097  0.60376  1.0000
  C   C119      1.0  0.09117  0.36940  0.56738  1.0000
  C   C120      1.0  0.26866  0.15512  0.66954  1.0000
  C   C121      1.0  0.10066  0.29070  0.49741  1.0000
  H   H201      1.0  0.17287  0.36635  0.66371  1.0000
  H   H202      1.0  0.45795  0.27456  0.68436  1.0000
  S   S42       1.0  0.31979  0.12297  0.37208  1.0000
  H   H203      1.0  0.50433  0.30592  0.62396  1.0000
  S   S43       1.0  0.18520  0.37542  0.37006  1.0000
  H   H204      1.0  0.12910  0.32876  0.51969  1.0000
  H   H205      1.0  0.09721  0.30732  0.54722  1.0000
  H   H206      1.0  0.04891  0.38637  0.53078  1.0000
  C   C122      1.0  0.40045  0.16506  0.46350  1.0000
  H   H207      1.0  0.11842  0.35374  0.57123  1.0000
  S   S44       1.0  0.30848  0.05004  0.37952  1.0000
  H   H208      1.0  0.06503  0.36428  0.58514  1.0000
  N   N8        1.0  0.36698  0.17509  0.48815  1.0000
  C   C123      1.0  0.34309  0.14828  0.50210  1.0000
  C   C124      1.0  0.36286  0.13192  0.53195  1.0000
  H   H209      1.0  0.07082  0.27763  0.49593  1.0000
  H   H210      1.0  0.12628  0.27493  0.50544  1.0000
  C   C125      1.0  0.17579  0.44308  0.52427  1.0000
  H   H211      1.0  0.20752  0.12465  0.62269  1.0000
  H   H212      1.0  0.34495  0.11074  0.53653  1.0000
  H   H213      1.0  0.29076  0.10450  0.58728  1.0000
  C   C126      1.0  0.43945  0.14762  0.47682  1.0000
  H   H214      1.0  0.40251  0.10683  0.62000  1.0000
  H   H215      1.0  0.08146  0.35263  0.46873  1.0000
  H   H216      1.0  0.38016  0.00391  0.48228  1.0000
  H   H217      1.0  0.34357  0.13908  0.63327  1.0000
  H   H218      1.0  0.25071  0.16445  0.64838  1.0000
  H   H219      1.0  0.16864  0.08125  0.36727  1.0000
  H   H220      1.0  0.46720  0.15139  0.46003  1.0000
  H   H221      1.0  0.51605  0.38848  0.60561  1.0000
  C   C127      1.0  0.07541  0.36960  0.53140  1.0000
  N   N9        1.0  0.29334  0.10613  0.64061  1.0000
  C   C128      1.0  0.02616  0.44596  0.55804  1.0000
  H   H222      1.0  0.37035  0.98273  0.52001  1.0000
  C   C129      1.0  0.38142  0.98128  0.49402  1.0000
  H   H223      1.0  0.29182  0.41791  0.45464  1.0000
  H   H224      1.0  0.35053  0.21486  0.45913  1.0000
  Fe  Fe22      1.0  0.38924  0.11623  0.38218  1.0000
  H   H225      1.0  0.11548  0.00362  0.36754  1.0000
  H   H226      1.0  0.35218  0.11512  0.66711  1.0000
  H   H227      1.0  0.23264  0.43457  0.41588  1.0000
  H   H228      1.0  0.21776  0.08836  0.60331  1.0000
  H   H229      1.0  0.29280  0.15933  0.45041  1.0000
  H   H230      1.0  0.31183  0.01007  0.46994  1.0000
  H   H231      1.0  0.48972  0.35359  0.61240  1.0000
  H   H232      1.0  0.40641  0.18030  0.53179  1.0000
  C   C130      1.0  0.19612  0.97850  0.36260  1.0000
  C   C131      1.0  0.51031  0.97675  0.45549  1.0000
  H   H233      1.0  0.32003  0.03468  0.66778  1.0000
  H   H234      1.0  0.45028  0.15544  0.50111  1.0000
  H   H235      1.0  0.35981  0.14582  0.55464  1.0000
  Fe  Fe23      1.0  0.15277  0.00696  0.67842  1.0000
  H   H236      1.0  0.43956  0.21446  0.48812  1.0000
  H   H237      1.0  0.10255  0.39238  0.57360  1.0000
  H   H238      1.0  0.43315  0.12301  0.47791  1.0000
  C   C132      1.0  0.28837  0.07239  0.64303  1.0000
  H   H239      1.0  0.31034  0.15509  0.51042  1.0000
  H   H240      1.0  0.23746  0.00959  0.47149  1.0000
  C   C133      1.0  0.47335  0.97719  0.43629  1.0000
  H   H241      1.0  0.15740  0.44451  0.40282  1.0000
  S   S45       1.0  0.05092  0.27720  0.35992  1.0000
  S   S46       1.0  0.17830  0.97492  0.64029  1.0000
  H   H242      1.0  0.29605  0.98502  0.51900  1.0000
  H   H243      1.0  0.22738  0.97097  0.37248  1.0000
  C   C134      1.0  0.30695  0.05731  0.67423  1.0000
  C   C135      1.0  0.51576  0.13674  0.55929  1.0000
  C   C136      1.0  0.51037  0.03134  0.45623  1.0000
  H   H244      1.0  0.06350  0.04413  0.37270  1.0000
  H   H245      1.0  0.17249  0.97651  0.38303  1.0000
  H   H246      1.0  0.52032  0.37082  0.64490  1.0000
  C   C137      1.0  0.51913  0.36624  0.61810  1.0000
  H   H247      1.0  0.19881  0.45877  0.53559  1.0000
  C   C138      1.0  0.51001  0.18977  0.54576  1.0000
  H   H248      1.0  0.18061  0.39816  0.63771  1.0000
  H   H249      1.0  0.51528  0.20108  0.64417  1.0000
  H   H250      1.0  0.33351  0.06994  0.68530  1.0000
  Fe  Fe24      1.0  0.09951  0.31279  0.86621  1.0000
  S   S47       1.0  0.09111  0.35108  0.90162  1.0000
  N   N10       1.0  0.06078  0.05641  0.77342  1.0000
  Fe  Fe25      1.0  0.18041  0.33833  0.83592  1.0000
  S   S48       1.0  0.17867  0.37862  0.86954  1.0000
  S   S49       1.0  0.23310  0.33904  0.79736  1.0000
  Fe  Fe26      1.0  0.16146  0.34578  0.90962  1.0000
  S   S50       1.0  0.18213  0.35186  0.96244  1.0000
  Fe  Fe27      1.0  0.10884  0.38035  0.85862  1.0000
  S   S51       1.0  0.07808  0.42575  0.84932  1.0000
  S   S52       1.0  0.16906  0.30510  0.87712  1.0000
  S   S53       1.0  0.11148  0.34249  0.82205  1.0000
  Fe  Fe28      1.0  0.38918  0.13885  0.87250  1.0000
  S   S54       1.0  0.38959  0.10108  0.83596  1.0000
  S   S55       1.0  0.42777  0.18147  0.86842  1.0000
  Fe  Fe29      1.0  0.32251  0.10833  0.91685  1.0000
  S   S56       1.0  0.31702  0.06812  0.88345  1.0000
  S   S57       1.0  0.28927  0.11675  0.96578  1.0000
  Fe  Fe30      1.0  0.38883  0.07112  0.88065  1.0000
  S   S58       1.0  0.43140  0.03022  0.88518  1.0000
  Fe  Fe31      1.0  0.31824  0.10203  0.84190  1.0000
  S   S59       1.0  0.27864  0.10749  0.79586  1.0000
  S   S60       1.0  0.39394  0.10884  0.91675  1.0000
  S   S61       1.0  0.31799  0.14217  0.87573  1.0000
  C   C139      1.0  0.44047  0.22685  0.76110  1.0000
  S   S62       1.0  0.05554  0.27286  0.86527  1.0000
  C   C140      1.0  0.47158  0.03031  0.91519  1.0000
  C   C141      1.0  0.48491  0.05689  0.93059  1.0000
  H   H251      1.0  0.36291  0.02625  0.97392  1.0000
  H   H252      1.0  0.47197  0.07838  0.92303  1.0000
  H   H253      1.0  0.31231  0.17985  0.94829  1.0000
  H   H254      1.0  0.36163  0.97192  0.97843  1.0000
  H   H255      1.0  0.07400  0.99421  0.73977  1.0000
  S   S63       1.0  0.25695  0.23508  0.69144  1.0000
  H   H256      1.0  0.39718  0.23453  0.83519  1.0000
  C   C142      1.0  0.49449  0.34951  0.72408  1.0000
  C   C143      1.0  0.09192  0.41606  0.97519  1.0000
  C   C144      1.0  0.27270  0.08512  0.98869  1.0000
  C   C145      1.0  0.27940  0.05591  0.97672  1.0000
  C   C146      1.0  0.26878  0.03091  0.99638  1.0000
  H   H257      1.0  0.37039  0.28755  0.72698  1.0000
  H   H258      1.0  0.03254  0.25532  0.99076  1.0000
  H   H259      1.0  0.29352  0.05258  0.95258  1.0000
  H   H260      1.0  0.27494  0.00835  0.98726  1.0000
  C   C147      1.0  0.20385  0.03073  0.74861  1.0000
  C   C148      1.0  0.22455  0.02581  0.77870  1.0000
  C   C149      1.0  0.24820  0.04900  0.79340  1.0000
  C   C150      1.0  0.25064  0.07733  0.77823  1.0000
  C   C151      1.0  0.22960  0.08226  0.74833  1.0000
  C   C152      1.0  0.20659  0.05900  0.73342  1.0000
  H   H261      1.0  0.22244  0.00401  0.79067  1.0000
  H   H262      1.0  0.26424  0.04507  0.81652  1.0000
  H   H263      1.0  0.23067  0.10433  0.73694  1.0000
  H   H264      1.0  0.07138  0.24315  0.94728  1.0000
  H   H265      1.0  0.13457  0.31545  0.01642  1.0000
  H   H266      1.0  0.48974  0.42470  0.84781  1.0000
  H   H267      1.0  0.16247  0.42365  0.77163  1.0000
  C   C153      1.0  0.23738  0.31036  0.76746  1.0000
  C   C154      1.0  0.21347  0.28387  0.76971  1.0000
  C   C155      1.0  0.21910  0.26100  0.74598  1.0000
  H   H268      1.0  0.20445  0.45856  0.93972  1.0000
  C   C156      1.0  0.27144  0.29145  0.71721  1.0000
  C   C157      1.0  0.26616  0.31412  0.74107  1.0000
  H   H269      1.0  0.19116  0.28081  0.78998  1.0000
  H   H270      1.0  0.36805  0.28596  0.85230  1.0000
  H   H271      1.0  0.28478  0.33455  0.73921  1.0000
  C   C158      1.0  0.21624  0.32453  0.98003  1.0000
  C   C159      1.0  0.22996  0.29935  0.96206  1.0000
  C   C160      1.0  0.25502  0.27697  0.97719  1.0000
  C   C161      1.0  0.25404  0.08922  0.02000  1.0000
  H   H272      1.0  0.09180  0.42497  0.77078  1.0000
  C   C162      1.0  0.16853  0.37277  0.73520  1.0000
  H   H273      1.0  0.22100  0.29692  0.93657  1.0000
  H   H274      1.0  0.26506  0.25734  0.96323  1.0000
  H   H275      1.0  0.08522  0.29950  0.95280  1.0000
  H   H276      1.0  0.19018  0.06326  0.71063  1.0000
  H   H277      1.0  0.43445  0.23977  0.73815  1.0000
  H   H278      1.0  0.03692  0.10222  0.72659  1.0000
  C   C163      1.0  0.47288  0.17948  0.84228  1.0000
  H   H279      1.0  0.34023  0.21410  0.93835  1.0000
  H   H280      1.0  0.10522  0.43378  0.71133  1.0000
  C   C164      1.0  0.24828  0.26466  0.71978  1.0000
  C   C165      1.0  0.11623  0.96987  0.99405  1.0000
  H   H281      1.0  0.46351  0.20863  0.75439  1.0000
  C   C166      1.0  0.48963  0.00269  0.92457  1.0000
  C   C167      1.0  0.16133  0.43427  0.99285  1.0000
  C   C168      1.0  0.49886  0.29508  0.72047  1.0000
  H   H282      1.0  0.23358  0.44164  0.77139  1.0000
  H   H283      1.0  0.47966  0.98209  0.91271  1.0000
  C   C169      1.0  0.49712  0.20546  0.83660  1.0000
  C   C170      1.0  0.17651  0.45855  0.92320  1.0000
  H   H284      1.0  0.12667  0.23634  0.95751  1.0000
  H   H285      1.0  0.39133  0.07586  0.97956  1.0000
  N   N11       1.0  0.36526  0.23311  0.78819  1.0000
  C   C171      1.0  0.32961  0.21356  0.80156  1.0000
  C   C172      1.0  0.38298  0.25039  0.81693  1.0000
  C   C173      1.0  0.39924  0.21224  0.77437  1.0000
  C   C174      1.0  0.34746  0.25353  0.76177  1.0000
  C   C175      1.0  0.30923  0.19153  0.77690  1.0000
  C   C176      1.0  0.35054  0.27051  0.83577  1.0000
  H   H286      1.0  0.29871  0.20297  0.75399  1.0000
  C   C177      1.0  0.37250  0.28278  0.75382  1.0000
  H   H287      1.0  0.34085  0.19982  0.82294  1.0000
  H   H288      1.0  0.30268  0.22767  0.81111  1.0000
  H   H289      1.0  0.40976  0.26516  0.80955  1.0000
  H   H290      1.0  0.07911  0.41680  0.00086  1.0000
  H   H291      1.0  0.12363  0.01837  0.00023  1.0000
  C   C178      1.0  0.39227  0.98294  0.97176  1.0000
  H   H292      1.0  0.34351  0.24093  0.73831  1.0000
  H   H293      1.0  0.31473  0.26111  0.76905  1.0000
  H   H294      1.0  0.28034  0.18144  0.78852  1.0000
  H   H295      1.0  0.33088  0.17234  0.77090  1.0000
  H   H296      1.0  0.06914  0.10118  0.79401  1.0000
  C   C179      1.0  0.40169  0.25015  0.98079  1.0000
  C   C180      1.0  0.07620  0.06216  0.73865  1.0000
  H   H297      1.0  0.47904  0.98323  0.00732  1.0000
  C   C181      1.0  0.07256  0.02448  0.78258  1.0000
  C   C182      1.0  0.46415  0.34990  0.69897  1.0000
  H   H298      1.0  0.10678  0.39334  0.97208  1.0000
  H   H299      1.0  0.40681  0.28234  0.75968  1.0000
  H   H300      1.0  0.35710  0.30252  0.76604  1.0000
  N   N12       1.0  0.41141  0.19164  0.98467  1.0000
  H   H301      1.0  0.05971  0.41173  0.92699  1.0000
  C   C183      1.0  0.14104  0.43692  0.93459  1.0000
  C   C184      1.0  0.39290  0.01598  0.98355  1.0000
  C   C185      1.0  0.37946  0.17858  0.96121  1.0000
  H   H302      1.0  0.16346  0.00264  0.97352  1.0000
  H   H303      1.0  0.36699  0.21177  0.02010  1.0000
  C   C186      1.0  0.47652  0.16648  0.95523  1.0000
  H   H304      1.0  0.39463  0.98271  0.94438  1.0000
  H   H305      1.0  0.41496  0.26969  0.96700  1.0000
  H   H306      1.0  0.11324  0.25774  0.92194  1.0000
  H   H307      1.0  0.14790  0.98167  0.92632  1.0000
  H   H308      1.0  0.45834  0.15717  0.93437  1.0000
  H   H309      1.0  0.16530  0.37207  0.76259  1.0000
  C   C187      1.0  0.44876  0.16995  0.98675  1.0000
  H   H310      1.0  0.39340  0.17714  0.93597  1.0000
  H   H311      1.0  0.37194  0.15470  0.96731  1.0000
  C   C188      1.0  0.33699  0.19579  0.95693  1.0000
  H   H312      1.0  0.46046  0.22596  0.98189  1.0000
  H   H313      1.0  0.32370  0.20489  0.98018  1.0000
  C   C189      1.0  0.48469  0.15249  0.82681  1.0000
  N   N13       1.0  0.15823  0.40408  0.72269  1.0000
  C   C190      1.0  0.05212  0.41743  0.95299  1.0000
  H   H314      1.0  0.12057  0.33730  0.74222  1.0000
  H   H315      1.0  0.16630  0.99699  0.01722  1.0000
  N   N14       1.0  0.12491  0.44031  0.96959  1.0000
  C   C191      1.0  0.08519  0.40669  0.75300  1.0000
  H   H316      1.0  0.05050  0.40810  0.74763  1.0000
  H   H317      1.0  0.06571  0.01956  0.80905  1.0000
  C   C192      1.0  0.02693  0.42278  0.83219  1.0000
  H   H318      1.0  0.02884  0.40028  0.96174  1.0000
  H   H319      1.0  0.13766  0.29166  0.96595  1.0000
  H   H320      1.0  0.24273  0.43390  0.72901  1.0000
  S   S64       1.0  0.17289  0.00178  0.73142  1.0000
  H   H321      1.0  0.05898  0.04754  0.72096  1.0000
  H   H322      1.0  0.14121  0.09537  0.81541  1.0000
  C   C193      1.0  0.42795  0.22156  0.97205  1.0000
  H   H323      1.0  0.40880  0.19533  0.79338  1.0000
  H   H324      1.0  0.21399  0.40598  0.69052  1.0000
  C   C194      1.0  0.07633  0.33922  0.00736  1.0000
  H   H325      1.0  0.49340  0.07587  0.85473  1.0000
  H   H326      1.0  0.50288  0.15026  0.96034  1.0000
  H   H327      1.0  0.15319  0.41348  0.93053  1.0000
  H   H328      1.0  0.41927  0.96937  0.98106  1.0000
  H   H329      1.0  0.11487  0.44030  0.91664  1.0000
  H   H330      1.0  0.17865  0.41317  0.98582  1.0000
  H   H331      1.0  0.33094  0.28466  0.81910  1.0000
  H   H332      1.0  0.14532  0.05699  0.80300  1.0000
  C   C195      1.0  0.39920  0.07848  0.00596  1.0000
  H   H333      1.0  0.32923  0.25677  0.85178  1.0000
  H   H334      1.0  0.20109  0.24032  0.74810  1.0000
  H   H335      1.0  0.43170  0.22110  0.94467  1.0000
  C   C196      1.0  0.22519  0.42591  0.75122  1.0000
  H   H336      1.0  0.46279  0.03416  0.01437  1.0000
  H   H337      1.0  0.11042  0.05569  0.73560  1.0000
  H   H338      1.0  0.16786  0.45025  0.73876  1.0000
  H   H339      1.0  0.38675  0.19909  0.75329  1.0000
  H   H340      1.0  0.46634  0.13236  0.83100  1.0000
  H   H341      1.0  0.10054  0.96785  0.01876  1.0000
  C   C197      1.0  0.08112  0.07767  0.79753  1.0000
  H   H342      1.0  0.36766  0.24854  0.97423  1.0000
  H   H343      1.0  0.40411  0.25564  0.00741  1.0000
  C   C198      1.0  0.22831  0.32744  0.01311  1.0000
  C   C199      1.0  0.13033  0.07894  0.79668  1.0000
  H   H344      1.0  0.14277  0.08702  0.77263  1.0000
  H   H345      1.0  0.23696  0.40324  0.75862  1.0000
  H   H346      1.0  0.45670  0.24098  0.77956  1.0000
  C   C200      1.0  0.17630  0.42679  0.74648  1.0000
  H   H347      1.0  0.07201  0.07161  0.82327  1.0000
  C   C201      1.0  0.14439  0.99829  0.99605  1.0000
  C   C202      1.0  0.07076  0.09480  0.72601  1.0000
  H   H348      1.0  0.04851  0.97880  0.77627  1.0000
  H   H349      1.0  0.09100  0.38456  0.76492  1.0000
  H   H350      1.0  0.10768  0.02099  0.78049  1.0000
  H   H351      1.0  0.35057  0.15567  0.02062  1.0000
  C   C203      1.0  0.11089  0.41037  0.72054  1.0000
  C   C204      1.0  0.10442  0.28307  0.96732  1.0000
  H   H352      1.0  0.43786  0.14681  0.99319  1.0000
  C   C205      1.0  0.51543  0.05563  0.95581  1.0000
  H   H353      1.0  0.03563  0.43962  0.95423  1.0000
  C   C206      1.0  0.10361  0.25317  0.94791  1.0000
  H   H354      1.0  0.08156  0.09584  0.69983  1.0000
  C   C207      1.0  0.05283  0.99947  0.76115  1.0000
  H   H355      1.0  0.41926  0.02733  0.96994  1.0000
  H   H356      1.0  0.17263  0.25575  0.99677  1.0000
  C   C208      1.0  0.51167  0.44141  0.83634  1.0000
  H   H357      1.0  0.18596  0.45209  0.99128  1.0000
  H   H358      1.0  0.43425  0.08032  0.00882  1.0000
  H   H359      1.0  0.38473  0.10027  0.01382  1.0000
  C   C209      1.0  0.10874  0.25573  0.02093  1.0000
  H   H360      1.0  0.51721  0.43404  0.81054  1.0000
  C   C210      1.0  0.04086  0.27722  0.00228  1.0000
  H   H361      1.0  0.18848  0.45102  0.89865  1.0000
  H   H362      1.0  0.47069  0.17681  0.00680  1.0000
  N   N15       1.0  0.08853  0.28164  0.00257  1.0000
  H   H363      1.0  0.48801  0.22650  0.84828  1.0000
  H   H364      1.0  0.29411  0.29448  0.69721  1.0000
  C   C211      1.0  0.46786  0.29543  0.69556  1.0000
  H   H365      1.0  0.49175  0.18794  0.94760  1.0000
  C   C212      1.0  0.26666  0.27966  0.01035  1.0000
  H   H366      1.0  0.08980  0.97515  0.97677  1.0000
  H   H367      1.0  0.09041  0.11102  0.73989  1.0000
  H   H368      1.0  0.08151  0.34297  0.98062  1.0000
  H   H369      1.0  0.02708  0.37417  0.83100  1.0000
  H   H370      1.0  0.09511  0.39598  0.70216  1.0000
  H   H371      1.0  0.08919  0.35912  0.02045  1.0000
  N   N16       1.0  0.39653  0.02142  0.02019  1.0000
  C   C213      1.0  0.15800  0.25563  0.02172  1.0000
  H   H372      1.0  0.04162  0.33863  0.01286  1.0000
  H   H373      1.0  0.09814  0.23369  0.01085  1.0000
  H   H374      1.0  0.16297  0.32734  0.71510  1.0000
  H   H375      1.0  0.12152  0.35139  0.70056  1.0000
  C   C214      1.0  0.51285  0.32224  0.73425  1.0000
  H   H376      1.0  0.20263  0.36704  0.73000  1.0000
  H   H377      1.0  0.50487  0.37052  0.73478  1.0000
  C   C215      1.0  0.14137  0.34633  0.72220  1.0000
  H   H378      1.0  0.28533  0.11344  0.69305  1.0000
  C   C216      1.0  0.51973  0.00140  0.94981  1.0000
  H   H379      1.0  0.28174  0.05444  0.69341  1.0000
  C   C217      1.0  0.09992  0.31069  0.01954  1.0000
  C   C218      1.0  0.52072  0.15140  0.80598  1.0000
  H   H380      1.0  0.51193  0.27387  0.72891  1.0000
  C   C219      1.0  0.39341  0.19514  0.01911  1.0000
  H   H381      1.0  0.49438  0.46334  0.83669  1.0000
  H   H382      1.0  0.45121  0.37121  0.69045  1.0000
  H   H383      1.0  0.02530  0.29463  0.98669  1.0000
  C   C220      1.0  0.17890  0.40978  0.68949  1.0000
  H   H384      1.0  0.25178  0.16290  0.69226  1.0000
  Fe  Fe32      1.0  0.19352  0.85533  0.33935  1.0000
  S   S65       1.0  0.08958  0.91990  0.10441  1.0000
  S   S66       1.0  0.23370  0.85931  0.29302  1.0000
  H   H385      1.0  0.11889  0.48253  0.24798  1.0000
  C   C221      1.0  0.47703  0.54043  0.04662  1.0000
  S   S67       1.0  0.12228  0.85582  0.33519  1.0000
  Fe  Fe33      1.0  0.32342  0.75401  0.08823  1.0000
  S   S68       1.0  0.32189  0.71546  0.12427  1.0000
  C   C222      1.0  0.15053  0.77871  0.06925  1.0000
  Fe  Fe34      1.0  0.38957  0.78732  0.12814  1.0000
  S   S69       1.0  0.39348  0.75153  0.16701  1.0000
  S   S70       1.0  0.42899  0.82942  0.12974  1.0000
  Fe  Fe35      1.0  0.39298  0.71940  0.12454  1.0000
  S   S71       1.0  0.43297  0.67701  0.12491  1.0000
  Fe  Fe36      1.0  0.32215  0.75115  0.16335  1.0000
  S   S72       1.0  0.28379  0.74378  0.20993  1.0000
  S   S73       1.0  0.39491  0.75530  0.08558  1.0000
  S   S74       1.0  0.31770  0.78969  0.12742  1.0000
  C   C223      1.0  0.28286  0.66304  0.23571  1.0000
  S   S75       1.0  0.11695  0.50394  0.08017  1.0000
  S   S76       1.0  0.22175  0.48326  0.20627  1.0000
  Fe  Fe37      1.0  0.18542  0.49310  0.15931  1.0000
  S   S77       1.0  0.19267  0.53366  0.12648  1.0000
  H   H386      1.0  0.03846  0.54746  0.26838  1.0000
  Fe  Fe38      1.0  0.12076  0.53262  0.12555  1.0000
  H   H387      1.0  0.10957  0.50931  0.33440  1.0000
  Fe  Fe39      1.0  0.18840  0.50111  0.08410  1.0000
  C   C224      1.0  0.08416  0.80325  0.02657  1.0000
  S   S78       1.0  0.11390  0.49401  0.16095  1.0000
  H   H388      1.0  0.40699  0.56675  0.07163  1.0000
  H   H389      1.0  0.11049  0.91666  0.02632  1.0000
  S   S79       1.0  0.38932  0.59469  0.33110  1.0000
  C   C225      1.0  0.46381  0.66197  0.30694  1.0000
  H   H390      1.0  0.49110  0.78085  0.07734  1.0000
  S   S80       1.0  0.27036  0.59143  0.30097  1.0000
  C   C226      1.0  0.42804  0.75084  0.27449  1.0000
  H   H391      1.0  0.38575  0.81393  0.20337  1.0000
  H   H392      1.0  0.10442  0.88146  0.17492  1.0000
  H   H393      1.0  0.44190  0.64339  0.30518  1.0000
  C   C227      1.0  0.23821  0.51370  0.23106  1.0000
  C   C228      1.0  0.26214  0.50793  0.25954  1.0000
  C   C229      1.0  0.27329  0.53161  0.28086  1.0000
  C   C230      1.0  0.25991  0.56113  0.27405  1.0000
  C   C231      1.0  0.23620  0.56686  0.24548  1.0000
  C   C232      1.0  0.22583  0.54334  0.22386  1.0000
  C   C233      1.0  0.04244  0.92376  0.08170  1.0000
  H   H394      1.0  0.29152  0.52694  0.30283  1.0000
  H   H395      1.0  0.22566  0.58963  0.24007  1.0000
  H   H396      1.0  0.20754  0.54809  0.20195  1.0000
  C   C234      1.0  0.46595  0.67299  0.09000  1.0000
  C   C235      1.0  0.48084  0.64430  0.08092  1.0000
  H   H397      1.0  0.19563  0.85584  0.18464  1.0000
  C   C236      1.0  0.47794  0.69816  0.07134  1.0000
  H   H398      1.0  0.47164  0.62474  0.09529  1.0000
  H   H399      1.0  0.46773  0.72038  0.07877  1.0000
  H   H400      1.0  0.48046  0.56492  0.05062  1.0000
  H   H401      1.0  0.27185  0.48505  0.26527  1.0000
  H   H402      1.0  0.15741  0.89736  0.28692  1.0000
  H   H403      1.0  0.19053  0.92672  0.26910  1.0000
  C   C237      1.0  0.24391  0.82696  0.26925  1.0000
  C   C238      1.0  0.23574  0.79807  0.28155  1.0000
  C   C239      1.0  0.24736  0.77259  0.26284  1.0000
  C   C240      1.0  0.26699  0.77598  0.23182  1.0000
  C   C241      1.0  0.27418  0.80491  0.21924  1.0000
  C   C242      1.0  0.26269  0.83034  0.23796  1.0000
  H   H404      1.0  0.22122  0.79533  0.30569  1.0000
  H   H405      1.0  0.24155  0.75023  0.27260  1.0000
  H   H406      1.0  0.28915  0.80771  0.19532  1.0000
  H   H407      1.0  0.26905  0.85270  0.22840  1.0000
  H   H408      1.0  0.18122  0.77063  0.07978  1.0000
  H   H409      1.0  0.51312  0.71419  0.02888  1.0000
  H   H410      1.0  0.08948  0.58836  0.24300  1.0000
  C   C243      1.0  0.52194  0.70939  0.31181  1.0000
  H   H411      1.0  0.26173  0.63815  0.19126  1.0000
  S   S81       1.0  0.22896  0.49461  0.03812  1.0000
  N   N17       1.0  0.10079  0.52583  0.26887  1.0000
  H   H412      1.0  0.37742  0.64738  0.27390  1.0000
  C   C244      1.0  0.46897  0.83249  0.15952  1.0000
  C   C245      1.0  0.48614  0.80719  0.17556  1.0000
  C   C246      1.0  0.34914  0.83580  0.30189  1.0000
  H   H413      1.0  0.14933  0.80344  0.07332  1.0000
  C   C247      1.0  0.04456  0.57358  0.16447  1.0000
  H   H414      1.0  0.03898  0.72147  0.04519  1.0000
  C   C248      1.0  0.05057  0.48691  0.24167  1.0000
  H   H415      1.0  0.26387  0.64921  0.25356  1.0000
  C   C249      1.0  0.48502  0.86114  0.16630  1.0000
  H   H416      1.0  0.04508  0.46590  0.06243  1.0000
  C   C250      1.0  0.06279  0.53980  0.28651  1.0000
  C   C251      1.0  0.35420  0.67471  0.21427  1.0000
  H   H417      1.0  0.41736  0.68834  0.19803  1.0000
  S   S82       1.0  0.28760  0.74757  0.04073  1.0000
  C   C252      1.0  0.11867  0.57511  0.23692  1.0000
  H   H418      1.0  0.39131  0.77297  0.23720  1.0000
  H   H419      1.0  0.39933  0.61093  0.23683  1.0000
  H   H420      1.0  0.27378  0.67765  0.18408  1.0000
  H   H421      1.0  0.23111  0.55950  0.04983  1.0000
  H   H422      1.0  0.30194  0.60898  0.22840  1.0000
  C   C253      1.0  0.24539  0.55484  0.02596  1.0000
  H   H423      1.0  0.39140  0.85389  0.20215  1.0000
  H   H424      1.0  0.49746  0.79787  0.26757  1.0000
  H   H425      1.0  0.45919  0.75252  0.28706  1.0000
  H   H426      1.0  0.34716  0.69853  0.22093  1.0000
  C   C254      1.0  0.33204  0.62145  0.22312  1.0000
  H   H427      1.0  0.35721  0.70371  0.27460  1.0000
  H   H428      1.0  0.08763  0.47991  0.28463  1.0000
  H   H429      1.0  0.36911  0.84346  0.32255  1.0000
  H   H430      1.0  0.47177  0.88076  0.15404  1.0000
  H   H431      1.0  0.43832  0.59522  0.02527  1.0000
  H   H432      1.0  0.12866  0.58234  0.21174  1.0000
  H   H433      1.0  0.22629  0.66715  0.20541  1.0000
  H   H434      1.0  0.35898  0.59361  0.26262  1.0000
  H   H435      1.0  0.35559  0.68422  0.31307  1.0000
  H   H436      1.0  0.49674  0.65115  0.26143  1.0000
  H   H437      1.0  0.34486  0.85432  0.28376  1.0000
  H   H438      1.0  0.14977  0.55011  0.29562  1.0000
  H   H439      1.0  0.03168  0.87583  0.07991  1.0000
  N   N18       1.0  0.13608  0.89713  0.21911  1.0000
  C   C255      1.0  0.18159  0.90042  0.20696  1.0000
  C   C256      1.0  0.12829  0.92117  0.24485  1.0000
  C   C257      1.0  0.10682  0.90225  0.19016  1.0000
  C   C258      1.0  0.13133  0.86560  0.23268  1.0000
  C   C259      1.0  0.19520  0.88008  0.17774  1.0000
  C   C260      1.0  0.15736  0.91988  0.27522  1.0000
  C   C261      1.0  0.06074  0.91303  0.19782  1.0000
  C   C262      1.0  0.08840  0.85761  0.24915  1.0000
  H   H440      1.0  0.18763  0.92407  0.19905  1.0000
  H   H441      1.0  0.20470  0.89554  0.22700  1.0000
  H   H442      1.0  0.09506  0.92092  0.25450  1.0000
  H   H443      1.0  0.31707  0.83122  0.31266  1.0000
  H   H444      1.0  0.12025  0.91980  0.17333  1.0000
  C   C263      1.0  0.36617  0.80658  0.28563  1.0000
  H   H445      1.0  0.13552  0.84872  0.21266  1.0000
  H   H446      1.0  0.44779  0.83408  0.23612  1.0000
  C   C264      1.0  0.44192  0.81228  0.29868  1.0000
  H   H447      1.0  0.40247  0.74697  0.29308  1.0000
  N   N19       1.0  0.41068  0.80794  0.27113  1.0000
  H   H448      1.0  0.09337  0.83831  0.26627  1.0000
  C   C265      1.0  0.41530  0.83400  0.24745  1.0000
  C   C266      1.0  0.15012  0.77092  0.03217  1.0000
  C   C267      1.0  0.40304  0.67078  0.21420  1.0000
  H   H449      1.0  0.35045  0.83809  0.22741  1.0000
  H   H450      1.0  0.06021  0.93680  0.20647  1.0000
  H   H451      1.0  0.16689  0.95130  0.04818  1.0000
  H   H452      1.0  0.07545  0.87578  0.26489  1.0000
  H   H453      1.0  0.08830  0.55952  0.33222  1.0000
  C   C268      1.0  0.14111  0.52670  0.28888  1.0000
  C   C269      1.0  0.38363  0.83459  0.21865  1.0000
  H   H454      1.0  0.36407  0.78862  0.30479  1.0000
  H   H455      1.0  0.16871  0.51832  0.27395  1.0000
  H   H456      1.0  0.33542  0.62135  0.19575  1.0000
  H   H457      1.0  0.41283  0.64873  0.20370  1.0000
  S   S83       1.0  0.19266  0.96185  0.12518  1.0000
  H   H458      1.0  0.43740  0.79535  0.31877  1.0000
  H   H459      1.0  0.35051  0.56138  0.07180  1.0000
  H   H460      1.0  0.34260  0.79996  0.26668  1.0000
  H   H461      1.0  0.27598  0.81049  0.05930  1.0000
  C   C270      1.0  0.34037  0.68582  0.28851  1.0000
  H   H462      1.0  0.17514  0.88371  0.15569  1.0000
  C   C271      1.0  0.37808  0.56884  0.05640  1.0000
  H   H463      1.0  0.37595  0.52546  0.03279  1.0000
  H   H464      1.0  0.30669  0.69259  0.29316  1.0000
  H   H465      1.0  0.16594  0.51602  0.33764  1.0000
  N   N20       1.0  0.32923  0.65345  0.23614  1.0000
  C   C272      1.0  0.26481  0.80750  0.03438  1.0000
  C   C273      1.0  0.34378  0.65478  0.27147  1.0000
  C   C274      1.0  0.49497  0.66636  0.28224  1.0000
  H   H466      1.0  0.22843  0.88587  0.17038  1.0000
  H   H467      1.0  0.15742  0.85961  0.25000  1.0000
  H   H468      1.0  0.47411  0.78496  0.17023  1.0000
  C   C275      1.0  0.14054  0.50787  0.32101  1.0000
  H   H469      1.0  0.32513  0.63873  0.28689  1.0000
  H   H470      1.0  0.42998  0.73050  0.25857  1.0000
  H   H471      1.0  0.13207  0.94399  0.23359  1.0000
  H   H472      1.0  0.43602  0.83420  0.31125  1.0000
  H   H473      1.0  0.04367  0.88671  0.33410  1.0000
  H   H474      1.0  0.27885  0.68683  0.24380  1.0000
  C   C276      1.0  0.10907  0.54113  0.23619  1.0000
  H   H475      1.0  0.41689  0.67391  0.23895  1.0000
  H   H476      1.0  0.37209  0.59294  0.05026  1.0000
  C   C277      1.0  0.26054  0.66113  0.20197  1.0000
  H   H477      1.0  0.13604  0.52981  0.22290  1.0000
  C   C278      1.0  0.50405  0.69465  0.04332  1.0000
  C   C279      1.0  0.41909  0.77882  0.25283  1.0000
  H   H478      1.0  0.12458  0.76796  0.08354  1.0000
  H   H479      1.0  0.06447  0.85097  0.23057  1.0000
  H   H480      1.0  0.08119  0.53909  0.21987  1.0000
  Fe  Fe40      1.0  0.31907  0.59042  0.34225  1.0000
  H   H481      1.0  0.36909  0.57970  0.22217  1.0000
  H   H482      1.0  0.37233  0.67641  0.05500  1.0000
  H   H483      1.0  0.16081  0.74699  0.02963  1.0000
  C   C280      1.0  0.09147  0.49313  0.26152  1.0000
  S   S84       1.0  0.08310  0.57545  0.13288  1.0000
  C   C281      1.0  0.49026  0.70539  0.33611  1.0000
  H   H484      1.0  0.34437  0.67255  0.18811  1.0000
  C   C282      1.0  0.36728  0.60067  0.23710  1.0000
  H   H485      1.0  0.44622  0.78104  0.23509  1.0000
  H   H486      1.0  0.14509  0.93594  0.29402  1.0000
  C   C283      1.0  0.46112  0.68170  0.33376  1.0000
  H   H487      1.0  0.51037  0.53162  0.04566  1.0000
  H   H488      1.0  0.08765  0.73010  0.06488  1.0000
  C   C284      1.0  0.51892  0.66599  0.03417  1.0000
  C   C285      1.0  0.03720  0.96034  0.31105  1.0000
  C   C286      1.0  0.05118  0.93468  0.32815  1.0000
  H   H489      1.0  0.04493  0.75828  0.06143  1.0000
  C   C287      1.0  0.06253  0.73977  0.04889  1.0000
  C   C288      1.0  0.07149  0.56672  0.30958  1.0000
  C   C289      1.0  0.51830  0.86463  0.18868  1.0000
  H   H490      1.0  0.41261  0.85599  0.26055  1.0000
  H   H491      1.0  0.08976  0.58504  0.29767  1.0000
  C   C290      1.0  0.48956  0.81294  0.28847  1.0000
  H   H492      1.0  0.05360  0.49410  0.21564  1.0000
  H   H493      1.0  0.14502  0.58095  0.25363  1.0000
  H   H494      1.0  0.18009  0.91176  0.04292  1.0000
  C   C291      1.0  0.18760  0.93507  0.03468  1.0000
  C   C292      1.0  0.50715  0.64082  0.05297  1.0000
  H   H495      1.0  0.04039  0.57661  0.31763  1.0000
  H   H496      1.0  0.04392  0.89876  0.21608  1.0000
  H   H497      1.0  0.49898  0.70756  0.17551  1.0000
  H   H498      1.0  0.07725  0.80129  0.05336  1.0000
  H   H499      1.0  0.14778  0.48376  0.31575  1.0000
  H   H500      1.0  0.03061  0.47293  0.32522  1.0000
  H   H501      1.0  0.22121  0.93932  0.04169  1.0000
  H   H502      1.0  0.50918  0.80473  0.30935  1.0000
  H   H503      1.0  0.24297  0.85356  0.02937  1.0000
  Fe  Fe41      1.0  0.11619  0.46510  0.11560  1.0000
  C   C293      1.0  0.03523  0.59947  0.18290  1.0000
  H   H504      1.0  0.51791  0.65833  0.15325  1.0000
  H   H505      1.0  0.09014  0.85129  0.03722  1.0000
  H   H506      1.0  0.49966  0.83619  0.28179  1.0000
  H   H507      1.0  0.04196  0.91254  0.17474  1.0000
  H   H508      1.0  0.46041  0.53010  0.06813  1.0000
  H   H509      1.0  0.04608  0.52278  0.30213  1.0000
  H   H510      1.0  0.41392  0.65871  0.03175  1.0000
  H   H511      1.0  0.05179  0.62030  0.17754  1.0000
  H   H512      1.0  0.18785  0.96252  0.34270  1.0000
  H   H513      1.0  0.51751  0.61860  0.04566  1.0000
  C   C294      1.0  0.03446  0.90647  0.32021  1.0000
  H   H514      1.0  0.02986  0.52669  0.15710  1.0000
  H   H515      1.0  0.14020  0.83361  0.02654  1.0000
  C   C295      1.0  0.52029  0.81061  0.19752  1.0000
  C   C296      1.0  0.38018  0.54938  0.02495  1.0000
  C   C297      1.0  0.38260  0.67028  0.02954  1.0000
  C   C298      1.0  0.02718  0.95221  0.07230  1.0000
  Fe  Fe42      1.0  0.12219  0.96344  0.11707  1.0000
  C   C299      1.0  0.02303  0.54670  0.17146  1.0000
  Fe  Fe43      1.0  0.12261  0.82759  0.38112  1.0000
  S   S85       1.0  0.11902  0.86685  0.41557  1.0000
  H   H516      1.0  0.28631  0.50040  0.45800  1.0000
  Fe  Fe44      1.0  0.19048  0.86357  0.41423  1.0000
  S   S86       1.0  0.22729  0.86914  0.46160  1.0000
  S   S87       1.0  0.19422  0.82263  0.38186  1.0000
  Fe  Fe45      1.0  0.33142  0.59840  0.41648  1.0000
  H   H517      1.0  0.12473  0.62585  0.56265  1.0000
  S   S88       1.0  0.30825  0.60569  0.46894  1.0000
  S   S89       1.0  0.08870  0.93837  0.35982  1.0000
  H   H518      1.0  0.29669  0.95124  0.40360  1.0000
  S   S90       1.0  0.40225  0.60312  0.41078  1.0000
  H   H519      1.0  0.25556  0.66508  0.47933  1.0000
  H   H520      1.0  0.17378  0.60863  0.57611  1.0000
  S   S91       1.0  0.42201  0.67732  0.36480  1.0000
  H   H521      1.0  0.50644  0.48085  0.39010  1.0000
  Fe  Fe46      1.0  0.09161  0.47476  0.62048  1.0000
  H   H522      1.0  0.47760  0.57071  0.42303  1.0000
  H   H523      1.0  0.28733  0.64206  0.67182  1.0000
  C   C300      1.0  0.20336  0.54434  0.50943  1.0000
  C   C301      1.0  0.23323  0.55681  0.53074  1.0000
  C   C302      1.0  0.26624  0.57492  0.51798  1.0000
  C   C303      1.0  0.26952  0.58049  0.48396  1.0000
  C   C304      1.0  0.24014  0.56751  0.46266  1.0000
  C   C305      1.0  0.20701  0.54964  0.47542  1.0000
  H   H524      1.0  0.23086  0.55254  0.55697  1.0000
  H   H525      1.0  0.28930  0.58463  0.53447  1.0000
  H   H526      1.0  0.24235  0.57186  0.43643  1.0000
  H   H527      1.0  0.18388  0.54011  0.45886  1.0000
  C   C306      1.0  0.24250  0.83581  0.48264  1.0000
  C   C307      1.0  0.22990  0.80737  0.47157  1.0000
  C   C308      1.0  0.24122  0.78123  0.48925  1.0000
  C   C309      1.0  0.26540  0.78326  0.51807  1.0000
  C   C310      1.0  0.27806  0.81167  0.52919  1.0000
  C   C311      1.0  0.26650  0.83785  0.51157  1.0000
  H   H528      1.0  0.21097  0.80549  0.44959  1.0000
  H   H529      1.0  0.23118  0.75938  0.48052  1.0000
  H   H530      1.0  0.29671  0.81349  0.55139  1.0000
  H   H531      1.0  0.27623  0.85974  0.52043  1.0000
  S   S92       1.0  0.07866  0.92618  0.61387  1.0000
  S   S93       1.0  0.08123  0.78718  0.39009  1.0000
  Fe  Fe47      1.0  0.32016  0.75451  0.58487  1.0000
  S   S94       1.0  0.32110  0.71515  0.61991  1.0000
  S   S95       1.0  0.27885  0.74992  0.53967  1.0000
  Fe  Fe48      1.0  0.38646  0.78793  0.62391  1.0000
  S   S96       1.0  0.39279  0.75151  0.66187  1.0000
  S   S97       1.0  0.42230  0.83151  0.62776  1.0000
  Fe  Fe49      1.0  0.39219  0.72011  0.61879  1.0000
  S   S98       1.0  0.43279  0.67787  0.61949  1.0000
  Fe  Fe50      1.0  0.32150  0.74986  0.66016  1.0000
  H   H532      1.0  0.22876  0.70415  0.58558  1.0000
  S   S99       1.0  0.39158  0.75672  0.58041  1.0000
  S   S100      1.0  0.31451  0.78898  0.62532  1.0000
  C   C312      1.0  0.30509  0.93115  0.41857  1.0000
  S   S101      1.0  0.07719  0.51606  0.59070  1.0000
  N   N21       1.0  0.20092  0.66081  0.53822  1.0000
  Fe  Fe51      1.0  0.17197  0.50173  0.64936  1.0000
  S   S102      1.0  0.16519  0.54525  0.62110  1.0000
  H   H533      1.0  0.34008  0.74308  0.46257  1.0000
  Fe  Fe52      1.0  0.09596  0.54151  0.63563  1.0000
  S   S103      1.0  0.19606  0.89616  0.37190  1.0000
  Fe  Fe53      1.0  0.14730  0.51584  0.57843  1.0000
  S   S104      1.0  0.16125  0.52173  0.52402  1.0000
  S   S105      1.0  0.10405  0.50030  0.66698  1.0000
  H   H534      1.0  0.20047  0.61681  0.51455  1.0000
  H   H535      1.0  0.07208  0.81231  0.58449  1.0000
  C   C313      1.0  0.47367  0.67647  0.58940  1.0000
  C   C314      1.0  0.49429  0.64899  0.58256  1.0000
  C   C315      1.0  0.49671  0.55048  0.42440  1.0000
  C   C316      1.0  0.48515  0.70228  0.57160  1.0000
  H   H536      1.0  0.48541  0.62890  0.59616  1.0000
  H   H537      1.0  0.47013  0.72369  0.57712  1.0000
  C   C317      1.0  0.24556  0.95279  0.51436  1.0000
  H   H538      1.0  0.35072  0.66480  0.55974  1.0000
  H   H539      1.0  0.17452  0.66088  0.58808  1.0000
  C   C318      1.0  0.46474  0.83281  0.65573  1.0000
  C   C319      1.0  0.43777  0.72744  0.46091  1.0000
  H   H540      1.0  0.32943  0.66356  0.50093  1.0000
  H   H541      1.0  0.28092  0.68115  0.67776  1.0000
  H   H542      1.0  0.40070  0.68091  0.54904  1.0000
  H   H543      1.0  0.14298  0.68015  0.55876  1.0000
  N   N22       1.0  0.38349  0.68765  0.48042  1.0000
  C   C320      1.0  0.40990  0.66035  0.47043  1.0000
  C   C321      1.0  0.35562  0.69522  0.45129  1.0000
  C   C322      1.0  0.41056  0.71427  0.48941  1.0000
  C   C323      1.0  0.45346  0.65585  0.48731  1.0000
  C   C324      1.0  0.32397  0.72181  0.45590  1.0000
  H   H544      1.0  0.51530  0.61975  0.41049  1.0000
  H   H545      1.0  0.41767  0.66083  0.44354  1.0000
  H   H546      1.0  0.39112  0.63928  0.47396  1.0000
  H   H547      1.0  0.37523  0.70031  0.42891  1.0000
  H   H548      1.0  0.33646  0.67511  0.44424  1.0000
  H   H549      1.0  0.38681  0.64311  0.53510  1.0000
  H   H550      1.0  0.43216  0.70906  0.51023  1.0000
  N   N23       1.0  0.30888  0.96149  0.47294  1.0000
  H   H551      1.0  0.21811  0.68765  0.45743  1.0000
  H   H552      1.0  0.29874  0.71663  0.47438  1.0000
  S   S106      1.0  0.22263  0.48957  0.68634  1.0000
  H   H553      1.0  0.30006  0.91334  0.46805  1.0000
  H   H554      1.0  0.45784  0.88076  0.66239  1.0000
  H   H555      1.0  0.44622  0.71034  0.44196  1.0000
  H   H556      1.0  0.26285  0.64087  0.52725  1.0000
  H   H557      1.0  0.16416  0.48252  0.46609  1.0000
  C   C325      1.0  0.15430  0.61400  0.55435  1.0000
  Fe  Fe54      1.0  0.39789  0.56485  0.37550  1.0000
  H   H558      1.0  0.24151  0.61339  0.57800  1.0000
  H   H559      1.0  0.19152  0.47715  0.40474  1.0000
  H   H560      1.0  0.05466  0.90843  0.48370  1.0000
  H   H561      1.0  0.02542  0.79615  0.56685  1.0000
  S   S107      1.0  0.32742  0.55730  0.38410  1.0000
  H   H562      1.0  0.03176  0.83874  0.41482  1.0000
  S   S108      1.0  0.05990  0.58279  0.65170  1.0000
  C   C326      1.0  0.25426  0.63654  0.57925  1.0000
  C   C327      1.0  0.35407  0.67994  0.50886  1.0000
  H   H563      1.0  0.26514  0.67549  0.54886  1.0000
  C   C328      1.0  0.26234  0.48498  0.44722  1.0000
  H   H564      1.0  0.23868  0.49953  0.43472  1.0000
  H   H565      1.0  0.46857  0.73574  0.47065  1.0000
  C   C329      1.0  0.48739  0.80682  0.66507  1.0000
  C   C330      1.0  0.24673  0.65414  0.54706  1.0000
  H   H566      1.0  0.47983  0.78533  0.65405  1.0000
  C   C331      1.0  0.02929  0.93050  0.59391  1.0000
  H   H567      1.0  0.25578  0.93467  0.45495  1.0000
  C   C332      1.0  0.19482  0.70604  0.57838  1.0000
  H   H568      1.0  0.12390  0.84529  0.57403  1.0000
  H   H569      1.0  0.46672  0.63338  0.48041  1.0000
  S   S109      1.0  0.16038  0.47228  0.60527  1.0000
  C   C333      1.0  0.48784  0.52599  0.40379  1.0000
  H   H570      1.0  0.21967  0.70315  0.51508  1.0000
  H   H571      1.0  0.22842  0.48313  0.49297  1.0000
  H   H572      1.0  0.17666  0.71325  0.60072  1.0000
  N   N24       1.0  0.09558  0.84522  0.52550  1.0000
  C   C334      1.0  0.08658  0.86670  0.49756  1.0000
  C   C335      1.0  0.12817  0.82228  0.51393  1.0000
  C   C336      1.0  0.11344  0.86158  0.55480  1.0000
  C   C337      1.0  0.05428  0.83036  0.53559  1.0000
  H   H573      1.0  0.08851  0.87567  0.56704  1.0000
  C   C338      1.0  0.11390  0.80097  0.48615  1.0000
  C   C339      1.0  0.15228  0.88202  0.54778  1.0000
  H   H574      1.0  0.18017  0.86914  0.53813  1.0000
  H   H575      1.0  0.11683  0.87586  0.48705  1.0000
  H   H576      1.0  0.07111  0.85463  0.47692  1.0000
  H   H577      1.0  0.13963  0.80809  0.53477  1.0000
  H   H578      1.0  0.15712  0.83376  0.50427  1.0000
  C   C340      1.0  0.04116  0.79081  0.42062  1.0000
  H   H579      1.0  0.23690  0.95771  0.54047  1.0000
  H   H580      1.0  0.20453  0.64974  0.46780  1.0000
  C   C341      1.0  0.29116  0.93462  0.45497  1.0000
  C   C342      1.0  0.05800  0.80460  0.56105  1.0000
  H   H581      1.0  0.13539  0.48079  0.41181  1.0000
  Fe  Fe55      1.0  0.12468  0.89500  0.36983  1.0000
  H   H582      1.0  0.13982  0.78435  0.48104  1.0000
  H   H583      1.0  0.08508  0.78784  0.49273  1.0000
  H   H584      1.0  0.10856  0.81335  0.46279  1.0000
  H   H585      1.0  0.45146  0.65647  0.51445  1.0000
  H   H586      1.0  0.42064  0.74637  0.44871  1.0000
  H   H587      1.0  0.06875  0.90773  0.52612  1.0000
  H   H588      1.0  0.16226  0.89254  0.57130  1.0000
  H   H589      1.0  0.28791  0.91166  0.40788  1.0000
  H   H590      1.0  0.34012  0.60384  0.67706  1.0000
  C   C343      1.0  0.22104  0.67010  0.47690  1.0000
  H   H591      1.0  0.07658  0.78515  0.55129  1.0000
  C   C344      1.0  0.35683  0.95756  0.47392  1.0000
  C   C345      1.0  0.05677  0.89360  0.50575  1.0000
  S   S110      1.0  0.31737  0.63108  0.37568  1.0000
  H   H592      1.0  0.45917  0.95616  0.42869  1.0000
  H   H593      1.0  0.28920  0.63408  0.58296  1.0000
  H   H594      1.0  0.33649  0.70037  0.51752  1.0000
  C   C346      1.0  0.37497  0.66640  0.53967  1.0000
  H   H595      1.0  0.19128  0.91829  0.68137  1.0000
  H   H596      1.0  0.47703  0.67283  0.47882  1.0000
  C   C347      1.0  0.17813  0.63243  0.52756  1.0000
  Fe  Fe56      1.0  0.38808  0.63262  0.36749  1.0000
  H   H597      1.0  0.19097  0.72434  0.55992  1.0000
  H   H598      1.0  0.15305  0.63785  0.50910  1.0000
  H   H599      1.0  0.33964  0.92601  0.41594  1.0000
  H   H600      1.0  0.30746  0.72601  0.43220  1.0000
  H   H601      1.0  0.35769  0.65676  0.67258  1.0000
  H   H602      1.0  0.50817  0.65885  0.40189  1.0000
  C   C348      1.0  0.17669  0.67582  0.56611  1.0000
  H   H603      1.0  0.24141  0.92811  0.51083  1.0000
  H   H604      1.0  0.36541  0.93493  0.48409  1.0000
  C   C349      1.0  0.20132  0.68244  0.50934  1.0000
  H   H605      1.0  0.24141  0.64850  0.60121  1.0000
  H   H606      1.0  0.14420  0.59213  0.54366  1.0000
  C   C350      1.0  0.51304  0.49985  0.40591  1.0000
  H   H607      1.0  0.16825  0.69027  0.50373  1.0000
  H   H608      1.0  0.39053  0.73292  0.49969  1.0000
  H   H609      1.0  0.14462  0.90085  0.53075  1.0000
  H   H610      1.0  0.12102  0.90866  0.68798  1.0000
  H   H611      1.0  0.37105  0.95835  0.44869  1.0000
  H   H612      1.0  0.48868  0.72050  0.35702  1.0000
  H   H613      1.0  0.03165  0.84713  0.54640  1.0000
  S   S111      1.0  0.44658  0.52715  0.37446  1.0000
  C   C351      1.0  0.47523  0.86064  0.66955  1.0000
  H   H614      1.0  0.04274  0.74338  0.43203  1.0000
  H   H615      1.0  0.03755  0.82126  0.51377  1.0000
  C   C352      1.0  0.51630  0.70048  0.54655  1.0000
  H   H616      1.0  0.27960  0.47064  0.42906  1.0000
  C   C353      1.0  0.16356  0.46596  0.41607  1.0000
  H   H617      1.0  0.31158  0.94672  0.52405  1.0000
  C   C354      1.0  0.24175  0.46642  0.47519  1.0000
  C   C355      1.0  0.51991  0.80870  0.68874  1.0000
  H   H618      1.0  0.49992  0.63198  0.36987  1.0000
  C   C356      1.0  0.02830  0.76500  0.43785  1.0000
  C   C357      1.0  0.52016  0.63727  0.39125  1.0000
  H   H619      1.0  0.02381  0.88607  0.51146  1.0000
  H   H620      1.0  0.04943  0.92812  0.68878  1.0000
  C   C358      1.0  0.29237  0.96215  0.50816  1.0000
  Fe  Fe57      1.0  0.10644  0.81535  0.88114  1.0000
  S   S112      1.0  0.10267  0.85326  0.91733  1.0000
  H   H621      1.0  0.21066  0.51311  0.81400  1.0000
  Fe  Fe58      1.0  0.17839  0.84427  0.84164  1.0000
  S   S113      1.0  0.17958  0.88440  0.87550  1.0000
  S   S114      1.0  0.22084  0.84946  0.79647  1.0000
  Fe  Fe59      1.0  0.17393  0.85061  0.91649  1.0000
  S   S115      1.0  0.20474  0.85837  0.96572  1.0000
  Fe  Fe60      1.0  0.10824  0.88302  0.87297  1.0000
  S   S116      1.0  0.06925  0.92594  0.86881  1.0000
  S   S117      1.0  0.17808  0.81029  0.88309  1.0000
  S   S118      1.0  0.10708  0.84525  0.83640  1.0000
  Fe  Fe61      1.0  0.38991  0.62506  0.85205  1.0000
  S   S119      1.0  0.38587  0.58734  0.81558  1.0000
  S   S120      1.0  0.41994  0.67056  0.84400  1.0000
  Fe  Fe62      1.0  0.33317  0.59312  0.90318  1.0000
  S   S121      1.0  0.32348  0.55280  0.87077  1.0000
  S   S122      1.0  0.30696  0.60207  0.95441  1.0000
  Fe  Fe63      1.0  0.39384  0.55744  0.86003  1.0000
  S   S123      1.0  0.43567  0.51607  0.86066  1.0000
  Fe  Fe64      1.0  0.31619  0.58615  0.82926  1.0000
  S   S124      1.0  0.26366  0.59009  0.79169  1.0000
  S   S125      1.0  0.40405  0.59538  0.89547  1.0000
  S   S126      1.0  0.31979  0.62625  0.86276  1.0000
  H   H622      1.0  0.15215  0.76420  0.93457  1.0000
  C   C359      1.0  0.51665  0.65330  0.77872  1.0000
  C   C360      1.0  0.47271  0.51615  0.89270  1.0000
  C   C361      1.0  0.49508  0.54233  0.90067  1.0000
  H   H623      1.0  0.27331  0.65714  0.71215  1.0000
  H   H624      1.0  0.48932  0.56300  0.88713  1.0000
  H   H625      1.0  0.09166  0.57457  0.79022  1.0000
  H   H626      1.0  0.46753  0.58858  0.95327  1.0000
  H   H627      1.0  0.16610  0.95155  0.90115  1.0000
  C   C362      1.0  0.15240  0.53197  0.79356  1.0000
  H   H628      1.0  0.43202  0.73560  0.73652  1.0000
  H   H629      1.0  0.42239  0.68648  0.69814  1.0000
  H   H630      1.0  0.32275  0.57478  0.70489  1.0000
  C   C363      1.0  0.28173  0.57255  0.97608  1.0000
  C   C364      1.0  0.28304  0.54297  0.96421  1.0000
  C   C365      1.0  0.26620  0.51936  0.98338  1.0000
  H   H631      1.0  0.10591  0.93761  0.93733  1.0000
  H   H632      1.0  0.03308  0.48906  0.77225  1.0000
  H   H633      1.0  0.29789  0.53815  0.94063  1.0000
  C   C366      1.0  0.38980  0.51072  0.96502  1.0000
  H   H634      1.0  0.12269  0.50305  0.74268  1.0000
  C   C367      1.0  0.26485  0.51169  0.73997  1.0000
  C   C368      1.0  0.27466  0.53386  0.76343  1.0000
  C   C369      1.0  0.25586  0.56249  0.76132  1.0000
  C   C370      1.0  0.22838  0.56915  0.73518  1.0000
  C   C371      1.0  0.12287  0.87874  0.75042  1.0000
  H   H635      1.0  0.12530  0.95507  0.76106  1.0000
  H   H636      1.0  0.29600  0.52860  0.78349  1.0000
  C   C372      1.0  0.48090  0.48936  0.90985  1.0000
  H   H637      1.0  0.33099  0.73912  0.94503  1.0000
  H   H638      1.0  0.10360  0.83611  0.72889  1.0000
  C   C373      1.0  0.33944  0.61645  0.72992  1.0000
  C   C374      1.0  0.43362  0.67759  0.96734  1.0000
  C   C375      1.0  0.23692  0.81872  0.77171  1.0000
  C   C376      1.0  0.25700  0.82454  0.74127  1.0000
  C   C377      1.0  0.27140  0.80068  0.72117  1.0000
  C   C378      1.0  0.26621  0.77084  0.73160  1.0000
  C   C379      1.0  0.24593  0.76499  0.76196  1.0000
  C   C380      1.0  0.23111  0.78886  0.78194  1.0000
  H   H639      1.0  0.26161  0.84761  0.73327  1.0000
  H   H640      1.0  0.24180  0.74192  0.77014  1.0000
  H   H641      1.0  0.21572  0.78418  0.80538  1.0000
  C   C381      1.0  0.23081  0.82804  0.98531  1.0000
  C   C382      1.0  0.23502  0.79994  0.96998  1.0000
  C   C383      1.0  0.38130  0.84072  0.73040  1.0000
  H   H642      1.0  0.46026  0.68934  0.97990  1.0000
  C   C384      1.0  0.31045  0.68336  0.96911  1.0000
  H   H643      1.0  0.34870  0.83136  0.73065  1.0000
  H   H644      1.0  0.22362  0.79686  0.94519  1.0000
  C   C385      1.0  0.31103  0.67177  0.76917  1.0000
  H   H645      1.0  0.46359  0.46909  0.90377  1.0000
  H   H646      1.0  0.43164  0.65491  0.97887  1.0000
  C   C386      1.0  0.35950  0.74730  0.95817  1.0000
  C   C387      1.0  0.51678  0.70652  0.79137  1.0000
  C   C388      1.0  0.46403  0.67394  0.81714  1.0000
  C   C389      1.0  0.48138  0.64922  0.80009  1.0000
  C   C390      1.0  0.48184  0.70250  0.81268  1.0000
  H   H647      1.0  0.46777  0.62704  0.80343  1.0000
  H   H648      1.0  0.38430  0.85765  0.75028  1.0000
  N   N25       1.0  0.39207  0.69471  0.97199  1.0000
  C   C391      1.0  0.34572  0.59361  0.70159  1.0000
  H   H649      1.0  0.30537  0.70519  0.98161  1.0000
  H   H650      1.0  0.31348  0.68318  0.79344  1.0000
  H   H651      1.0  0.41283  0.71281  0.01865  1.0000
  H   H652      1.0  0.41224  0.80218  0.70946  1.0000
  H   H653      1.0  0.09200  0.49627  0.82880  1.0000
  C   C392      1.0  0.11977  0.78242  0.97794  1.0000
  H   H654      1.0  0.26803  0.49643  0.97435  1.0000
  C   C393      1.0  0.08599  0.55501  0.77375  1.0000
  H   H655      1.0  0.40592  0.59929  0.99035  1.0000
  N   N26       1.0  0.13527  0.91035  0.74057  1.0000
  H   H656      1.0  0.20287  0.95787  0.98932  1.0000
  C   C394      1.0  0.45468  0.53218  0.01421  1.0000
  H   H657      1.0  0.16432  0.50321  0.83739  1.0000
  C   C395      1.0  0.23642  0.51813  0.71432  1.0000
  C   C396      1.0  0.12295  0.93104  0.76876  1.0000
  H   H658      1.0  0.20052  0.89977  0.75423  1.0000
  C   C397      1.0  0.13870  0.93650  0.94751  1.0000
  H   H659      1.0  0.16684  0.74526  0.97182  1.0000
  H   H660      1.0  0.19330  0.93669  0.73793  1.0000
  H   H661      1.0  0.04796  0.93262  0.98990  1.0000
  H   H662      1.0  0.13637  0.94358  0.81937  1.0000
  H   H663      1.0  0.17649  0.78434  0.02123  1.0000
  H   H664      1.0  0.08957  0.87789  0.76030  1.0000
  H   H665      1.0  0.40224  0.72196  0.92815  1.0000
  C   C398      1.0  0.10287  0.56472  0.73951  1.0000
  H   H666      1.0  0.11543  0.73857  0.95268  1.0000
  H   H667      1.0  0.12996  0.89291  0.99412  1.0000
  N   N27       1.0  0.41460  0.79587  0.76242  1.0000
  C   C399      1.0  0.41375  0.81443  0.79351  1.0000
  C   C400      1.0  0.37465  0.77708  0.76141  1.0000
  C   C401      1.0  0.41578  0.81578  0.73224  1.0000
  C   C402      1.0  0.45427  0.77635  0.76244  1.0000
  C   C403      1.0  0.45051  0.83725  0.79711  1.0000
  C   C404      1.0  0.37026  0.75258  0.78835  1.0000
  H   H668      1.0  0.11181  0.47907  0.77664  1.0000
  C   C405      1.0  0.45758  0.75266  0.73475  1.0000
  H   H669      1.0  0.38295  0.82696  0.79615  1.0000
  H   H670      1.0  0.41535  0.79958  0.81562  1.0000
  H   H671      1.0  0.37127  0.76590  0.73702  1.0000
  H   H672      1.0  0.47624  0.65635  0.93149  1.0000
  H   H673      1.0  0.44724  0.82692  0.72965  1.0000
  H   H674      1.0  0.15751  0.55349  0.80705  1.0000
  H   H675      1.0  0.48347  0.79043  0.75994  1.0000
  H   H676      1.0  0.45761  0.76432  0.78637  1.0000
  H   H677      1.0  0.48203  0.82583  0.79901  1.0000
  H   H678      1.0  0.45162  0.85400  0.77679  1.0000
  H   H679      1.0  0.44559  0.85014  0.82031  1.0000
  H   H680      1.0  0.34024  0.74000  0.78411  1.0000
  H   H681      1.0  0.39664  0.73580  0.78776  1.0000
  H   H682      1.0  0.36747  0.76252  0.81333  1.0000
  H   H683      1.0  0.04942  0.93528  0.73195  1.0000
  C   C406      1.0  0.24607  0.83183  0.01742  1.0000
  C   C407      1.0  0.11185  0.92137  0.71049  1.0000
  H   H684      1.0  0.30463  0.61839  0.73434  1.0000
  H   H685      1.0  0.09784  0.54742  0.72035  1.0000
  H   H686      1.0  0.02485  0.82669  0.92329  1.0000
  C   C408      1.0  0.12806  0.85372  0.72432  1.0000
  H   H687      1.0  0.37156  0.68733  0.75324  1.0000
  N   N28       1.0  0.10555  0.52663  0.78788  1.0000
  H   H688      1.0  0.27904  0.48942  0.74189  1.0000
  C   C409      1.0  0.25334  0.77555  0.98704  1.0000
  H   H689      1.0  0.16382  0.48172  0.91962  1.0000
  H   H690      1.0  0.47962  0.52927  0.99476  1.0000
  C   C410      1.0  0.38604  0.69934  0.00861  1.0000
  H   H691      1.0  0.14788  0.90490  0.81091  1.0000
  C   C411      1.0  0.50704  0.86244  0.69343  1.0000
  H   H692      1.0  0.36155  0.50636  0.98096  1.0000
  H   H693      1.0  0.08519  0.58526  0.73152  1.0000
  N   N29       1.0  0.41910  0.55269  0.00287  1.0000
  C   C412      1.0  0.14953  0.92792  0.80044  1.0000
  H   H694      1.0  0.45895  0.69285  0.91898  1.0000
  C   C413      1.0  0.18324  0.93827  0.99698  1.0000
  H   H695      1.0  0.29401  0.68771  0.75274  1.0000
  C   C414      1.0  0.26801  0.77922  0.01933  1.0000
  H   H696      1.0  0.21395  0.59135  0.73338  1.0000
  H   H697      1.0  0.05032  0.89399  0.00230  1.0000
  C   C415      1.0  0.35656  0.67680  0.95670  1.0000
  C   C416      1.0  0.06267  0.92017  0.71262  1.0000
  H   H698      1.0  0.06520  0.90342  0.96123  1.0000
  H   H699      1.0  0.14378  0.49365  0.01154  1.0000
  H   H700      1.0  0.45714  0.76323  0.71011  1.0000
  H   H701      1.0  0.16006  0.84284  0.72611  1.0000
  S   S127      1.0  0.28612  0.74048  0.70790  1.0000
  H   H702      1.0  0.08761  0.47838  0.95211  1.0000
  H   H703      1.0  0.37820  0.58345  0.70210  1.0000
  N   N30       1.0  0.13809  0.94062  0.98445  1.0000
  H   H704      1.0  0.35165  0.60553  0.75270  1.0000
  C   C417      1.0  0.17657  0.50663  0.81194  1.0000
  H   H705      1.0  0.04337  0.51330  0.73723  1.0000
  H   H706      1.0  0.44032  0.67995  0.74014  1.0000
  H   H707      1.0  0.05667  0.47432  0.73550  1.0000
  C   C418      1.0  0.39712  0.72489  0.95514  1.0000
  H   H708      1.0  0.46747  0.66283  0.70627  1.0000
  H   H709      1.0  0.38171  0.55865  0.95856  1.0000
  H   H710      1.0  0.08911  0.92762  0.77651  1.0000
  H   H711      1.0  0.37960  0.50737  0.93911  1.0000
  N   N31       1.0  0.36005  0.64682  0.72478  1.0000
  H   H712      1.0  0.15138  0.91364  0.94115  1.0000
  H   H713      1.0  0.48857  0.74049  0.73653  1.0000
  H   H714      1.0  0.35730  0.71292  0.01447  1.0000
  H   H715      1.0  0.20000  0.91852  0.98585  1.0000
  H   H716      1.0  0.07056  0.53309  0.87017  1.0000
  C   C419      1.0  0.44821  0.67188  0.93142  1.0000
  H   H717      1.0  0.51392  0.88396  0.70466  1.0000
  H   H718      1.0  0.34575  0.79164  0.76401  1.0000
  H   H719      1.0  0.35684  0.67963  0.92938  1.0000
  C   C420      1.0  0.11305  0.91468  0.99900  1.0000
  H   H720      1.0  0.19782  0.96184  0.93539  1.0000
  C   C421      1.0  0.40707  0.64123  0.71827  1.0000
  H   H721      1.0  0.09085  0.78977  0.96435  1.0000
  C   C422      1.0  0.10126  0.50037  0.76458  1.0000
  H   H722      1.0  0.29918  0.66497  0.98563  1.0000
  S   S128      1.0  0.06146  0.77618  0.88659  1.0000
  C   C423      1.0  0.18296  0.91280  0.73512  1.0000
  H   H723      1.0  0.48261  0.61547  0.98332  1.0000
  H   H724      1.0  0.42093  0.62653  0.73788  1.0000
  H   H725      1.0  0.42313  0.66091  0.91669  1.0000
  H   H726      1.0  0.28852  0.68305  0.94776  1.0000
  H   H727      1.0  0.36214  0.65227  0.96097  1.0000
  H   H728      1.0  0.35066  0.55522  0.01130  1.0000
  H   H729      1.0  0.16175  0.49997  0.97002  1.0000
  H   H730      1.0  0.42600  0.73657  0.96449  1.0000
  H   H731      1.0  0.36860  0.76881  0.94594  1.0000
  H   H732      1.0  0.14214  0.87105  0.77167  1.0000
  H   H733      1.0  0.37382  0.65323  0.77652  1.0000
  C   C424      1.0  0.40669  0.54319  0.96855  1.0000
  H   H734      1.0  0.35144  0.75313  0.98404  1.0000
  C   C425      1.0  0.35638  0.66487  0.75621  1.0000
  C   C426      1.0  0.51109  0.48874  0.93509  1.0000
  H   H735      1.0  0.11480  0.51836  0.98534  1.0000
  H   H736      1.0  0.29188  0.65123  0.77355  1.0000
  H   H737      1.0  0.16951  0.53479  0.76968  1.0000
  H   H738      1.0  0.05058  0.55320  0.77229  1.0000
  H   H739      1.0  0.43420  0.54475  0.95122  1.0000
  H   H740      1.0  0.41210  0.62891  0.69463  1.0000
  H   H741      1.0  0.44278  0.50879  0.01788  1.0000
  H   H742      1.0  0.18337  0.93434  0.79648  1.0000
  C   C427      1.0  0.05583  0.49427  0.75199  1.0000
  H   H743      1.0  0.25561  0.75368  0.97533  1.0000
  H   H744      1.0  0.12101  0.94511  0.70484  1.0000
  C   C428      1.0  0.26273  0.57845  0.00692  1.0000
  H   H745      1.0  0.14268  0.80140  0.97538  1.0000
  C   C429      1.0  0.47306  0.59162  0.97998  1.0000
  C   C430      1.0  0.13973  0.75580  0.95860  1.0000
  C   C431      1.0  0.21853  0.54701  0.71180  1.0000
  H   H746      1.0  0.04753  0.51778  0.81551  1.0000
  H   H747      1.0  0.46861  0.72163  0.82589  1.0000
  H   H748      1.0  0.02919  0.87608  0.83510  1.0000
  C   C432      1.0  0.08253  0.51907  0.81963  1.0000
  H   H749      1.0  0.07847  0.46948  0.99414  1.0000
  C   C433      1.0  0.06660  0.91140  0.98708  1.0000
  H   H750      1.0  0.50070  0.57771  0.98783  1.0000
  H   H751      1.0  0.05332  0.75206  0.99826  1.0000
  H   H752      1.0  0.13699  0.57096  0.74017  1.0000
  H   H753      1.0  0.23668  0.90392  0.70229  1.0000
  C   C434      1.0  0.10411  0.47081  0.97491  1.0000
  C   C435      1.0  0.13321  0.49685  0.98584  1.0000
  C   C436      1.0  0.24752  0.52520  0.01433  1.0000
  C   C437      1.0  0.20127  0.90278  0.70140  1.0000
  H   H754      1.0  0.05109  0.89684  0.71657  1.0000
  H   H755      1.0  0.12180  0.54435  0.85539  1.0000
  H   H756      1.0  0.35881  0.65431  0.01981  1.0000
  C   C438      1.0  0.08804  0.54169  0.84813  1.0000
  H   H757      1.0  0.38520  0.85300  0.70663  1.0000
  H   H758      1.0  0.17585  0.48493  0.79847  1.0000
  C   C439      1.0  0.43242  0.58534  0.00070  1.0000
  H   H759      1.0  0.41506  0.49364  0.96979  1.0000
  C   C440      1.0  0.16444  0.95950  0.92710  1.0000
  C   C441      1.0  0.43534  0.66956  0.71564  1.0000
  H   H760      1.0  0.07402  0.56408  0.84224  1.0000
  H   H761      1.0  0.34818  0.68861  0.69825  1.0000
  H   H762      1.0  0.28696  0.80541  0.69781  1.0000
  H   H763      1.0  0.10132  0.84172  0.99516  1.0000
  H   H764      1.0  0.09834  0.72855  0.00588  1.0000
  N   N32       1.0  0.10904  0.77639  0.01378  1.0000
  H   H765      1.0  0.26180  0.60129  0.01629  1.0000
  C   C442      1.0  0.10559  0.83412  0.02102  1.0000
  C   C443      1.0  0.02645  0.92427  0.84109  1.0000
  H   H766      1.0  0.51699  0.46799  0.94847  1.0000
  C   C444      1.0  0.34161  0.66403  0.69594  1.0000
  H   H767      1.0  0.19333  0.87932  0.69502  1.0000
  C   C445      1.0  0.02569  0.77822  0.92020  1.0000
  C   C446      1.0  0.08090  0.74889  0.01500  1.0000
  H   H768      1.0  0.05214  0.80445  0.01480  1.0000
  H   H769      1.0  0.19666  0.55221  0.69210  1.0000
  H   H770      1.0  0.12273  0.86137  0.69877  1.0000
  C   C447      1.0  0.29319  0.66037  0.68979  1.0000
  H   H771      1.0  0.85113  0.10540  0.09022  1.0000
  H   H772      1.0  0.98296  0.05716  0.10753  1.0000
  S   S129      1.0  0.79932  0.34338  0.09490  1.0000
  C   C448      1.0  0.63645  0.34456  0.18260  1.0000
  C   C449      1.0  0.97431  0.04034  0.08867  1.0000
  C   C450      1.0  0.96847  0.44307  0.16380  1.0000
  Fe  Fe65      1.0  0.66506  0.24847  0.21783  1.0000
  S   S130      1.0  0.66885  0.28869  0.25124  1.0000
  S   S131      1.0  0.69661  0.23993  0.16841  1.0000
  Fe  Fe66      1.0  0.59867  0.21689  0.26143  1.0000
  S   S132      1.0  0.59651  0.25434  0.29843  1.0000
  S   S133      1.0  0.56091  0.17385  0.26311  1.0000
  Fe  Fe67      1.0  0.59727  0.28456  0.25396  1.0000
  C   C451      1.0  0.83956  0.00775  0.08127  1.0000
  Fe  Fe68      1.0  0.66792  0.25493  0.29270  1.0000
  H   H773      1.0  0.66673  0.18945  0.34422  1.0000
  S   S134      1.0  0.59366  0.24709  0.21741  1.0000
  S   S135      1.0  0.67005  0.21470  0.25895  1.0000
  C   C452      1.0  0.99937  0.44155  0.03345  1.0000
  S   S136      1.0  0.81907  0.02892  0.25621  1.0000
  H   H774      1.0  0.69286  0.18682  0.09860  1.0000
  C   C453      1.0  0.97860  0.41399  0.02850  1.0000
  H   H775      1.0  0.60488  0.15757  0.10026  1.0000
  S   S137      1.0  0.91327  0.42272  0.26832  1.0000
  H   H776      1.0  0.64812  0.20681  0.11674  1.0000
  S   S138      1.0  0.55464  0.32529  0.25024  1.0000
  Fe  Fe69      1.0  0.88944  0.03190  0.24477  1.0000
  S   S139      1.0  0.92060  0.07617  0.23368  1.0000
  C   C454      1.0  0.91159  0.26991  0.34837  1.0000
  H   H777      1.0  0.66580  0.31249  0.11358  1.0000
  H   H778      1.0  0.88049  0.09528  0.17059  1.0000
  S   S140      1.0  0.60996  0.09126  0.05313  1.0000
  H   H779      1.0  0.58899  0.37182  0.12782  1.0000
  C   C455      1.0  0.57114  0.35027  0.13051  1.0000
  N   N33       1.0  0.86420  0.27540  0.35173  1.0000
  H   H780      1.0  0.84787  0.09969  0.04698  1.0000
  C   C456      1.0  0.75446  0.06390  0.14932  1.0000
  H   H781      1.0  0.82161  0.26560  0.27227  1.0000
  H   H782      1.0  0.85987  0.01446  0.13149  1.0000
  H   H783      1.0  0.86240  0.98911  0.07613  1.0000
  C   C457      1.0  0.62609  0.11824  0.15135  1.0000
  H   H784      1.0  0.70561  0.02684  0.08700  1.0000
  H   H785      1.0  0.57715  0.08499  0.14250  1.0000
  C   C458      1.0  0.71545  0.31445  0.34794  1.0000
  H   H786      1.0  0.90811  0.43055  0.07204  1.0000
  C   C459      1.0  0.01933  0.04543  0.17698  1.0000
  H   H787      1.0  0.65523  0.14015  0.09546  1.0000
  H   H788      1.0  0.84346  0.43070  0.31877  1.0000
  C   C460      1.0  0.98510  0.04650  0.19971  1.0000
  C   C461      1.0  0.96507  0.07409  0.20700  1.0000
  H   H789      1.0  0.74455  0.08832  0.35092  1.0000
  H   H790      1.0  0.57650  0.19957  0.13060  1.0000
  H   H791      1.0  0.97425  0.02602  0.21155  1.0000
  H   H792      1.0  0.96330  0.39545  0.15925  1.0000
  N   N34       1.0  0.63907  0.15066  0.14623  1.0000
  C   C462      1.0  0.01804  0.27771  0.03619  1.0000
  H   H793      1.0  0.99952  0.02257  0.08903  1.0000
  H   H794      1.0  0.91646  0.08134  0.06738  1.0000
  C   C463      1.0  0.98441  0.39700  0.29545  1.0000
  C   C464      1.0  0.96244  0.42396  0.28881  1.0000
  H   H795      1.0  0.76263  0.08649  0.15701  1.0000
  H   H796      1.0  0.97131  0.37570  0.28758  1.0000
  C   C465      1.0  0.75633  0.00987  0.15907  1.0000
  C   C466      1.0  0.65746  0.18840  0.09970  1.0000
  H   H797      1.0  0.64814  0.10288  0.13747  1.0000
  C   C467      1.0  0.68493  0.15334  0.15704  1.0000
  C   C468      1.0  0.73309  0.05957  0.11954  1.0000
  C   C469      1.0  0.61158  0.17178  0.16677  1.0000
  S   S141      1.0  0.77325  0.97857  0.18256  1.0000
  C   C470      1.0  0.86817  0.07792  0.15349  1.0000
  Fe  Fe70      1.0  0.83904  0.99564  0.29511  1.0000
  H   H798      1.0  0.62229  0.31167  0.06123  1.0000
  H   H799      1.0  0.84161  0.08842  0.13984  1.0000
  C   C471      1.0  0.77060  0.31438  0.11468  1.0000
  C   C472      1.0  0.75486  0.31926  0.14677  1.0000
  C   C473      1.0  0.73223  0.29656  0.16355  1.0000
  C   C474      1.0  0.72505  0.26887  0.14824  1.0000
  C   C475      1.0  0.74040  0.26407  0.11602  1.0000
  C   C476      1.0  0.76316  0.28676  0.09925  1.0000
  H   H800      1.0  0.76057  0.34060  0.15880  1.0000
  H   H801      1.0  0.72076  0.30041  0.18841  1.0000
  H   H802      1.0  0.73495  0.24266  0.10406  1.0000
  H   H803      1.0  0.77520  0.28283  0.07453  1.0000
  H   H804      1.0  0.54973  0.29144  0.13409  1.0000
  Fe  Fe71      1.0  0.82151  0.98954  0.22155  1.0000
  H   H805      1.0  0.54895  0.16571  0.14192  1.0000
  C   C477      1.0  0.93045  0.02568  0.09544  1.0000
  H   H806      1.0  0.64659  0.19465  0.07460  1.0000
  H   H807      1.0  0.76806  0.44433  0.33437  1.0000
  C   C478      1.0  0.90510  0.06656  0.13117  1.0000
  H   H808      1.0  0.81516  0.29714  0.32234  1.0000
  S   S142      1.0  0.89019  0.99509  0.20699  1.0000
  H   H809      1.0  0.97482  0.36756  0.04372  1.0000
  H   H810      1.0  0.72566  0.98289  0.12213  1.0000
  H   H811      1.0  0.83248  0.02029  0.05828  1.0000
  C   C479      1.0  0.73365  0.00551  0.12981  1.0000
  S   S143      1.0  0.90930  0.00238  0.28692  1.0000
  C   C480      1.0  0.69430  0.14406  0.19297  1.0000
  C   C481      1.0  0.88823  0.06660  0.07134  1.0000
  H   H812      1.0  0.78380  0.04674  0.32284  1.0000
  N   N35       1.0  0.90399  0.41370  0.14072  1.0000
  C   C482      1.0  0.89418  0.38624  0.12032  1.0000
  C   C483      1.0  0.88700  0.44108  0.12288  1.0000
  C   C484      1.0  0.88317  0.41206  0.17433  1.0000
  C   C485      1.0  0.95162  0.41533  0.14511  1.0000
  C   C486      1.0  0.90203  0.35536  0.13694  1.0000
  H   H813      1.0  0.96401  0.12184  0.19719  1.0000
  C   C487      1.0  0.83424  0.40814  0.17463  1.0000
  N   N36       1.0  0.89377  0.04732  0.10171  1.0000
  H   H814      1.0  0.86049  0.38678  0.11194  1.0000
  H   H815      1.0  0.91359  0.38607  0.09717  1.0000
  H   H816      1.0  0.69616  0.17698  0.15464  1.0000
  H   H817      1.0  0.85271  0.43810  0.11668  1.0000
  H   H818      1.0  0.89742  0.39361  0.18942  1.0000
  Fe  Fe72      1.0  0.82824  0.33789  0.04381  1.0000
  H   H819      1.0  0.81845  0.07543  0.07365  1.0000
  H   H820      1.0  0.96911  0.41343  0.12125  1.0000
  H   H821      1.0  0.88097  0.35182  0.15871  1.0000
  H   H822      1.0  0.89415  0.33728  0.11909  1.0000
  H   H823      1.0  0.93586  0.35200  0.14379  1.0000
  H   H824      1.0  0.62976  0.19227  0.17382  1.0000
  C   C488      1.0  0.99000  0.38899  0.04767  1.0000
  N   N37       1.0  0.60141  0.32339  0.13008  1.0000
  H   H825      1.0  0.65566  0.35154  0.11742  1.0000
  H   H826      1.0  0.61329  0.35210  0.06599  1.0000
  H   H827      1.0  0.92723  0.28918  0.33555  1.0000
  C   C489      1.0  0.76626  0.03915  0.16891  1.0000
  H   H828      1.0  0.96659  0.98995  0.34447  1.0000
  H   H829      1.0  0.60257  0.16097  0.19066  1.0000
  H   H830      1.0  0.58803  0.31021  0.18056  1.0000
  H   H831      1.0  0.62877  0.11158  0.17769  1.0000
  H   H832      1.0  0.69485  0.11914  0.19586  1.0000
  H   H833      1.0  0.63563  0.26813  0.10448  1.0000
  Fe  Fe73      1.0  0.68144  0.08950  0.04936  1.0000
  C   C490      1.0  0.84901  0.08775  0.07108  1.0000
  H   H834      1.0  0.70652  0.13977  0.14075  1.0000
  S   S144      1.0  0.57922  0.17478  0.02646  1.0000
  H   H835      1.0  0.97776  0.97677  0.04685  1.0000
  C   C491      1.0  0.72220  0.03034  0.10993  1.0000
  H   H836      1.0  0.99646  0.97769  0.27273  1.0000
  H   H837      1.0  0.81772  0.42830  0.16450  1.0000
  H   H838      1.0  0.91244  0.39691  0.34907  1.0000
  C   C492      1.0  0.84470  0.28319  0.31879  1.0000
  C   C493      1.0  0.56991  0.18368  0.15110  1.0000
  C   C494      1.0  0.78189  0.42189  0.34044  1.0000
  H   H839      1.0  0.66583  0.33730  0.06028  1.0000
  S   S145      1.0  0.89928  0.33299  0.03649  1.0000
  H   H840      1.0  0.92634  0.05388  0.14824  1.0000
  C   C495      1.0  0.90990  0.44910  0.09023  1.0000
  H   H841      1.0  0.88664  0.05223  0.04893  1.0000
  H   H842      1.0  0.00236  0.44687  0.15657  1.0000
  H   H843      1.0  0.90670  0.22152  0.33396  1.0000
  H   H844      1.0  0.53156  0.22235  0.05725  1.0000
  H   H845      1.0  0.77336  0.40660  0.31990  1.0000
  H   H846      1.0  0.84305  0.22854  0.35157  1.0000
  H   H847      1.0  0.63089  0.14226  0.33903  1.0000
  H   H848      1.0  0.96640  0.43957  0.19092  1.0000
  H   H849      1.0  0.61598  0.36506  0.18287  1.0000
  C   C496      1.0  0.01805  0.45177  0.31654  1.0000
  C   C497      1.0  0.53470  0.35084  0.10511  1.0000
  H   H850      1.0  0.93431  0.01002  0.11681  1.0000
  H   H851      1.0  0.72666  0.15207  0.19955  1.0000
  S   S146      1.0  0.72282  0.09129  0.09461  1.0000
  H   H852      1.0  0.78329  0.04281  0.19154  1.0000
  C   C498      1.0  0.92646  0.24165  0.32932  1.0000
  H   H853      1.0  0.82396  0.38775  0.16115  1.0000
  H   H854      1.0  0.88950  0.43297  0.18854  1.0000
  H   H855      1.0  0.80915  0.99710  0.08915  1.0000
  H   H856      1.0  0.58632  0.24839  0.10525  1.0000
  C   C499      1.0  0.97951  0.10050  0.19173  1.0000
  H   H857      1.0  0.64178  0.33849  0.20879  1.0000
  H   H858      1.0  0.94366  0.45544  0.09408  1.0000
  H   H859      1.0  0.92848  0.24629  0.30244  1.0000
  H   H860      1.0  0.80200  0.24546  0.30723  1.0000
  H   H861      1.0  0.90415  0.45242  0.34096  1.0000
  H   H862      1.0  0.85566  0.05926  0.16907  1.0000
  H   H863      1.0  0.98304  0.27621  0.03221  1.0000
  H   H864      1.0  0.67142  0.15429  0.21081  1.0000
  H   H865      1.0  0.82678  0.04315  0.11522  1.0000
  C   C500      1.0  0.58019  0.10995  0.14190  1.0000
  H   H866      1.0  0.95881  0.23507  0.33799  1.0000
  C   C501      1.0  0.63786  0.15785  0.10986  1.0000
  Fe  Fe74      1.0  0.90452  0.96511  0.25008  1.0000
  H   H867      1.0  0.82308  0.40564  0.20058  1.0000
  C   C502      1.0  0.52347  0.17032  0.29543  1.0000
  H   H868      1.0  0.86693  0.29724  0.30373  1.0000
  H   H869      1.0  0.55424  0.35205  0.15475  1.0000
  C   C503      1.0  0.85466  0.02867  0.10913  1.0000
  H   H870      1.0  0.66817  0.34994  0.17178  1.0000
  H   H871      1.0  0.92388  0.08669  0.12345  1.0000
  H   H872      1.0  0.92440  0.01118  0.07370  1.0000
  S   S147      1.0  0.70967  0.25278  0.33779  1.0000
  C   C504      1.0  0.64076  0.33002  0.10959  1.0000
  C   C505      1.0  0.63435  0.33281  0.07219  1.0000
  C   C506      1.0  0.83080  0.25668  0.29685  1.0000
  H   H873      1.0  0.70357  0.31740  0.32318  1.0000
  S   S148      1.0  0.81336  0.98838  0.34679  1.0000
  H   H874      1.0  0.97560  0.05104  0.06393  1.0000
  H   H875      1.0  0.56654  0.29847  0.09297  1.0000
  H   H876      1.0  0.55131  0.19643  0.17001  1.0000
  C   C507      1.0  0.83104  0.42280  0.34317  1.0000
  H   H877      1.0  0.85637  0.23976  0.29280  1.0000
  C   C508      1.0  0.61556  0.31758  0.16501  1.0000
  C   C509      1.0  0.60491  0.26601  0.11806  1.0000
  C   C510      1.0  0.77581  0.04483  0.34873  1.0000
  H   H878      1.0  0.61072  0.25754  0.14336  1.0000
  H   H879      1.0  0.53150  0.12547  0.05601  1.0000
  H   H880      1.0  0.55684  0.11890  0.16021  1.0000
  C   C511      1.0  0.53596  0.17390  0.05431  1.0000
  C   C512      1.0  0.97938  0.45138  0.29935  1.0000
  H   H881      1.0  0.63924  0.29879  0.16609  1.0000
  H   H882      1.0  0.57163  0.11720  0.11670  1.0000
  H   H883      1.0  0.84169  0.39892  0.34555  1.0000
  C   C513      1.0  0.01348  0.09940  0.16900  1.0000
  H   H884      1.0  0.58921  0.18864  0.34580  1.0000
  C   C514      1.0  0.57862  0.29555  0.11841  1.0000
  H   H885      1.0  0.86102  0.33930  0.33739  1.0000
  H   H886      1.0  0.54591  0.34755  0.07944  1.0000
  C   C515      1.0  0.02128  0.39167  0.07205  1.0000
  H   H887      1.0  0.88724  0.46135  0.13891  1.0000
  Fe  Fe75      1.0  0.87585  0.31465  0.48714  1.0000
  S   S149      1.0  0.87686  0.35381  0.45234  1.0000
  S   S150      1.0  0.91218  0.27226  0.47435  1.0000
  Fe  Fe76      1.0  0.80665  0.35643  0.46266  1.0000
  S   S151      1.0  0.76249  0.36762  0.42051  1.0000
  S   S152      1.0  0.80444  0.31512  0.49478  1.0000
  Fe  Fe77      1.0  0.67635  0.08562  0.46377  1.0000
  C   C516      1.0  0.71140  0.16879  0.37755  1.0000
  Fe  Fe78      1.0  0.67371  0.07893  0.53862  1.0000
  H   H888      1.0  0.91403  0.08920  0.54327  1.0000
  H   H889      1.0  0.58672  0.36608  0.60731  1.0000
  S   S153      1.0  0.60514  0.08385  0.45978  1.0000
  C   C517      1.0  0.74240  0.06595  0.39814  1.0000
  H   H890      1.0  0.80261  0.07421  0.53077  1.0000
  H   H891      1.0  0.88841  0.44883  0.43149  1.0000
  C   C518      1.0  0.82752  0.05931  0.54163  1.0000
  H   H892      1.0  0.91442  0.40189  0.39357  1.0000
  C   C519      1.0  0.75470  0.04031  0.41589  1.0000
  C   C520      1.0  0.93489  0.07571  0.55964  1.0000
  H   H893      1.0  0.95068  0.45432  0.63432  1.0000
  H   H894      1.0  0.76798  0.29048  0.56549  1.0000
  H   H895      1.0  0.74742  0.03884  0.44192  1.0000
  H   H896      1.0  0.91019  0.33283  0.35989  1.0000
  C   C521      1.0  0.74917  0.00380  0.64908  1.0000
  H   H897      1.0  0.91374  0.06215  0.63622  1.0000
  C   C522      1.0  0.78726  0.01889  0.36630  1.0000
  C   C523      1.0  0.95248  0.27472  0.44387  1.0000
  C   C524      1.0  0.96633  0.30254  0.43140  1.0000
  H   H898      1.0  0.68003  0.41964  0.53095  1.0000
  C   C525      1.0  0.01481  0.27681  0.39337  1.0000
  C   C526      1.0  0.61285  0.30953  0.60724  1.0000
  C   C527      1.0  0.97055  0.24805  0.43148  1.0000
  H   H899      1.0  0.95330  0.32321  0.44121  1.0000
  H   H900      1.0  0.89066  0.23413  0.40211  1.0000
  H   H901      1.0  0.99761  0.34775  0.53826  1.0000
  H   H902      1.0  0.96024  0.22647  0.44112  1.0000
  C   C528      1.0  0.74421  0.33604  0.39837  1.0000
  C   C529      1.0  0.74732  0.30703  0.41177  1.0000
  C   C530      1.0  0.73518  0.28186  0.39327  1.0000
  C   C531      1.0  0.01771  0.42957  0.58687  1.0000
  N   N38       1.0  0.70130  0.45434  0.49673  1.0000
  H   H903      1.0  0.95516  0.41683  0.36734  1.0000
  H   H904      1.0  0.75951  0.30383  0.43628  1.0000
  H   H905      1.0  0.73832  0.25948  0.40377  1.0000
  H   H906      1.0  0.59402  0.20595  0.63283  1.0000
  Fe  Fe79      1.0  0.81790  0.34680  0.53651  1.0000
  S   S154      1.0  0.81487  0.38839  0.50481  1.0000
  S   S155      1.0  0.78385  0.35272  0.58549  1.0000
  Fe  Fe80      1.0  0.88517  0.38155  0.49792  1.0000
  C   C532      1.0  0.92026  0.41268  0.36926  1.0000
  S   S156      1.0  0.88930  0.34205  0.53225  1.0000
  Fe  Fe81      1.0  0.60322  0.11382  0.50430  1.0000
  S   S157      1.0  0.60226  0.07578  0.54088  1.0000
  C   C533      1.0  0.00121  0.30020  0.52564  1.0000
  H   H907      1.0  0.84791  0.25647  0.42070  1.0000
  H   H908      1.0  0.72956  0.45012  0.56570  1.0000
  S   S158      1.0  0.67416  0.11915  0.50493  1.0000
  H   H909      1.0  0.64303  0.41689  0.43581  1.0000
  H   H910      1.0  0.63681  0.32797  0.60809  1.0000
  C   C534      1.0  0.74101  0.46059  0.47651  1.0000
  C   C535      1.0  0.73360  0.99886  0.61722  1.0000
  H   H911      1.0  0.89911  0.99125  0.37750  1.0000
  H   H912      1.0  0.54603  0.19687  0.68048  1.0000
  H   H913      1.0  0.71470  0.16155  0.40355  1.0000
  C   C536      1.0  0.72084  0.02339  0.59741  1.0000
  S   S159      1.0  0.57584  0.00207  0.48923  1.0000
  H   H914      1.0  0.52644  0.24944  0.60913  1.0000
  C   C537      1.0  0.67200  0.41988  0.45100  1.0000
  H   H915      1.0  0.52683  0.26315  0.65110  1.0000
  H   H916      1.0  0.75413  0.43938  0.46556  1.0000
  H   H917      1.0  0.77345  0.44177  0.53794  1.0000
  H   H918      1.0  0.55512  0.34738  0.57799  1.0000
  C   C538      1.0  0.85042  0.07626  0.65119  1.0000
  C   C539      1.0  0.72757  0.33974  0.36657  1.0000
  C   C540      1.0  0.00117  0.24907  0.40605  1.0000
  H   H919      1.0  0.57541  0.25874  0.62784  1.0000
  C   C541      1.0  0.54155  0.26566  0.62621  1.0000
  S   S160      1.0  0.93166  0.42019  0.49709  1.0000
  N   N39       1.0  0.62917  0.16939  0.38361  1.0000
  H   H920      1.0  0.67564  0.14690  0.62739  1.0000
  C   C542      1.0  0.75543  0.32290  0.60390  1.0000
  C   C543      1.0  0.73512  0.32798  0.63435  1.0000
  C   C544      1.0  0.71292  0.30470  0.65032  1.0000
  C   C545      1.0  0.71018  0.27627  0.63574  1.0000
  C   C546      1.0  0.72964  0.27131  0.60489  1.0000
  C   C547      1.0  0.75254  0.29454  0.58906  1.0000
  H   H921      1.0  0.73669  0.35004  0.64564  1.0000
  H   H922      1.0  0.78678  0.99712  0.41381  1.0000
  C   C548      1.0  0.63985  0.15844  0.58451  1.0000
  H   H923      1.0  0.74130  0.08040  0.65078  1.0000
  C   C549      1.0  0.84112  0.24901  0.36713  1.0000
  H   H924      1.0  0.63708  0.34349  0.66128  1.0000
  H   H925      1.0  0.60870  0.08242  0.65466  1.0000
  C   C550      1.0  0.98313  0.40971  0.58788  1.0000
  H   H926      1.0  0.84163  0.40280  0.40282  1.0000
  C   C551      1.0  0.92735  0.97975  0.38858  1.0000
  H   H927      1.0  0.96711  0.30038  0.53344  1.0000
  H   H928      1.0  0.92786  0.98810  0.41426  1.0000
  H   H929      1.0  0.00728  0.32509  0.39612  1.0000
  C   C552      1.0  0.98952  0.04388  0.66892  1.0000
  H   H930      1.0  0.90596  0.44868  0.66110  1.0000
  H   H931      1.0  0.85818  0.42221  0.45300  1.0000
  N   N40       1.0  0.57024  0.32009  0.62070  1.0000
  H   H932      1.0  0.62334  0.17844  0.57394  1.0000
  C   C553      1.0  0.62902  0.16398  0.42042  1.0000
  H   H933      1.0  0.63576  0.44046  0.48991  1.0000
  C   C554      1.0  0.62159  0.10141  0.63975  1.0000
  H   H934      1.0  0.66419  0.18558  0.62405  1.0000
  H   H935      1.0  0.58024  0.21945  0.41366  1.0000
  H   H936      1.0  0.70946  0.01958  0.57268  1.0000
  C   C555      1.0  0.60398  0.34707  0.67034  1.0000
  H   H937      1.0  0.55943  0.12948  0.35926  1.0000
  S   S161      1.0  0.71361  0.09550  0.41715  1.0000
  C   C556      1.0  0.53520  0.29813  0.61304  1.0000
  C   C557      1.0  0.66707  0.99280  0.40778  1.0000
  C   C558      1.0  0.66434  0.44654  0.47488  1.0000
  H   H938      1.0  0.60031  0.31469  0.55393  1.0000
  H   H939      1.0  0.71973  0.98065  0.50213  1.0000
  H   H940      1.0  0.64800  0.14332  0.42623  1.0000
  H   H941      1.0  0.96267  0.06802  0.54451  1.0000
  H   H942      1.0  0.64658  0.29278  0.56391  1.0000
  H   H943      1.0  0.59517  0.27637  0.56933  1.0000
  H   H944      1.0  0.00224  0.02295  0.65933  1.0000
  H   H945      1.0  0.84158  0.05461  0.66308  1.0000
  H   H946      1.0  0.94797  0.09025  0.57931  1.0000
  H   H947      1.0  0.58368  0.30095  0.66876  1.0000
  H   H948      1.0  0.84589  0.01061  0.58219  1.0000
  N   N41       1.0  0.61170  0.15981  0.64459  1.0000
  H   H949      1.0  0.72732  0.24942  0.59330  1.0000
  C   C559      1.0  0.72390  0.05286  0.60944  1.0000
  C   C560      1.0  0.73896  0.05765  0.64135  1.0000
  C   C561      1.0  0.85303  0.02441  0.60429  1.0000
  H   H950      1.0  0.96238  0.98454  0.56364  1.0000
  H   H951      1.0  0.52908  0.11461  0.55457  1.0000
  H   H952      1.0  0.86067  0.98455  0.63482  1.0000
  C   C562      1.0  0.85605  0.23935  0.40169  1.0000
  C   C563      1.0  0.88043  0.00391  0.62655  1.0000
  C   C564      1.0  0.00311  0.07144  0.65561  1.0000
  H   H953      1.0  0.85124  0.09574  0.57136  1.0000
  H   H954      1.0  0.76641  0.41276  0.36299  1.0000
  S   S162      1.0  0.68206  0.04555  0.49741  1.0000
  H   H955      1.0  0.01060  0.36691  0.44660  1.0000
  H   H956      1.0  0.74800  0.41239  0.56077  1.0000
  S   S163      1.0  0.71194  0.08449  0.58495  1.0000
  H   H957      1.0  0.62072  0.13800  0.57983  1.0000
  C   C565      1.0  0.61305  0.29779  0.57149  1.0000
  H   H958      1.0  0.99746  0.98208  0.38112  1.0000
  H   H959      1.0  0.89769  0.44974  0.61775  1.0000
  H   H960      1.0  0.98495  0.35994  0.48524  1.0000
  C   C566      1.0  0.64746  0.18921  0.44238  1.0000
  C   C567      1.0  0.89634  0.44307  0.36581  1.0000
  H   H961      1.0  0.70947  0.99192  0.44823  1.0000
  C   C568      1.0  0.99754  0.30360  0.40624  1.0000
  H   H962      1.0  0.69891  0.42379  0.43360  1.0000
  H   H963      1.0  0.01708  0.28016  0.53669  1.0000
  H   H964      1.0  0.89520  0.09531  0.61705  1.0000
  C   C569      1.0  0.71008  0.42802  0.51936  1.0000
  H   H965      1.0  0.86301  0.09089  0.67099  1.0000
  S   S164      1.0  0.56446  0.15691  0.50671  1.0000
  C   C570      1.0  0.01565  0.36672  0.47367  1.0000
  H   H966      1.0  0.56932  0.12787  0.62189  1.0000
  H   H967      1.0  0.76332  0.03734  0.68550  1.0000
  H   H968      1.0  0.71557  0.14896  0.36114  1.0000
  H   H969      1.0  0.59604  0.15925  0.42954  1.0000
  C   C571      1.0  0.75147  0.03323  0.66110  1.0000
  H   H970      1.0  0.82160  0.08775  0.64159  1.0000
  H   H971      1.0  0.56699  0.17842  0.60917  1.0000
  H   H972      1.0  0.92902  0.39224  0.56200  1.0000
  H   H973      1.0  0.90830  0.99441  0.61293  1.0000
  H   H974      1.0  0.69312  0.99001  0.38934  1.0000
  C   C572      1.0  0.52798  0.16125  0.53965  1.0000
  H   H975      1.0  0.01430  0.22829  0.39613  1.0000
  Fe  Fe82      1.0  0.61011  0.04606  0.49633  1.0000
  H   H976      1.0  0.72296  0.40845  0.50516  1.0000
  C   C573      1.0  0.88521  0.07215  0.62433  1.0000
  C   C574      1.0  0.75353  0.06834  0.36467  1.0000
  H   H977      1.0  0.96943  0.01707  0.37649  1.0000
  C   C575      1.0  0.95639  0.40684  0.56052  1.0000
  H   H978      1.0  0.56044  0.17556  0.38116  1.0000
  C   C576      1.0  0.91220  0.04778  0.57409  1.0000
  C   C577      1.0  0.99962  0.44288  0.53057  1.0000
  H   H979      1.0  0.99501  0.11971  0.65669  1.0000
  H   H980      1.0  0.62665  0.29145  0.62286  1.0000
  H   H981      1.0  0.61295  0.23407  0.37967  1.0000
  C   C578      1.0  0.96459  0.42338  0.53177  1.0000
  H   H982      1.0  0.82168  0.02803  0.61673  1.0000
  H   H983      1.0  0.90519  0.03207  0.55348  1.0000
  H   H984      1.0  0.65474  0.10477  0.64787  1.0000
  C   C579      1.0  0.84017  0.07219  0.57545  1.0000
  C   C580      1.0  0.67964  0.98007  0.44169  1.0000
  H   H985      1.0  0.62792  0.19086  0.46534  1.0000
  C   C581      1.0  0.59131  0.12904  0.64329  1.0000
  H   H986      1.0  0.85477  0.05880  0.52399  1.0000
  H   H987      1.0  0.93670  0.03590  0.58914  1.0000
  C   C582      1.0  0.58570  0.21946  0.38661  1.0000
  H   H988      1.0  0.97639  0.39702  0.61015  1.0000
  H   H989      1.0  0.69023  0.14734  0.68001  1.0000
  H   H990      1.0  0.82592  0.38999  0.66541  1.0000
  H   H991      1.0  0.67733  0.39832  0.46433  1.0000
  C   C583      1.0  0.55968  0.35007  0.60497  1.0000
  S   S165      1.0  0.68034  0.24736  0.65476  1.0000
  H   H992      1.0  0.64785  0.21203  0.43146  1.0000
  H   H993      1.0  0.80989  0.07448  0.58983  1.0000
  H   H994      1.0  0.00032  0.29765  0.49863  1.0000
  H   H995      1.0  0.87342  0.29839  0.39849  1.0000
  C   C584      1.0  0.62518  0.16745  0.67920  1.0000
  S   S166      1.0  0.76702  0.97316  0.67311  1.0000
  C   C585      1.0  0.64949  0.16285  0.62143  1.0000
  H   H996      1.0  0.73813  0.18438  0.37183  1.0000
  C   C586      1.0  0.77710  0.01682  0.39998  1.0000
  C   C587      1.0  0.74212  0.43387  0.54730  1.0000
  H   H997      1.0  0.67047  0.15583  0.57070  1.0000
  H   H998      1.0  0.68007  0.18303  0.45067  1.0000
  H   H999      1.0  0.91177  0.45876  0.38314  1.0000
  C   C588      1.0  0.98480  0.09836  0.66703  1.0000
  H   H1000     1.0  0.69734  0.30893  0.67364  1.0000
  N   N42       1.0  0.87267  0.05412  0.59451  1.0000
  H   H1001     1.0  0.54147  0.32734  0.66866  1.0000
  H   H1002     1.0  0.83505  0.45864  0.44530  1.0000
  H   H1003     1.0  0.57936  0.11796  0.39911  1.0000
  C   C589      1.0  0.57330  0.32277  0.65760  1.0000
  H   H1004     1.0  0.89144  0.01549  0.64901  1.0000
  H   H1005     1.0  0.86217  0.97584  0.43471  1.0000
  C   C590      1.0  0.96772  0.99246  0.37158  1.0000
  H   H1006     1.0  0.80055  0.42932  0.40680  1.0000
  C   C591      1.0  0.57908  0.18322  0.63431  1.0000
  C   C592      1.0  0.83569  0.42760  0.40300  1.0000
  H   H1007     1.0  0.62208  0.09318  0.61392  1.0000
  H   H1008     1.0  0.73223  0.97616  0.60761  1.0000
  H   H1009     1.0  0.57091  0.12529  0.66556  1.0000
  H   H1010     1.0  0.63656  0.98366  0.39873  1.0000
  H   H1011     1.0  0.81337  0.03653  0.54371  1.0000
  H   H1012     1.0  0.63657  0.19122  0.68028  1.0000
  H   H1013     1.0  0.59285  0.09704  0.36287  1.0000
  H   H1014     1.0  0.80353  0.33878  0.67736  1.0000
  H   H1015     1.0  0.67196  0.20804  0.38204  1.0000
  C   C593      1.0  0.53886  0.18614  0.65651  1.0000
  C   C594      1.0  0.66873  0.18529  0.37130  1.0000
  N   N43       1.0  0.84855  0.44191  0.37068  1.0000
  H   H1016     1.0  0.80935  0.28954  0.67942  1.0000
  C   C595      1.0  0.58729  0.12018  0.37256  1.0000
  H   H1017     1.0  0.65492  0.98804  0.45960  1.0000
  H   H1018     1.0  0.66201  0.01756  0.41030  1.0000
  H   H1019     1.0  0.00627  0.45563  0.50833  1.0000
  H   H1020     1.0  0.55689  0.23000  0.37557  1.0000
  C   C596      1.0  0.71984  0.28540  0.36115  1.0000
  C   C597      1.0  0.59027  0.18712  0.37323  1.0000
  C   C598      1.0  0.52909  0.00377  0.46542  1.0000
  H   H1021     1.0  0.59306  0.37017  0.66394  1.0000
  C   C599      1.0  0.91630  0.45985  0.63782  1.0000
  H   H1022     1.0  0.86529  0.35058  0.37920  1.0000
  H   H1023     1.0  0.52848  0.29724  0.58616  1.0000
  C   C600      1.0  0.85775  0.30217  0.37429  1.0000
  C   C601      1.0  0.87480  0.33270  0.36143  1.0000
  H   H1024     1.0  0.83909  0.21842  0.40908  1.0000
  H   H1025     1.0  0.52419  0.05230  0.46421  1.0000
  H   H1026     1.0  0.72470  0.36212  0.35608  1.0000
  C   C602      1.0  0.62765  0.13926  0.36627  1.0000
  C   C603      1.0  0.85545  0.44055  0.43455  1.0000
  H   H1027     1.0  0.65493  0.12466  0.37364  1.0000
  H   H1028     1.0  0.82323  0.30549  0.37987  1.0000
  H   H1029     1.0  0.92726  0.26967  0.37279  1.0000
  H   H1030     1.0  0.80635  0.25404  0.36893  1.0000
  H   H1031     1.0  0.65810  0.46177  0.56003  1.0000
  C   C604      1.0  0.02242  0.32965  0.53686  1.0000
  H   H1032     1.0  0.52283  0.16419  0.66056  1.0000
  Fe  Fe83      1.0  0.88226  0.30484  0.99266  1.0000
  S   S167      1.0  0.88118  0.34321  0.95670  1.0000
  S   S168      1.0  0.91660  0.26192  0.97912  1.0000
  Fe  Fe84      1.0  0.81195  0.34646  0.97022  1.0000
  S   S169      1.0  0.75982  0.35547  0.93323  1.0000
  C   C605      1.0  0.53257  0.02776  0.96565  1.0000
  Fe  Fe85      1.0  0.66203  0.25450  0.70821  1.0000
  S   S170      1.0  0.66936  0.29663  0.73811  1.0000
  C   C606      1.0  0.61147  0.09096  0.81862  1.0000
  Fe  Fe86      1.0  0.62180  0.21996  0.76570  1.0000
  S   S171      1.0  0.62686  0.25899  0.80074  1.0000
  S   S172      1.0  0.59269  0.17466  0.77694  1.0000
  Fe  Fe87      1.0  0.60366  0.28609  0.75745  1.0000
  H   H1033     1.0  0.57092  0.03664  0.89857  1.0000
  Fe  Fe88      1.0  0.69199  0.26580  0.77841  1.0000
  S   S173      1.0  0.75392  0.27363  0.80533  1.0000
  S   S174      1.0  0.59431  0.24667  0.72400  1.0000
  S   S175      1.0  0.68913  0.22408  0.74701  1.0000
  S   S176      1.0  0.87442  0.98805  0.71520  1.0000
  S   S177      1.0  0.79588  0.02846  0.74885  1.0000
  C   C607      1.0  0.65837  0.09340  0.80691  1.0000
  C   C608      1.0  0.94103  0.07044  0.70617  1.0000
  H   H1034     1.0  0.64858  0.12425  0.69913  1.0000
  S   S178      1.0  0.89689  0.41585  0.78282  1.0000
  H   H1035     1.0  0.65918  0.09577  0.77963  1.0000
  S   S179      1.0  0.75945  0.99613  0.83789  1.0000
  Fe  Fe89      1.0  0.86775  0.02816  0.74828  1.0000
  S   S180      1.0  0.90410  0.07089  0.73906  1.0000
  S   S181      1.0  0.68585  0.13133  0.01820  1.0000
  C   C609      1.0  0.52600  0.06996  0.84566  1.0000
  Fe  Fe90      1.0  0.68191  0.10029  0.97482  1.0000
  H   H1036     1.0  0.87526  0.45242  0.85417  1.0000
  S   S182      1.0  0.72320  0.10917  0.92977  1.0000
  H   H1037     1.0  0.99719  0.05135  0.75345  1.0000
  N   N44       1.0  0.81214  0.33796  0.73040  1.0000
  S   S183      1.0  0.61049  0.10382  0.97238  1.0000
  C   C610      1.0  0.73487  0.07750  0.90493  1.0000
  Fe  Fe91      1.0  0.86556  0.45972  0.76844  1.0000
  C   C611      1.0  0.76738  0.05616  0.85515  1.0000
  C   C612      1.0  0.75066  0.02786  0.86316  1.0000
  C   C613      1.0  0.72628  0.02443  0.89210  1.0000
  C   C614      1.0  0.71834  0.04916  0.91288  1.0000
  C   C615      1.0  0.75940  0.08096  0.87601  1.0000
  H   H1038     1.0  0.68881  0.28091  0.95232  1.0000
  H   H1039     1.0  0.71325  0.00257  0.89840  1.0000
  H   H1040     1.0  0.69910  0.04628  0.93491  1.0000
  Fe  Fe92      1.0  0.80264  0.99829  0.79304  1.0000
  Fe  Fe93      1.0  0.80316  0.98612  0.71888  1.0000
  H   H1041     1.0  0.66648  0.09974  0.87160  1.0000
  H   H1042     1.0  0.74577  0.33708  0.71620  1.0000
  H   H1043     1.0  0.89874  0.45545  0.89338  1.0000
  Fe  Fe94      1.0  0.61444  0.13083  0.01885  1.0000
  H   H1044     1.0  0.61342  0.14565  0.84806  1.0000
  C   C616      1.0  0.96949  0.39265  0.81013  1.0000
  C   C617      1.0  0.94667  0.41892  0.80207  1.0000
  C   C618      1.0  0.82259  0.35018  0.69651  1.0000
  H   H1045     1.0  0.95632  0.37076  0.80456  1.0000
  C   C619      1.0  0.63189  0.10407  0.87580  1.0000
  H   H1046     1.0  0.85169  0.31844  0.79380  1.0000
  C   C620      1.0  0.99013  0.04925  0.80610  1.0000
  C   C621      1.0  0.84055  0.35284  0.75527  1.0000
  H   H1047     1.0  0.83296  0.39864  0.70776  1.0000
  H   H1048     1.0  0.82294  0.01166  0.90651  1.0000
  C   C622      1.0  0.95363  0.26598  0.94649  1.0000
  C   C623      1.0  0.97000  0.29428  0.93773  1.0000
  H   H1049     1.0  0.81487  0.44264  0.82792  1.0000
  S   S184      1.0  0.93806  0.41169  0.99871  1.0000
  S   S185      1.0  0.55503  0.32329  0.76250  1.0000
  C   C624      1.0  0.96812  0.24025  0.92978  1.0000
  H   H1050     1.0  0.96002  0.31417  0.95105  1.0000
  H   H1051     1.0  0.83501  0.37745  0.75643  1.0000
  H   H1052     1.0  0.55186  0.22444  0.81188  1.0000
  H   H1053     1.0  0.95569  0.21832  0.93642  1.0000
  C   C625      1.0  0.75905  0.33356  0.89704  1.0000
  C   C626      1.0  0.79474  0.31668  0.88704  1.0000
  C   C627      1.0  0.79303  0.29898  0.85838  1.0000
  C   C628      1.0  0.75544  0.29760  0.83989  1.0000
  C   C629      1.0  0.71992  0.31477  0.84963  1.0000
  C   C630      1.0  0.72188  0.33290  0.87801  1.0000
  H   H1054     1.0  0.82364  0.31718  0.90139  1.0000
  H   H1055     1.0  0.82076  0.28590  0.85083  1.0000
  H   H1056     1.0  0.69085  0.31393  0.83547  1.0000
  H   H1057     1.0  0.69421  0.34600  0.88560  1.0000
  S   S186      1.0  0.87407  0.00191  0.79541  1.0000
  H   H1058     1.0  0.82462  0.19003  0.93530  1.0000
  H   H1059     1.0  0.69627  0.22572  0.86048  1.0000
  H   H1060     1.0  0.56563  0.41868  0.85792  1.0000
  S   S187      1.0  0.79604  0.45916  0.75626  1.0000
  H   H1061     1.0  0.71632  0.25022  0.97229  1.0000
  C   C631      1.0  0.99859  0.24278  0.90436  1.0000
  H   H1062     1.0  0.61971  0.05134  0.91558  1.0000
  C   C632      1.0  0.00960  0.39457  0.82508  1.0000
  C   C633      1.0  0.53336  0.20432  0.81595  1.0000
  S   S188      1.0  0.68321  0.05821  0.00584  1.0000
  H   H1063     1.0  0.77690  0.23577  0.86710  1.0000
  C   C634      1.0  0.85363  0.00990  0.89279  1.0000
  H   H1064     1.0  0.77259  0.42295  0.94209  1.0000
  H   H1065     1.0  0.88812  0.98568  0.93025  1.0000
  C   C635      1.0  0.88069  0.98245  0.90370  1.0000
  H   H1066     1.0  0.77064  0.39173  0.74699  1.0000
  H   H1067     1.0  0.81618  0.29430  0.75475  1.0000
  C   C636      1.0  0.83314  0.21293  0.92649  1.0000
  C   C637      1.0  0.86951  0.39868  0.88043  1.0000
  H   H1068     1.0  0.66803  0.15684  0.71916  1.0000
  H   H1069     1.0  0.63667  0.43394  0.86352  1.0000
  H   H1070     1.0  0.95590  0.05602  0.80512  1.0000
  H   H1071     1.0  0.84195  0.40066  0.93816  1.0000
  H   H1072     1.0  0.73213  0.26908  0.89995  1.0000
  H   H1073     1.0  0.84737  0.00982  0.86601  1.0000
  H   H1074     1.0  0.64176  0.45927  0.76711  1.0000
  C   C638      1.0  0.75021  0.37223  0.75292  1.0000
  H   H1075     1.0  0.78378  0.40300  0.88625  1.0000
  C   C639      1.0  0.62332  0.13835  0.87295  1.0000
  C   C640      1.0  0.80047  0.43786  0.94593  1.0000
  H   H1076     1.0  0.80544  0.43909  0.97297  1.0000
  H   H1077     1.0  0.01450  0.97219  0.84254  1.0000
  H   H1078     1.0  0.01338  0.31862  0.90596  1.0000
  H   H1079     1.0  0.71805  0.37770  0.74316  1.0000
  H   H1080     1.0  0.76416  0.28719  0.70780  1.0000
  H   H1081     1.0  0.68997  0.24487  0.91014  1.0000
  S   S189      1.0  0.81155  0.30571  0.00325  1.0000
  H   H1082     1.0  0.67360  0.19302  0.91448  1.0000
  H   H1083     1.0  0.86002  0.22090  0.94178  1.0000
  H   H1084     1.0  0.55325  0.08679  0.89085  1.0000
  H   H1085     1.0  0.87477  0.35051  0.74775  1.0000
  H   H1086     1.0  0.62741  0.09857  0.90226  1.0000
  H   H1087     1.0  0.54944  0.11345  0.85874  1.0000
  C   C641      1.0  0.55326  0.44232  0.85650  1.0000
  C   C642      1.0  0.76520  0.34156  0.73847  1.0000
  H   H1088     1.0  0.87147  0.03091  0.89798  1.0000
  H   H1089     1.0  0.59501  0.43024  0.80476  1.0000
  H   H1090     1.0  0.59516  0.11225  0.81142  1.0000
  H   H1091     1.0  0.92881  0.37354  0.88713  1.0000
  H   H1092     1.0  0.79225  0.46083  0.93738  1.0000
  H   H1093     1.0  0.93681  0.41302  0.88204  1.0000
  C   C643      1.0  0.79814  0.42324  0.83922  1.0000
  H   H1094     1.0  0.91186  0.98443  0.89050  1.0000
  H   H1095     1.0  0.66714  0.45005  0.80490  1.0000
  H   H1096     1.0  0.74582  0.37054  0.78009  1.0000
  H   H1097     1.0  0.74540  0.28217  0.95584  1.0000
  H   H1098     1.0  0.77204  0.10289  0.86960  1.0000
  H   H1099     1.0  0.73163  0.20569  0.83394  1.0000
  H   H1100     1.0  0.75550  0.32429  0.75708  1.0000
  H   H1101     1.0  0.53297  0.97983  0.95721  1.0000
  H   H1102     1.0  0.60343  0.03646  0.84207  1.0000
  H   H1103     1.0  0.91706  0.39818  0.92090  1.0000
  H   H1104     1.0  0.80710  0.26085  0.71007  1.0000
  C   C644      1.0  0.96368  0.44713  0.80964  1.0000
  H   H1105     1.0  0.78622  0.05898  0.83286  1.0000
  H   H1106     1.0  0.82072  0.98112  0.95427  1.0000
  S   S190      1.0  0.56786  0.02471  0.99893  1.0000
  Fe  Fe95      1.0  0.61160  0.06402  0.00651  1.0000
  N   N45       1.0  0.75337  0.22502  0.91610  1.0000
  C   C645      1.0  0.79553  0.23547  0.92972  1.0000
  C   C646      1.0  0.72253  0.25129  0.91782  1.0000
  C   C647      1.0  0.76101  0.21681  0.88040  1.0000
  C   C648      1.0  0.73837  0.19793  0.93576  1.0000
  H   H1107     1.0  0.84545  0.21185  0.90075  1.0000
  H   H1108     1.0  0.52483  0.07607  0.96817  1.0000
  H   H1109     1.0  0.85812  0.30120  0.72590  1.0000
  C   C649      1.0  0.68967  0.19297  0.93856  1.0000
  C   C650      1.0  0.01308  0.06139  0.77502  1.0000
  H   H1110     1.0  0.79263  0.24065  0.95651  1.0000
  C   C651      1.0  0.84102  0.42446  0.92934  1.0000
  C   C652      1.0  0.01560  0.27095  0.89601  1.0000
  H   H1111     1.0  0.65334  0.15055  0.87790  1.0000
  H   H1112     1.0  0.78322  0.19720  0.87816  1.0000
  H   H1113     1.0  0.75257  0.17671  0.92563  1.0000
  H   H1114     1.0  0.74985  0.19886  0.96166  1.0000
  H   H1115     1.0  0.67414  0.20996  0.95482  1.0000
  H   H1116     1.0  0.78028  0.38983  0.69160  1.0000
  C   C653      1.0  0.55862  0.08961  0.86384  1.0000
  H   H1117     1.0  0.76422  0.42502  0.83166  1.0000
  H   H1118     1.0  0.67380  0.11384  0.81696  1.0000
  C   C654      1.0  0.79928  0.28495  0.70524  1.0000
  C   C655      1.0  0.54565  0.17716  0.80098  1.0000
  C   C656      1.0  0.91549  0.39607  0.89372  1.0000
  C   C657      1.0  0.72164  0.20819  0.86018  1.0000
  H   H1119     1.0  0.70915  0.18596  0.86796  1.0000
  H   H1120     1.0  0.99071  0.46099  0.01872  1.0000
  N   N46       1.0  0.84404  0.42580  0.89203  1.0000
  C   C658      1.0  0.86736  0.45374  0.88093  1.0000
  H   H1121     1.0  0.67748  0.07308  0.81327  1.0000
  C   C659      1.0  0.61758  0.05165  0.86079  1.0000
  H   H1122     1.0  0.77931  0.44283  0.88506  1.0000
  C   C660      1.0  0.80012  0.42374  0.87719  1.0000
  N   N47       1.0  0.60477  0.08408  0.85476  1.0000
  C   C661      1.0  0.60590  0.03847  0.89497  1.0000
  H   H1123     1.0  0.94098  0.11888  0.70175  1.0000
  C   C662      1.0  0.71820  0.26672  0.95174  1.0000
  H   H1124     1.0  0.85244  0.37741  0.88693  1.0000
  H   H1125     1.0  0.61904  0.01517  0.89675  1.0000
  H   H1126     1.0  0.65272  0.04874  0.85780  1.0000
  H   H1127     1.0  0.80572  0.25694  0.91768  1.0000
  H   H1128     1.0  0.59774  0.16605  0.69677  1.0000
  C   C663      1.0  0.00359  0.44900  0.82494  1.0000
  H   H1129     1.0  0.60469  0.34577  0.69771  1.0000
  H   H1130     1.0  0.52915  0.13056  0.79371  1.0000
  C   C664      1.0  0.81480  0.38414  0.69074  1.0000
  H   H1131     1.0  0.87319  0.39861  0.85314  1.0000
  H   H1132     1.0  0.85394  0.35641  0.80766  1.0000
  Fe  Fe96      1.0  0.89327  0.37180  0.00126  1.0000
  H   H1133     1.0  0.68373  0.17058  0.95007  1.0000
  H   H1134     1.0  0.81066  0.40180  0.82883  1.0000
  H   H1135     1.0  0.80299  0.34012  0.79965  1.0000
  H   H1136     1.0  0.59653  0.07334  0.80309  1.0000
  C   C665      1.0  0.83657  0.34101  0.79098  1.0000
  C   C666      1.0  0.95430  0.09788  0.69254  1.0000
  H   H1137     1.0  0.68109  0.96686  0.70301  1.0000
  H   H1138     1.0  0.94908  0.02213  0.70491  1.0000
  H   H1139     1.0  0.86915  0.43536  0.94084  1.0000
  C   C667      1.0  0.82322  0.30468  0.73031  1.0000
  H   H1140     1.0  0.99092  0.02424  0.80715  1.0000
  H   H1141     1.0  0.85669  0.34543  0.69006  1.0000
  C   C668      1.0  0.00111  0.29674  0.91266  1.0000
  C   C669      1.0  0.66013  0.14749  0.69458  1.0000
  C   C670      1.0  0.62653  0.45808  0.86483  1.0000
  H   H1142     1.0  0.59792  0.45238  0.91482  1.0000
  H   H1143     1.0  0.54321  0.44834  0.88201  1.0000
  H   H1144     1.0  0.00499  0.08587  0.77337  1.0000
  C   C671      1.0  0.59706  0.45515  0.80833  1.0000
  C   C672      1.0  0.95851  0.04338  0.69418  1.0000
  H   H1145     1.0  0.00333  0.05873  0.82905  1.0000
  H   H1146     1.0  0.00962  0.22277  0.89152  1.0000
  S   S191      1.0  0.82344  0.37898  0.01152  1.0000
  H   H1147     1.0  0.95504  0.97053  0.80253  1.0000
  H   H1148     1.0  0.59849  0.14568  0.89105  1.0000
  H   H1149     1.0  0.53069  0.04553  0.85043  1.0000
  H   H1150     1.0  0.65269  0.46245  0.91406  1.0000
  H   H1151     1.0  0.52636  0.07434  0.81874  1.0000
  H   H1152     1.0  0.79454  0.96504  0.89774  1.0000
  N   N48       1.0  0.58761  0.46332  0.84387  1.0000
  C   C673      1.0  0.64116  0.46392  0.79401  1.0000
  H   H1153     1.0  0.02078  0.00513  0.75168  1.0000
  H   H1154     1.0  0.87473  0.60134  0.20626  1.0000
  S   S192      1.0  0.88230  0.50696  0.29330  1.0000
  S   S193      1.0  0.76225  0.85259  0.08284  1.0000
  C   C674      1.0  0.98206  0.90044  0.05475  1.0000
  H   H1155     1.0  0.74522  0.89145  0.21301  1.0000
  S   S194      1.0  0.88263  0.85075  0.05351  1.0000
  Fe  Fe97      1.0  0.68826  0.76188  0.23052  1.0000
  S   S195      1.0  0.68249  0.80437  0.26027  1.0000
  S   S196      1.0  0.74062  0.75273  0.19338  1.0000
  Fe  Fe98      1.0  0.60607  0.73541  0.25848  1.0000
  S   S197      1.0  0.59290  0.77590  0.29006  1.0000
  S   S198      1.0  0.56313  0.69493  0.25355  1.0000
  Fe  Fe99      1.0  0.61352  0.80252  0.24596  1.0000
  C   C675      1.0  0.62112  0.67754  0.17015  1.0000
  Fe  Fe100     1.0  0.66277  0.77390  0.30194  1.0000
  C   C676      1.0  0.73368  0.54091  0.09084  1.0000
  S   S199      1.0  0.62080  0.76249  0.21294  1.0000
  S   S200      1.0  0.67457  0.73105  0.27344  1.0000
  H   H1156     1.0  0.70609  0.57821  0.16113  1.0000
  S   S201      1.0  0.82699  0.54428  0.23700  1.0000
  C   C677      1.0  0.61162  0.76720  0.10159  1.0000
  H   H1157     1.0  0.63636  0.92557  0.22118  1.0000
  C   C678      1.0  0.01991  0.89789  0.07279  1.0000
  S   S202      1.0  0.95069  0.92610  0.24803  1.0000
  H   H1158     1.0  0.90574  0.52016  0.14350  1.0000
  S   S203      1.0  0.75948  0.51348  0.31659  1.0000
  Fe  Fe101     1.0  0.89609  0.53484  0.24817  1.0000
  S   S204      1.0  0.94544  0.57147  0.24797  1.0000
  H   H1159     1.0  0.67541  0.80036  0.05181  1.0000
  H   H1160     1.0  0.91049  0.84254  0.13042  1.0000
  H   H1161     1.0  0.59588  0.80757  0.15185  1.0000
  H   H1162     1.0  0.70085  0.94017  0.18565  1.0000
  H   H1163     1.0  0.62267  0.60111  0.29607  1.0000
  H   H1164     1.0  0.56494  0.85601  0.12719  1.0000
  H   H1165     1.0  0.89360  0.46887  0.07897  1.0000
  H   H1166     1.0  0.91891  0.95080  0.10479  1.0000
  H   H1167     1.0  0.72689  0.54057  0.06476  1.0000
  H   H1168     1.0  0.67411  0.82673  0.08568  1.0000
  C   C679      1.0  0.92661  0.93811  0.12762  1.0000
  H   H1169     1.0  0.61942  0.62099  0.13722  1.0000
  H   H1170     1.0  0.95184  0.46430  0.15734  1.0000
  H   H1171     1.0  0.66619  0.73760  0.11045  1.0000
  S   S205      1.0  0.58729  0.58235  0.03235  1.0000
  Fe  Fe102     1.0  0.65744  0.58614  0.04204  1.0000
  C   C680      1.0  0.72206  0.56210  0.14516  1.0000
  S   S206      1.0  0.90204  0.49538  0.21436  1.0000
  H   H1172     1.0  0.67316  0.64631  0.15337  1.0000
  C   C681      1.0  0.61009  0.81727  0.12888  1.0000
  C   C682      1.0  0.99243  0.54577  0.19703  1.0000
  C   C683      1.0  0.98320  0.57169  0.21556  1.0000
  S   S207      1.0  0.81336  0.47099  0.24699  1.0000
  H   H1173     1.0  0.63056  0.93478  0.28251  1.0000
  H   H1174     1.0  0.97688  0.52483  0.20275  1.0000
  H   H1175     1.0  0.88992  0.62612  0.17368  1.0000
  H   H1176     1.0  0.65075  0.65745  0.09818  1.0000
  C   C684      1.0  0.88020  0.57858  0.15905  1.0000
  H   H1177     1.0  0.90250  0.90198  0.31662  1.0000
  C   C685      1.0  0.71303  0.56183  0.11135  1.0000
  H   H1178     1.0  0.56352  0.61924  0.13540  1.0000
  C   C686      1.0  0.58740  0.60081  0.29840  1.0000
  H   H1179     1.0  0.91630  0.95153  0.14922  1.0000
  H   H1180     1.0  0.78808  0.59985  0.07425  1.0000
  H   H1181     1.0  0.61104  0.86158  0.15159  1.0000
  H   H1182     1.0  0.61411  0.55661  0.34084  1.0000
  H   H1183     1.0  0.61656  0.67307  0.19699  1.0000
  H   H1184     1.0  0.95932  0.60307  0.14623  1.0000
  Fe  Fe103     1.0  0.81349  0.51236  0.27909  1.0000
  H   H1185     1.0  0.59506  0.58907  0.18066  1.0000
  H   H1186     1.0  0.64683  0.65552  0.32566  1.0000
  S   S208      1.0  0.67693  0.58864  0.09551  1.0000
  H   H1187     1.0  0.53601  0.79087  0.12415  1.0000
  H   H1188     1.0  0.68178  0.77530  0.10157  1.0000
  C   C687      1.0  0.54788  0.79917  0.09985  1.0000
  C   C688      1.0  0.75907  0.82530  0.11427  1.0000
  C   C689      1.0  0.73124  0.83047  0.14101  1.0000
  C   C690      1.0  0.72589  0.80848  0.16565  1.0000
  C   C691      1.0  0.74865  0.78127  0.16377  1.0000
  C   C692      1.0  0.77725  0.77640  0.13743  1.0000
  C   C693      1.0  0.78244  0.79837  0.11265  1.0000
  H   H1189     1.0  0.71306  0.85128  0.14224  1.0000
  H   H1190     1.0  0.70367  0.81234  0.18580  1.0000
  H   H1191     1.0  0.79492  0.75536  0.13589  1.0000
  H   H1192     1.0  0.80393  0.79423  0.09206  1.0000
  H   H1193     1.0  0.85810  0.56025  0.16703  1.0000
  H   H1194     1.0  0.71092  0.86153  0.22508  1.0000
  H   H1195     1.0  0.83503  0.61317  0.17790  1.0000
  C   C694      1.0  0.76361  0.52058  0.10407  1.0000
  H   H1196     1.0  0.84170  0.86706  0.20686  1.0000
  H   H1197     1.0  0.61630  0.86305  0.10774  1.0000
  H   H1198     1.0  0.65634  0.86883  0.26714  1.0000
  H   H1199     1.0  0.82496  0.57033  0.06500  1.0000
  H   H1200     1.0  0.77846  0.85459  0.25057  1.0000
  Fe  Fe104     1.0  0.83215  0.50242  0.20610  1.0000
  H   H1201     1.0  0.82367  0.90597  0.21006  1.0000
  C   C695      1.0  0.66784  0.67002  0.16083  1.0000
  H   H1202     1.0  0.75864  0.54208  0.18448  1.0000
  N   N49       1.0  0.69189  0.90519  0.24430  1.0000
  H   H1203     1.0  0.79532  0.94617  0.10848  1.0000
  H   H1204     1.0  0.57798  0.64546  0.31755  1.0000
  H   H1205     1.0  0.52809  0.71339  0.13817  1.0000
  C   C696      1.0  0.91656  0.93791  0.35107  1.0000
  N   N50       1.0  0.87827  0.58252  0.12210  1.0000
  C   C697      1.0  0.83324  0.59209  0.11377  1.0000
  H   H1206     1.0  0.55525  0.67362  0.10392  1.0000
  C   C698      1.0  0.88755  0.55274  0.10514  1.0000
  C   C699      1.0  0.90790  0.60685  0.10972  1.0000
  C   C700      1.0  0.82207  0.59284  0.07674  1.0000
  C   C701      1.0  0.00447  0.90385  0.29493  1.0000
  C   C702      1.0  0.92017  0.53127  0.12154  1.0000
  Fe  Fe105     1.0  0.81262  0.84894  0.04257  1.0000
  H   H1207     1.0  0.80983  0.57696  0.12600  1.0000
  H   H1208     1.0  0.82590  0.61510  0.12330  1.0000
  C   C703      1.0  0.86918  0.60671  0.17986  1.0000
  H   H1209     1.0  0.86669  0.89231  0.23456  1.0000
  H   H1210     1.0  0.85792  0.53902  0.10343  1.0000
  H   H1211     1.0  0.89831  0.55647  0.07919  1.0000
  H   H1212     1.0  0.90751  0.60819  0.08235  1.0000
  C   C704      1.0  0.59009  0.62907  0.14989  1.0000
  C   C705      1.0  0.53649  0.83941  0.20391  1.0000
  H   H1213     1.0  0.65903  0.76567  0.14131  1.0000
  H   H1214     1.0  0.84139  0.60951  0.06282  1.0000
  C   C706      1.0  0.57066  0.62201  0.32560  1.0000
  C   C707      1.0  0.61030  0.81374  0.06707  1.0000
  H   H1215     1.0  0.61479  0.90302  0.30738  1.0000
  H   H1216     1.0  0.91226  0.57104  0.16714  1.0000
  C   C708      1.0  0.90595  0.90463  0.34370  1.0000
  H   H1217     1.0  0.94991  0.54238  0.12902  1.0000
  C   C709      1.0  0.72485  0.94115  0.28807  1.0000
  H   H1218     1.0  0.57588  0.57747  0.30220  1.0000
  N   N51       1.0  0.87021  0.89977  0.14836  1.0000
  C   C710      1.0  0.85194  0.86938  0.13999  1.0000
  C   C711      1.0  0.83573  0.92332  0.14391  1.0000
  C   C712      1.0  0.88506  0.90047  0.18358  1.0000
  C   C713      1.0  0.90798  0.90584  0.12601  1.0000
  C   C714      1.0  0.88136  0.84190  0.14615  1.0000
  C   C715      1.0  0.77293  0.52104  0.13782  1.0000
  C   C716      1.0  0.85189  0.89078  0.20984  1.0000
  H   H1219     1.0  0.97265  0.62399  0.11020  1.0000
  H   H1220     1.0  0.82119  0.86545  0.15329  1.0000
  H   H1221     1.0  0.84338  0.86844  0.11358  1.0000
  S   S209      1.0  0.83577  0.95578  0.26129  1.0000
  H   H1222     1.0  0.99817  0.61853  0.22286  1.0000
  H   H1223     1.0  0.89681  0.62940  0.11848  1.0000
  H   H1224     1.0  0.89508  0.92356  0.19057  1.0000
  H   H1225     1.0  0.93467  0.88991  0.13142  1.0000
  H   H1226     1.0  0.89954  0.90142  0.09987  1.0000
  H   H1227     1.0  0.77983  0.50462  0.08804  1.0000
  N   N52       1.0  0.58676  0.66306  0.14989  1.0000
  H   H1228     1.0  0.60967  0.75581  0.07719  1.0000
  H   H1229     1.0  0.59916  0.90474  0.26526  1.0000
  H   H1230     1.0  0.89032  0.83950  0.17238  1.0000
  C   C717      1.0  0.00496  0.59844  0.20856  1.0000
  H   H1231     1.0  0.60542  0.63644  0.08362  1.0000
  H   H1232     1.0  0.84565  0.94552  0.15385  1.0000
  H   H1233     1.0  0.68584  0.89021  0.29539  1.0000
  H   H1234     1.0  0.54475  0.72731  0.31432  1.0000
  H   H1235     1.0  0.91421  0.88629  0.18692  1.0000
  C   C718      1.0  0.65729  0.76165  0.11435  1.0000
  C   C719      1.0  0.75181  0.54166  0.15842  1.0000
  H   H1236     1.0  0.73366  0.82154  0.32159  1.0000
  C   C720      1.0  0.62557  0.91004  0.28234  1.0000
  H   H1237     1.0  0.59568  0.69943  0.11459  1.0000
  C   C721      1.0  0.66191  0.90873  0.21554  1.0000
  C   C722      1.0  0.59964  0.85134  0.12832  1.0000
  H   H1238     1.0  0.61871  0.70253  0.16860  1.0000
  H   H1239     1.0  0.80659  0.91725  0.15830  1.0000
  C   C723      1.0  0.96658  0.92890  0.04563  1.0000
  C   C724      1.0  0.61736  0.65925  0.08984  1.0000
  S   S210      1.0  0.58001  0.84482  0.23007  1.0000
  H   H1240     1.0  0.57459  0.60860  0.27436  1.0000
  H   H1241     1.0  0.94586  0.94297  0.33658  1.0000
  H   H1242     1.0  0.86397  0.82106  0.13943  1.0000
  H   H1243     1.0  0.59250  0.83512  0.06208  1.0000
  H   H1244     1.0  0.65648  0.92432  0.16484  1.0000
  S   S211      1.0  0.81304  0.49699  0.15305  1.0000
  C   C725      1.0  0.00694  0.95778  0.28595  1.0000
  H   H1245     1.0  0.61757  0.67234  0.06642  1.0000
  C   C726      1.0  0.75456  0.54290  0.34549  1.0000
  H   H1246     1.0  0.70248  0.90141  0.17121  1.0000
  C   C727      1.0  0.58750  0.67507  0.11495  1.0000
  C   C728      1.0  0.95511  0.60382  0.11921  1.0000
  H   H1247     1.0  0.79990  0.57237  0.32179  1.0000
  C   C729      1.0  0.73591  0.82533  0.34780  1.0000
  C   C730      1.0  0.59004  0.61373  0.18408  1.0000
  H   H1248     1.0  0.59054  0.75411  0.11863  1.0000
  H   H1249     1.0  0.73982  0.93963  0.23611  1.0000
  H   H1250     1.0  0.67975  0.68532  0.14110  1.0000
  H   H1251     1.0  0.96264  0.47226  0.29444  1.0000
  H   H1252     1.0  0.97066  0.58408  0.10738  1.0000
  H   H1253     1.0  0.89074  0.95187  0.33990  1.0000
  C   C731      1.0  0.99043  0.92951  0.27794  1.0000
  H   H1254     1.0  0.64491  0.81572  0.13269  1.0000
  H   H1255     1.0  0.53421  0.82225  0.09688  1.0000
  C   C732      1.0  0.82069  0.92855  0.10823  1.0000
  H   H1256     1.0  0.68811  0.67299  0.18291  1.0000
  H   H1257     1.0  0.92924  0.51318  0.10391  1.0000
  C   C733      1.0  0.68225  0.91923  0.18267  1.0000
  H   H1258     1.0  0.55301  0.71932  0.17797  1.0000
  H   H1259     1.0  0.53531  0.62039  0.32497  1.0000
  H   H1260     1.0  0.53398  0.79103  0.20946  1.0000
  N   N53       1.0  0.59614  0.79955  0.09917  1.0000
  C   C734      1.0  0.71127  0.93552  0.25204  1.0000
  H   H1261     1.0  0.78113  0.89222  0.26535  1.0000
  H   H1262     1.0  0.68883  0.95431  0.24592  1.0000
  H   H1263     1.0  0.64521  0.88711  0.21057  1.0000
  C   C735      1.0  0.98944  0.95475  0.05412  1.0000
  H   H1264     1.0  0.99132  0.88198  0.28917  1.0000
  C   C736      1.0  0.54400  0.67122  0.16519  1.0000
  H   H1265     1.0  0.80618  0.90814  0.09755  1.0000
  H   H1266     1.0  0.84661  0.93658  0.09172  1.0000
  H   H1267     1.0  0.96501  0.88036  0.04786  1.0000
  H   H1268     1.0  0.96204  0.93667  0.12842  1.0000
  H   H1269     1.0  0.78311  0.86048  0.34307  1.0000
  C   C737      1.0  0.75873  0.87357  0.26034  1.0000
  C   C738      1.0  0.52627  0.77959  0.07344  1.0000
  C   C739      1.0  0.53103  0.70493  0.16380  1.0000
  H   H1270     1.0  0.77224  0.72799  0.35481  1.0000
  H   H1271     1.0  0.78005  0.68929  0.34444  1.0000
  H   H1272     1.0  0.74393  0.86525  0.28348  1.0000
  H   H1273     1.0  0.74641  0.92356  0.29791  1.0000
  H   H1274     1.0  0.61650  0.62178  0.19966  1.0000
  C   C740      1.0  0.65834  0.82007  0.06269  1.0000
  C   C741      1.0  0.66644  0.89231  0.27277  1.0000
  C   C742      1.0  0.72592  0.88270  0.23407  1.0000
  H   H1275     1.0  0.02172  0.49749  0.25287  1.0000
  H   H1276     1.0  0.82728  0.47949  0.34105  1.0000
  H   H1277     1.0  0.68942  0.64782  0.35339  1.0000
  C   C743      1.0  0.52406  0.69014  0.28459  1.0000
  H   H1278     1.0  0.55909  0.61654  0.19725  1.0000
  H   H1279     1.0  0.54275  0.66485  0.19171  1.0000
  H   H1280     1.0  0.53057  0.88692  0.19360  1.0000
  Fe  Fe106     1.0  0.88302  0.46799  0.25826  1.0000
  H   H1281     1.0  0.60182  0.79910  0.04592  1.0000
  S   S212      1.0  0.91798  0.93271  0.02478  1.0000
  H   H1282     1.0  0.69693  0.94351  0.30488  1.0000
  H   H1283     1.0  0.66276  0.83972  0.04594  1.0000
  H   H1284     1.0  0.93192  0.88905  0.35127  1.0000
  C   C744      1.0  0.65408  0.64942  0.35154  1.0000
  H   H1285     1.0  0.53261  0.78802  0.04812  1.0000
  H   H1286     1.0  0.53542  0.75545  0.07535  1.0000
  H   H1287     1.0  0.65112  0.60154  0.34579  1.0000
  C   C745      1.0  0.77791  0.56956  0.34231  1.0000
  S   S213      1.0  0.67976  0.77784  0.35581  1.0000
  H   H1288     1.0  0.87523  0.89759  0.35512  1.0000
  H   H1289     1.0  0.74232  0.96289  0.28925  1.0000
  Fe  Fe107     1.0  0.89048  0.83271  0.50234  1.0000
  S   S214      1.0  0.89835  0.87494  0.47266  1.0000
  S   S215      1.0  0.94064  0.79615  0.50322  1.0000
  Fe  Fe108     1.0  0.82896  0.86884  0.46086  1.0000
  S   S216      1.0  0.80588  0.87729  0.40898  1.0000
  S   S217      1.0  0.82253  0.82454  0.48726  1.0000
  Fe  Fe109     1.0  0.69303  0.60728  0.46345  1.0000
  S   S218      1.0  0.70022  0.56545  0.49408  1.0000
  S   S219      1.0  0.73583  0.61908  0.42033  1.0000
  C   C746      1.0  0.74703  0.51238  0.61254  1.0000
  H   H1290     1.0  0.71628  0.53501  0.57169  1.0000
  S   S220      1.0  0.62251  0.60332  0.45701  1.0000
  C   C747      1.0  0.74353  0.58943  0.39203  1.0000
  C   C748      1.0  0.85596  0.48589  0.57706  1.0000
  C   C749      1.0  0.95226  0.93671  0.55915  1.0000
  C   C750      1.0  0.76299  0.57026  0.63616  1.0000
  H   H1291     1.0  0.56889  0.58639  0.40002  1.0000
  C   C751      1.0  0.72080  0.56255  0.39548  1.0000
  Fe  Fe110     1.0  0.62856  0.56349  0.49060  1.0000
  H   H1292     1.0  0.84030  0.75970  0.42896  1.0000
  H   H1293     1.0  0.81555  0.81637  0.59693  1.0000
  H   H1294     1.0  0.69875  0.55968  0.41593  1.0000
  H   H1295     1.0  0.67970  0.70697  0.57852  1.0000
  H   H1296     1.0  0.95164  0.88812  0.55868  1.0000
  H   H1297     1.0  0.52473  0.72049  0.53266  1.0000
  H   H1298     1.0  0.81374  0.78629  0.40312  1.0000
  H   H1299     1.0  0.97284  0.96112  0.44068  1.0000
  C   C752      1.0  0.93547  0.92612  0.66086  1.0000
  C   C753      1.0  0.77210  0.59290  0.36543  1.0000
  H   H1300     1.0  0.59284  0.64307  0.60142  1.0000
  H   H1301     1.0  0.54195  0.68973  0.64066  1.0000
  C   C754      1.0  0.96835  0.90799  0.56666  1.0000
  H   H1302     1.0  0.97634  0.84227  0.45906  1.0000
  C   C755      1.0  0.92791  0.85004  0.64637  1.0000
  C   C756      1.0  0.99050  0.82069  0.45306  1.0000
  H   H1303     1.0  0.71845  0.90618  0.38217  1.0000
  C   C757      1.0  0.76894  0.85094  0.39412  1.0000
  C   C758      1.0  0.74418  0.83380  0.41594  1.0000
  C   C759      1.0  0.71551  0.81243  0.40374  1.0000
  C   C760      1.0  0.57248  0.58589  0.37274  1.0000
  H   H1304     1.0  0.64817  0.50107  0.55408  1.0000
  H   H1305     1.0  0.79579  0.47359  0.37693  1.0000
  H   H1306     1.0  0.74709  0.83696  0.44224  1.0000
  H   H1307     1.0  0.69671  0.79905  0.42079  1.0000
  C   C761      1.0  0.69245  0.93935  0.48081  1.0000
  Fe  Fe111     1.0  0.80495  0.85272  0.53153  1.0000
  S   S221      1.0  0.80664  0.89662  0.50383  1.0000
  S   S222      1.0  0.74578  0.84705  0.56318  1.0000
  Fe  Fe112     1.0  0.87537  0.89821  0.51856  1.0000
  H   H1308     1.0  0.95434  0.90432  0.40037  1.0000
  S   S223      1.0  0.87214  0.85635  0.54940  1.0000
  Fe  Fe113     1.0  0.61631  0.63000  0.50373  1.0000
  S   S224      1.0  0.61622  0.58963  0.53727  1.0000
  S   S225      1.0  0.57420  0.67132  0.50701  1.0000
  H   H1309     1.0  0.88317  0.50468  0.37088  1.0000
  H   H1310     1.0  0.83400  0.71105  0.44750  1.0000
  S   S226      1.0  0.68662  0.63774  0.50719  1.0000
  C   C762      1.0  0.95083  0.50114  0.58932  1.0000
  H   H1311     1.0  0.72751  0.70616  0.65697  1.0000
  H   H1312     1.0  0.61706  0.66134  0.67955  1.0000
  H   H1313     1.0  0.78978  0.61366  0.36266  1.0000
  C   C763      1.0  0.61465  0.86392  0.64492  1.0000
  C   C764      1.0  0.90258  0.90634  0.67950  1.0000
  H   H1314     1.0  0.86562  0.92643  0.62206  1.0000
  H   H1315     1.0  0.68868  0.74487  0.45563  1.0000
  H   H1316     1.0  0.70785  0.51891  0.37462  1.0000
  S   S227      1.0  0.59879  0.51951  0.47627  1.0000
  H   H1317     1.0  0.58230  0.85550  0.63892  1.0000
  H   H1318     1.0  0.86468  0.56469  0.63673  1.0000
  H   H1319     1.0  0.54931  0.64945  0.64622  1.0000
  C   C765      1.0  0.77665  0.54490  0.65412  1.0000
  C   C766      1.0  0.82932  0.47312  0.36749  1.0000
  H   H1320     1.0  0.72424  0.50600  0.45703  1.0000
  C   C767      1.0  0.76406  0.84717  0.36001  1.0000
  H   H1321     1.0  0.97299  0.54179  0.56260  1.0000
  Fe  Fe114     1.0  0.68744  0.59542  0.53768  1.0000
  C   C768      1.0  0.87319  0.51529  0.59200  1.0000
  C   C769      1.0  0.62510  0.64420  0.61246  1.0000
  H   H1322     1.0  0.58462  0.53744  0.37238  1.0000
  H   H1323     1.0  0.82220  0.70007  0.39335  1.0000
  C   C770      1.0  0.74781  0.82471  0.59910  1.0000
  C   C771      1.0  0.70988  0.81929  0.61672  1.0000
  C   C772      1.0  0.76855  0.51587  0.64247  1.0000
  C   C773      1.0  0.76606  0.70462  0.36338  1.0000
  H   H1324     1.0  0.96673  0.92487  0.67349  1.0000
  C   C774      1.0  0.78626  0.81268  0.61063  1.0000
  H   H1325     1.0  0.66273  0.94388  0.49549  1.0000
  C   C775      1.0  0.89126  0.87010  0.63348  1.0000
  N   N54       1.0  0.87019  0.89069  0.65845  1.0000
  H   H1326     1.0  0.72658  0.72807  0.48332  1.0000
  H   H1327     1.0  0.72142  0.68287  0.43544  1.0000
  C   C776      1.0  0.77288  0.74932  0.41853  1.0000
  H   H1328     1.0  0.87736  0.49782  0.65242  1.0000
  C   C777      1.0  0.88224  0.93643  0.40530  1.0000
  H   H1329     1.0  0.58545  0.90746  0.65486  1.0000
  C   C778      1.0  0.97716  0.93717  0.43397  1.0000
  C   C779      1.0  0.74109  0.56681  0.60644  1.0000
  H   H1330     1.0  0.79966  0.65951  0.45290  1.0000
  C   C780      1.0  0.73316  0.53779  0.59457  1.0000
  C   C781      1.0  0.73595  0.48378  0.44821  1.0000
  C   C782      1.0  0.68991  0.48228  0.51615  1.0000
  H   H1331     1.0  0.69994  0.91497  0.48450  1.0000
  C   C783      1.0  0.97805  0.79475  0.47049  1.0000
  H   H1332     1.0  0.76941  0.59265  0.64537  1.0000
  H   H1333     1.0  0.95949  0.54504  0.63095  1.0000
  H   H1334     1.0  0.79574  0.72660  0.47462  1.0000
  C   C784      1.0  0.70423  0.72332  0.46311  1.0000
  C   C785      1.0  0.84493  0.91444  0.64031  1.0000
  H   H1335     1.0  0.65404  0.46646  0.46008  1.0000
  H   H1336     1.0  0.63001  0.55911  0.38325  1.0000
  H   H1337     1.0  0.76200  0.76265  0.44033  1.0000
  C   C786      1.0  0.71025  0.80219  0.64591  1.0000
  C   C787      1.0  0.74864  0.79019  0.65753  1.0000
  H   H1338     1.0  0.88298  0.91173  0.41020  1.0000
  C   C788      1.0  0.01920  0.57722  0.68113  1.0000
  S   S228      1.0  0.78645  0.48369  0.66412  1.0000
  C   C789      1.0  0.64527  0.89605  0.43896  1.0000
  C   C790      1.0  0.90959  0.49425  0.64119  1.0000
  H   H1339     1.0  0.87415  0.53288  0.57237  1.0000
  H   H1340     1.0  0.63163  0.86789  0.62134  1.0000
  C   C791      1.0  0.99742  0.76704  0.46300  1.0000
  H   H1341     1.0  0.58541  0.69566  0.59735  1.0000
  H   H1342     1.0  0.76246  0.67550  0.48269  1.0000
  C   C792      1.0  0.85283  0.49946  0.38403  1.0000
  H   H1343     1.0  0.76688  0.46929  0.49240  1.0000
  C   C793      1.0  0.78709  0.69768  0.39688  1.0000
  H   H1344     1.0  0.78093  0.89377  0.63770  1.0000
  H   H1345     1.0  0.98618  0.50698  0.54342  1.0000
  H   H1346     1.0  0.64767  0.64121  0.59133  1.0000
  H   H1347     1.0  0.61868  0.72134  0.61802  1.0000
  H   H1348     1.0  0.91065  0.58213  0.65360  1.0000
  H   H1349     1.0  0.83259  0.52010  0.38224  1.0000
  H   H1350     1.0  0.67964  0.70815  0.47394  1.0000
  C   C794      1.0  0.96057  0.51894  0.55743  1.0000
  C   C795      1.0  0.71860  0.93069  0.38784  1.0000
  H   H1351     1.0  0.63281  0.72057  0.55855  1.0000
  H   H1352     1.0  0.84726  0.52352  0.60865  1.0000
  H   H1353     1.0  0.69024  0.94130  0.37676  1.0000
  H   H1354     1.0  0.73124  0.70042  0.36378  1.0000
  H   H1355     1.0  0.92721  0.56048  0.59937  1.0000
  N   N55       1.0  0.68548  0.94636  0.44472  1.0000
  C   C796      1.0  0.68945  0.89035  0.67538  1.0000
  H   H1356     1.0  0.95625  0.86361  0.65284  1.0000
  H   H1357     1.0  0.83433  0.49168  0.55643  1.0000
  N   N56       1.0  0.63196  0.67420  0.62898  1.0000
  H   H1358     1.0  0.68003  0.82795  0.60740  1.0000
  H   H1359     1.0  0.88096  0.47137  0.56582  1.0000
  H   H1360     1.0  0.93291  0.50128  0.66026  1.0000
  H   H1361     1.0  0.79138  0.92221  0.60763  1.0000
  C   C797      1.0  0.96078  0.92898  0.39940  1.0000
  H   H1362     1.0  0.96205  0.92283  0.45324  1.0000
  H   H1363     1.0  0.74080  0.48998  0.60347  1.0000
  H   H1364     1.0  0.61729  0.93976  0.44957  1.0000
  H   H1365     1.0  0.52443  0.95540  0.46262  1.0000
  H   H1366     1.0  0.01824  0.88270  0.59072  1.0000
  H   H1367     1.0  0.98818  0.93055  0.38175  1.0000
  H   H1368     1.0  0.68739  0.94634  0.65231  1.0000
  C   C798      1.0  0.78663  0.79539  0.63977  1.0000
  H   H1369     1.0  0.81634  0.78584  0.64850  1.0000
  C   C799      1.0  0.52556  0.64719  0.55753  1.0000
  N   N57       1.0  0.91468  0.51325  0.61042  1.0000
  C   C800      1.0  0.00639  0.90492  0.58448  1.0000
  H   H1370     1.0  0.93819  0.83430  0.62647  1.0000
  H   H1371     1.0  0.69932  0.67087  0.61617  1.0000
  S   S229      1.0  0.90431  0.94129  0.53730  1.0000
  H   H1372     1.0  0.98082  0.50011  0.60390  1.0000
  H   H1373     1.0  0.78219  0.67320  0.40152  1.0000
  C   C801      1.0  0.65244  0.47923  0.54098  1.0000
  H   H1374     1.0  0.68079  0.79800  0.65921  1.0000
  S   S230      1.0  0.72440  0.59933  0.58492  1.0000
  C   C802      1.0  0.72413  0.93565  0.42536  1.0000
  H   H1375     1.0  0.68699  0.65971  0.65702  1.0000
  H   H1376     1.0  0.81832  0.67515  0.49058  1.0000
  H   H1377     1.0  0.91791  0.83611  0.66778  1.0000
  C   C803      1.0  0.55692  0.67201  0.65615  1.0000
  H   H1378     1.0  0.94539  0.47752  0.58164  1.0000
  C   C804      1.0  0.79429  0.67801  0.47084  1.0000
  H   H1379     1.0  0.76755  0.48772  0.43639  1.0000
  H   H1380     1.0  0.93245  0.52031  0.54111  1.0000
  H   H1381     1.0  0.66735  0.94351  0.59600  1.0000
  H   H1382     1.0  0.66389  0.61408  0.64402  1.0000
  C   C805      1.0  0.92657  0.54481  0.62083  1.0000
  H   H1383     1.0  0.53742  0.56774  0.46267  1.0000
  H   H1384     1.0  0.63633  0.93532  0.40903  1.0000
  C   C806      1.0  0.61884  0.69898  0.60555  1.0000
  C   C807      1.0  0.67851  0.67657  0.63776  1.0000
  C   C808      1.0  0.55582  0.52255  0.44875  1.0000
  N   N58       1.0  0.92220  0.94594  0.38694  1.0000
  C   C809      1.0  0.64493  0.93072  0.43492  1.0000
  H   H1385     1.0  0.01225  0.93329  0.43458  1.0000
  H   H1386     1.0  0.54134  0.67356  0.68082  1.0000
  C   C810      1.0  0.79973  0.70938  0.45487  1.0000
  H   H1387     1.0  0.90403  0.88298  0.61203  1.0000
  C   C811      1.0  0.72605  0.53947  0.37212  1.0000
  C   C812      1.0  0.65863  0.92397  0.61186  1.0000
  H   H1388     1.0  0.73575  0.91371  0.43548  1.0000
  H   H1389     1.0  0.70495  0.71372  0.41179  1.0000
  C   C813      1.0  0.60538  0.67701  0.66006  1.0000
  H   H1390     1.0  0.64373  0.66779  0.36840  1.0000
  H   H1391     1.0  0.69479  0.87765  0.65212  1.0000
  C   C814      1.0  0.80602  0.90296  0.62112  1.0000
  H   H1392     1.0  0.67367  0.88533  0.42723  1.0000
  H   H1393     1.0  0.89917  0.95093  0.45588  1.0000
  H   H1394     1.0  0.98824  0.74697  0.47650  1.0000
  H   H1395     1.0  0.61660  0.88661  0.42695  1.0000
  C   C815      1.0  0.64582  0.70174  0.57364  1.0000
  C   C816      1.0  0.81706  0.76180  0.40862  1.0000
  C   C817      1.0  0.53652  0.67293  0.53940  1.0000
  N   N59       1.0  0.77130  0.71604  0.42589  1.0000
  H   H1396     1.0  0.64382  0.68118  0.55828  1.0000
  C   C818      1.0  0.54655  0.49802  0.42849  1.0000
  N   N60       1.0  0.58689  0.61635  0.35995  1.0000
  C   C819      1.0  0.72553  0.70772  0.43304  1.0000
  H   H1397     1.0  0.64340  0.88933  0.46532  1.0000
  H   H1398     1.0  0.81942  0.85797  0.66556  1.0000
  H   H1399     1.0  0.01702  0.52884  0.67628  1.0000
  H   H1400     1.0  0.60762  0.61523  0.65513  1.0000
  H   H1401     1.0  0.62568  0.59557  0.61924  1.0000
  H   H1402     1.0  0.67609  0.71361  0.67430  1.0000
  H   H1403     1.0  0.81514  0.88575  0.60252  1.0000
  C   C820      1.0  0.65689  0.93436  0.64803  1.0000
  C   C821      1.0  0.89687  0.56000  0.64671  1.0000
  H   H1404     1.0  0.68324  0.90626  0.60751  1.0000
  C   C822      1.0  0.63096  0.61601  0.63444  1.0000
  N   N61       1.0  0.65015  0.91006  0.67365  1.0000
  H   H1405     1.0  0.64595  0.61369  0.38697  1.0000
  H   H1406     1.0  0.86739  0.85455  0.62271  1.0000
  H   H1407     1.0  0.75012  0.75528  0.39871  1.0000
  H   H1408     1.0  0.71456  0.47561  0.42858  1.0000
  H   H1409     1.0  0.68918  0.72590  0.63289  1.0000
  H   H1410     1.0  0.83013  0.75100  0.38603  1.0000
  H   H1411     1.0  0.62184  0.47475  0.52847  1.0000
  C   C823      1.0  0.60999  0.89254  0.66632  1.0000
  C   C824      1.0  0.87230  0.95202  0.43848  1.0000
  H   H1412     1.0  0.85336  0.94041  0.38994  1.0000
  C   C825      1.0  0.71199  0.80762  0.36970  1.0000
  H   H1413     1.0  0.56560  0.47761  0.42997  1.0000
  H   H1414     1.0  0.89395  0.54683  0.66990  1.0000
  H   H1415     1.0  0.68074  0.50094  0.49934  1.0000
  H   H1416     1.0  0.83370  0.93241  0.65741  1.0000
  H   H1417     1.0  0.71829  0.90464  0.67781  1.0000
  H   H1418     1.0  0.54038  0.62574  0.55181  1.0000
  H   H1419     1.0  0.63087  0.84549  0.65859  1.0000
  H   H1420     1.0  0.92470  0.95004  0.66020  1.0000
  C   C826      1.0  0.84179  0.87174  0.68038  1.0000
  H   H1421     1.0  0.94161  0.91884  0.63523  1.0000
  H   H1422     1.0  0.63129  0.95193  0.64985  1.0000
  H   H1423     1.0  0.85906  0.49562  0.41042  1.0000
  H   H1424     1.0  0.73459  0.94655  0.52237  1.0000
  C   C827      1.0  0.60225  0.55849  0.36649  1.0000
  H   H1425     1.0  0.74691  0.93991  0.37456  1.0000
  C   C828      1.0  0.53084  0.54884  0.44674  1.0000
  H   H1426     1.0  0.75121  0.95143  0.42850  1.0000
  H   H1427     1.0  0.58556  0.64195  0.40568  1.0000
  C   C829      1.0  0.01297  0.95921  0.58669  1.0000
  H   H1428     1.0  0.75920  0.95553  0.48363  1.0000
  C   C830      1.0  0.69295  0.70743  0.65113  1.0000
  H   H1429     1.0  0.62691  0.91634  0.60344  1.0000
  H   H1430     1.0  0.83757  0.47286  0.59580  1.0000
  H   H1431     1.0  0.84491  0.94040  0.45047  1.0000
  C   C831      1.0  0.56797  0.64063  0.38200  1.0000
  C   C832      1.0  0.97451  0.96228  0.56946  1.0000
  C   C833      1.0  0.72875  0.95672  0.49773  1.0000
  C   C834      1.0  0.63492  0.61869  0.36150  1.0000
  H   H1432     1.0  0.60851  0.69990  0.67092  1.0000
  H   H1433     1.0  0.71801  0.49084  0.52979  1.0000
  H   H1434     1.0  0.79379  0.54790  0.67682  1.0000
  H   H1435     1.0  0.57130  0.66334  0.37042  1.0000
  H   H1436     1.0  0.54024  0.58018  0.36323  1.0000
  C   C835      1.0  0.02231  0.81876  0.42830  1.0000
  C   C836      1.0  0.00397  0.54836  0.68884  1.0000
  H   H1437     1.0  0.59240  0.54119  0.85245  1.0000
  S   S231      1.0  0.89806  0.85877  0.97337  1.0000
  Fe  Fe115     1.0  0.81256  0.49127  0.71529  1.0000
  Fe  Fe116     1.0  0.82702  0.85571  0.96831  1.0000
  S   S232      1.0  0.80331  0.86323  0.91656  1.0000
  S   S233      1.0  0.81970  0.81524  0.00131  1.0000
  Fe  Fe117     1.0  0.69047  0.76759  0.72586  1.0000
  S   S234      1.0  0.67737  0.80623  0.76024  1.0000
  C   C837      1.0  0.00484  0.95085  0.83220  1.0000
  Fe  Fe118     1.0  0.61326  0.73181  0.75100  1.0000
  S   S235      1.0  0.59432  0.76817  0.78664  1.0000
  S   S236      1.0  0.57908  0.68696  0.74791  1.0000
  Fe  Fe119     1.0  0.60923  0.79968  0.74500  1.0000
  C   C838      1.0  0.93301  0.92236  0.89878  1.0000
  Fe  Fe120     1.0  0.66394  0.77064  0.79831  1.0000
  S   S237      1.0  0.68245  0.76668  0.85177  1.0000
  S   S238      1.0  0.62315  0.76334  0.70797  1.0000
  S   S239      1.0  0.68229  0.73218  0.76516  1.0000
  H   H1438     1.0  0.85582  0.90975  0.82564  1.0000
  S   S240      1.0  0.80188  0.53256  0.74642  1.0000
  C   C839      1.0  0.95465  0.57010  0.72918  1.0000
  Fe  Fe121     1.0  0.87500  0.96156  0.76223  1.0000
  H   H1439     1.0  0.70888  0.93475  0.72098  1.0000
  S   S241      1.0  0.91673  0.92027  0.76769  1.0000
  C   C840      1.0  0.81503  0.88905  0.70640  1.0000
  C   C841      1.0  0.53461  0.68202  0.77444  1.0000
  Fe  Fe122     1.0  0.87165  0.52692  0.75801  1.0000
  S   S242      1.0  0.91519  0.56686  0.76007  1.0000
  N   N62       1.0  0.86149  0.95181  0.89791  1.0000
  H   H1440     1.0  0.80742  0.91528  0.84973  1.0000
  Fe  Fe123     1.0  0.67867  0.59661  0.96957  1.0000
  H   H1441     1.0  0.95764  0.61836  0.73435  1.0000
  S   S243      1.0  0.72927  0.60528  0.93086  1.0000
  H   H1442     1.0  0.63564  0.90890  0.72632  1.0000
  H   H1443     1.0  0.95124  0.90649  0.91464  1.0000
  S   S244      1.0  0.61036  0.59512  0.95405  1.0000
  C   C842      1.0  0.73352  0.57540  0.90249  1.0000
  H   H1444     1.0  0.85666  0.76406  0.81828  1.0000
  H   H1445     1.0  0.78528  0.55566  0.83104  1.0000
  C   C843      1.0  0.73814  0.52844  0.85595  1.0000
  C   C844      1.0  0.71075  0.52636  0.88336  1.0000
  C   C845      1.0  0.70815  0.54981  0.90640  1.0000
  H   H1446     1.0  0.95234  0.94310  0.89638  1.0000
  H   H1447     1.0  0.95833  0.85575  0.88784  1.0000
  C   C846      1.0  0.97143  0.54482  0.71273  1.0000
  H   H1448     1.0  0.68647  0.54804  0.92721  1.0000
  H   H1449     1.0  0.69798  0.71216  0.89881  1.0000
  Fe  Fe124     1.0  0.89030  0.82076  0.00935  1.0000
  H   H1450     1.0  0.96012  0.52256  0.71896  1.0000
  C   C847      1.0  0.92230  0.77033  0.86273  1.0000
  H   H1451     1.0  0.77771  0.95495  0.95597  1.0000
  H   H1452     1.0  0.57835  0.65707  0.84989  1.0000
  S   S245      1.0  0.86006  0.49870  0.80311  1.0000
  C   C848      1.0  0.98018  0.89586  0.80508  1.0000
  C   C849      1.0  0.95871  0.92239  0.79604  1.0000
  Fe  Fe125     1.0  0.60651  0.55528  0.98801  1.0000
  H   H1453     1.0  0.97065  0.87448  0.79474  1.0000
  H   H1454     1.0  0.80355  0.92708  0.90837  1.0000
  H   H1455     1.0  0.59857  0.66742  0.88852  1.0000
  H   H1456     1.0  0.84120  0.76162  0.88407  1.0000
  H   H1457     1.0  0.61432  0.71928  0.86813  1.0000
  C   C850      1.0  0.01386  0.80594  0.93416  1.0000
  H   H1458     1.0  0.53690  0.78857  0.69622  1.0000
  C   C851      1.0  0.97014  0.78020  0.97508  1.0000
  C   C852      1.0  0.98660  0.80692  0.96182  1.0000
  H   H1459     1.0  0.83545  0.89840  0.72602  1.0000
  H   H1460     1.0  0.98107  0.76731  0.83369  1.0000
  H   H1461     1.0  0.90211  0.75246  0.92529  1.0000
  C   C853      1.0  0.98159  0.75250  0.96094  1.0000
  H   H1462     1.0  0.97852  0.82835  0.97294  1.0000
  H   H1463     1.0  0.65453  0.63279  0.89595  1.0000
  C   C854      1.0  0.52940  0.83654  0.70319  1.0000
  H   H1464     1.0  0.96893  0.73176  0.97112  1.0000
  C   C855      1.0  0.76705  0.83759  0.89955  1.0000
  C   C856      1.0  0.75120  0.81339  0.91803  1.0000
  C   C857      1.0  0.72506  0.79187  0.90308  1.0000
  C   C858      1.0  0.71436  0.79457  0.86970  1.0000
  C   C859      1.0  0.72975  0.81899  0.85131  1.0000
  C   C860      1.0  0.75601  0.84048  0.86625  1.0000
  H   H1465     1.0  0.75952  0.81099  0.94369  1.0000
  H   H1466     1.0  0.71316  0.77303  0.91739  1.0000
  H   H1467     1.0  0.72157  0.82124  0.82560  1.0000
  H   H1468     1.0  0.76814  0.85920  0.85186  1.0000
  H   H1469     1.0  0.56078  0.70894  0.85902  1.0000
  H   H1470     1.0  0.90579  0.74827  0.86003  1.0000
  H   H1471     1.0  0.64858  0.48808  0.79701  1.0000
  C   C861      1.0  0.88898  0.92852  0.91492  1.0000
  H   H1472     1.0  0.53011  0.63419  0.76559  1.0000
  H   H1473     1.0  0.80919  0.77924  0.83833  1.0000
  H   H1474     1.0  0.70766  0.84699  0.69669  1.0000
  C   C862      1.0  0.84289  0.91521  0.85053  1.0000
  C   C863      1.0  0.68958  0.86754  0.70421  1.0000
  C   C864      1.0  0.00212  0.60236  0.69743  1.0000
  C   C865      1.0  0.60181  0.52091  0.83801  1.0000
  Fe  Fe126     1.0  0.59644  0.62237  0.99940  1.0000
  H   H1475     1.0  0.68974  0.62164  0.86406  1.0000
  N   N63       1.0  0.89048  0.79452  0.87262  1.0000
  H   H1476     1.0  0.54297  0.49862  0.83010  1.0000
  C   C866      1.0  0.91190  0.81982  0.89075  1.0000
  H   H1477     1.0  0.63574  0.58336  0.87562  1.0000
  H   H1478     1.0  0.88637  0.92178  0.69726  1.0000
  H   H1479     1.0  0.60056  0.52660  0.81135  1.0000
  C   C867      1.0  0.97036  0.59878  0.72162  1.0000
  H   H1480     1.0  0.84905  0.75553  0.94147  1.0000
  C   C868      1.0  0.85792  0.78078  0.89588  1.0000
  H   H1481     1.0  0.88767  0.83653  0.89965  1.0000
  S   S246      1.0  0.67629  0.55468  0.00085  1.0000
  H   H1482     1.0  0.89534  0.93527  0.94085  1.0000
  H   H1483     1.0  0.93441  0.84835  0.84915  1.0000
  C   C869      1.0  0.83888  0.78501  0.82453  1.0000
  H   H1484     1.0  0.61899  0.64145  0.80630  1.0000
  S   S247      1.0  0.80408  0.95571  0.76308  1.0000
  S   S248      1.0  0.57080  0.51301  0.97523  1.0000
  H   H1485     1.0  0.78131  0.59715  0.87226  1.0000
  Fe  Fe127     1.0  0.79137  0.50018  0.78843  1.0000
  H   H1486     1.0  0.88373  0.78667  0.94584  1.0000
  H   H1487     1.0  0.69158  0.50653  0.88697  1.0000
  H   H1488     1.0  0.83275  0.79757  0.90224  1.0000
  H   H1489     1.0  0.62812  0.59662  0.83452  1.0000
  H   H1490     1.0  0.71642  0.65269  0.80202  1.0000
  H   H1491     1.0  0.70907  0.67306  0.90889  1.0000
  C   C870      1.0  0.00917  0.75153  0.93350  1.0000
  C   C871      1.0  0.84450  0.48406  0.88729  1.0000
  H   H1492     1.0  0.61383  0.49072  0.90511  1.0000
  H   H1493     1.0  0.66894  0.95464  0.74382  1.0000
  H   H1494     1.0  0.97483  0.82297  0.86628  1.0000
  C   C872      1.0  0.59477  0.70377  0.85318  1.0000
  H   H1495     1.0  0.84431  0.82595  0.85258  1.0000
  S   S249      1.0  0.56760  0.83996  0.73440  1.0000
  H   H1496     1.0  0.84035  0.48851  0.91394  1.0000
  H   H1497     1.0  0.79282  0.87303  0.71870  1.0000
  H   H1498     1.0  0.68007  0.70177  0.84483  1.0000
  C   C873      1.0  0.94759  0.77515  0.83014  1.0000
  H   H1499     1.0  0.65563  0.68799  0.91015  1.0000
  H   H1500     1.0  0.92800  0.81118  0.91307  1.0000
  C   C874      1.0  0.81671  0.95010  0.91169  1.0000
  C   C875      1.0  0.53367  0.51481  0.94307  1.0000
  H   H1501     1.0  0.85354  0.89648  0.86653  1.0000
  C   C876      1.0  0.94658  0.83740  0.87178  1.0000
  H   H1502     1.0  0.94605  0.76678  0.88265  1.0000
  C   C877      1.0  0.97107  0.94993  0.80966  1.0000
  H   H1503     1.0  0.64416  0.67663  0.80142  1.0000
  H   H1504     1.0  0.89102  0.95042  0.84888  1.0000
  C   C878      1.0  0.86621  0.80759  0.84391  1.0000
  H   H1505     1.0  0.88739  0.81887  0.82579  1.0000
  C   C879      1.0  0.76156  0.57739  0.87537  1.0000
  H   H1506     1.0  0.59997  0.70872  0.82667  1.0000
  C   C880      1.0  0.85973  0.94631  0.86131  1.0000
  H   H1507     1.0  0.93007  0.91152  0.87429  1.0000
  H   H1508     1.0  0.69258  0.61594  0.80867  1.0000
  C   C881      1.0  0.76388  0.55391  0.85208  1.0000
  H   H1509     1.0  0.63519  0.51630  0.84494  1.0000
  C   C882      1.0  0.57077  0.49518  0.84656  1.0000
  H   H1510     1.0  0.52950  0.72872  0.78787  1.0000
  H   H1511     1.0  0.82855  0.79564  0.80105  1.0000
  H   H1512     1.0  0.01804  0.73001  0.92274  1.0000
  C   C883      1.0  0.87491  0.76827  0.92880  1.0000
  C   C884      1.0  0.68632  0.68864  0.89647  1.0000
  S   S250      1.0  0.55145  0.66232  0.99890  1.0000
  H   H1513     1.0  0.59256  0.60877  0.86764  1.0000
  C   C885      1.0  0.67770  0.94649  0.71874  1.0000
  H   H1514     1.0  0.94964  0.79866  0.82128  1.0000
  H   H1515     1.0  0.87224  0.90659  0.91736  1.0000
  S   S251      1.0  0.81409  0.88908  0.00865  1.0000
  H   H1516     1.0  0.71418  0.67128  0.85235  1.0000
  H   H1517     1.0  0.68244  0.63678  0.77192  1.0000
  S   S252      1.0  0.88305  0.48766  0.72434  1.0000
  C   C886      1.0  0.01370  0.89677  0.82771  1.0000
  N   N64       1.0  0.64758  0.65875  0.85105  1.0000
  C   C887      1.0  0.64739  0.65450  0.81415  1.0000
  C   C888      1.0  0.60412  0.67043  0.86156  1.0000
  C   C889      1.0  0.65641  0.62951  0.86875  1.0000
  C   C890      1.0  0.68239  0.68060  0.85955  1.0000
  C   C891      1.0  0.68724  0.63903  0.79891  1.0000
  C   C892      1.0  0.64210  0.92560  0.70633  1.0000
  H   H1518     1.0  0.83049  0.94185  0.96424  1.0000
  H   H1519     1.0  0.86465  0.50260  0.87743  1.0000
  S   S253      1.0  0.73859  0.49908  0.82678  1.0000
  C   C893      1.0  0.52559  0.54162  0.92582  1.0000
  C   C894      1.0  0.62610  0.60334  0.86078  1.0000
  H   H1520     1.0  0.61233  0.93954  0.70515  1.0000
  S   S254      1.0  0.93515  0.78090  0.00914  1.0000
  H   H1521     1.0  0.93465  0.76072  0.81029  1.0000
  H   H1522     1.0  0.79526  0.90729  0.69557  1.0000
  C   C895      1.0  0.62170  0.46648  0.90164  1.0000
  H   H1523     1.0  0.94620  0.46750  0.80363  1.0000
  H   H1524     1.0  0.86104  0.85492  0.69431  1.0000
  H   H1525     1.0  0.55720  0.49967  0.87148  1.0000
  H   H1526     1.0  0.65716  0.86024  0.71184  1.0000
  H   H1527     1.0  0.81346  0.48570  0.87451  1.0000
  H   H1528     1.0  0.70688  0.87684  0.72564  1.0000
  H   H1529     1.0  0.54252  0.56186  0.93186  1.0000
  Fe  Fe128     1.0  0.88456  0.88852  0.01673  1.0000
  H   H1530     1.0  0.01638  0.47078  0.83110  1.0000
  H   H1531     1.0  0.91980  0.89016  0.69581  1.0000
  C   C896      1.0  0.81178  0.95756  0.94866  1.0000
  S   S255      1.0  0.66544  0.62823  0.01169  1.0000
  H   H1532     1.0  0.83808  0.96295  0.84949  1.0000
  S   S256      1.0  0.74995  0.76841  0.69389  1.0000
  H   H1533     1.0  0.01384  0.62469  0.69163  1.0000
  H   H1534     1.0  0.65458  0.47071  0.85554  1.0000
  H   H1535     1.0  0.57260  0.46522  0.79176  1.0000
  H   H1536     1.0  0.59429  0.88460  0.68943  1.0000
