data_image0
_chemical_formula_structural       FeS2FeS2FeSFeS3FeS2FeS2FeSFeHS2H2FeS2H2FeS2H3SC6H4C6H4C6H5C4HSH6CH3CH4FeH2CNCSHCHC4H2CH6C5H3C2H3CHNCHC2H7CH3C3HSHCH3C2H7C3NH2CH5SFeHSH2CHC2H3CNH2CH3NH5CHCH9CH3NC3H4C2H2CH2CHCH2CH4CH2C2HCH2CH3C2H5C2H4CH3CFeS2FeS2FeSFeCS2FeS2FeS2FeHFeS3FeS2FeS2H4CH2C7H4CH2FeHC6H4C6H4SH7CHCH4C2HSHCH2SCSH2CH2NC8H25NC5H2CH2FeH2SHSC3HC3SCFeSFeSFeS3FeS2FeS2C4H2C6H4C6H2CH2CS2FeS2FeSFeS2C2H3C6H2C7H4NC7H12CHCH4CH4CH2CHCHCH2NC8H13CH7NC2H4CH10C2H2CH4C3H3CH7CNCHCH5C3HCNH4CH6CH3CH5C2HCH4CH4C2H2C2H7CH2CH4NHCH2FeS2FeSFeS3FeS2FeSFeS3H2C5H2C6H4C6H4FeS2FeS2C4H2C5H5C7H4CH3CH4CH5CH4CH2CH2CH5CH3CHNH2CH6CHC3H2NC5HCH4CH11NC5HCH3C2HCH11CHCH4CHCH2CHCHCH2CHNHCNH5CHNCHCFeS2FeS2FeSFeHS2FeS2FeS2FeSFeS3HCH2FeS2NHCHFeS2HC2HNHC6H4C6H4C6H4CSC3HCHNC2H8C2H2C2H3CHCSCH2C2H6NC4HCHC2H4CH16CH11CSCH2SHC2H3C5FeH4CH2CH4CHCFeH3CH4C3HCH4CHCH3CHCHC2H3CNCH3CH3CH7CH5CH4CH2CH6C2H4C2H3C2H4C2H2FeS2FeS2FeHFeS3FeS2FeS2FeSFeCS2FeS2H3C3FeS2HCHCHCH3C2HC3H2C6H4CHCH2C6H6NC8H20NC4HC2HCH16CH5CHNHC3HFeHCH4SC2H2C2H5SCH6NHC3H2CH5CH9C3FeH2SCHCH2SCH3C2NCSNHCNH5
_chemical_formula_sum              "Fe64 S128 H768 C448 N32"
_cell_length_a       48.056
_cell_length_b       44.6493
_cell_length_c       34.348
_cell_angle_alpha    90.0401
_cell_angle_beta     89.859
_cell_angle_gamma    89.5769

_space_group_name_H-M_alt    "P 1"
_space_group_IT_number       1

loop_
  _space_group_symop_operation_xyz
  'x, y, z'

loop_
  _atom_site_type_symbol
  _atom_site_label
  _atom_site_symmetry_multiplicity
  _atom_site_fract_x
  _atom_site_fract_y
  _atom_site_fract_z
  _atom_site_occupancy
  Fe  Fe1       1.0  0.26931  0.42029  0.35761  1.0000
  S   S1        1.0  0.25767  0.42594  0.29390  1.0000
  S   S2        1.0  0.27370  0.46424  0.39317  1.0000
  Fe  Fe2       1.0  0.27309  0.35144  0.34795  1.0000
  S   S3        1.0  0.26182  0.35316  0.28483  1.0000
  S   S4        1.0  0.27923  0.30706  0.38017  1.0000
  Fe  Fe3       1.0  0.29178  0.39191  0.28160  1.0000
  S   S5        1.0  0.32047  0.39278  0.22794  1.0000
  Fe  Fe4       1.0  0.22884  0.38675  0.30200  1.0000
  S   S6        1.0  0.18271  0.37789  0.28789  1.0000
  S   S7        1.0  0.30499  0.38832  0.34425  1.0000
  S   S8        1.0  0.23855  0.38303  0.36615  1.0000
  Fe  Fe5       1.0  0.27038  0.07287  0.36338  1.0000
  S   S9        1.0  0.26270  0.04336  0.31148  1.0000
  S   S10       1.0  0.26965  0.05629  0.42735  1.0000
  Fe  Fe6       1.0  0.26851  0.13073  0.31267  1.0000
  S   S11       1.0  0.25950  0.10382  0.25862  1.0000
  S   S12       1.0  0.27227  0.18011  0.29497  1.0000
  Fe  Fe7       1.0  0.22965  0.07718  0.29463  1.0000
  S   S13       1.0  0.18509  0.06107  0.28334  1.0000
  Fe  Fe8       1.0  0.29336  0.07284  0.27975  1.0000
  H   H1        1.0  0.21210  0.49721  0.41674  1.0000
  S   S14       1.0  0.23623  0.10600  0.34749  1.0000
  S   S15       1.0  0.30356  0.10045  0.33262  1.0000
  H   H2        1.0  0.09071  0.29592  0.21494  1.0000
  H   H3        1.0  0.32898  0.12183  0.23812  1.0000
  Fe  Fe9       1.0  0.05350  0.09182  0.13621  1.0000
  S   S16       1.0  0.10038  0.09733  0.14688  1.0000
  S   S17       1.0  0.04046  0.09833  0.07335  1.0000
  H   H4        1.0  0.22530  0.46924  0.33882  1.0000
  H   H5        1.0  0.18805  0.33598  0.39232  1.0000
  Fe  Fe10      1.0  0.04942  0.40749  0.14658  1.0000
  S   S18       1.0  0.09261  0.42500  0.16427  1.0000
  S   S19       1.0  0.04720  0.38479  0.08823  1.0000
  H   H6        1.0  0.09536  0.06618  0.07390  1.0000
  H   H7        1.0  0.17644  0.29818  0.16893  1.0000
  H   H8        1.0  0.13561  0.31334  0.30276  1.0000
  S   S20       1.0  0.03786  0.30120  0.11850  1.0000
  C   C1        1.0  0.16162  0.07210  0.24567  1.0000
  C   C2        1.0  0.16980  0.09050  0.21480  1.0000
  C   C3        1.0  0.15067  0.09813  0.18518  1.0000
  C   C4        1.0  0.12305  0.08780  0.18613  1.0000
  C   C5        1.0  0.11482  0.06948  0.21706  1.0000
  C   C6        1.0  0.13403  0.06161  0.24652  1.0000
  H   H9        1.0  0.19091  0.09867  0.21357  1.0000
  H   H10       1.0  0.15735  0.11219  0.16134  1.0000
  H   H11       1.0  0.09373  0.06121  0.21818  1.0000
  H   H12       1.0  0.12744  0.04733  0.27016  1.0000
  C   C7        1.0  0.11720  0.41196  0.19931  1.0000
  C   C8        1.0  0.14499  0.42167  0.19685  1.0000
  C   C9        1.0  0.16534  0.41160  0.22358  1.0000
  C   C10       1.0  0.15808  0.39182  0.25343  1.0000
  C   C11       1.0  0.13024  0.38231  0.25611  1.0000
  C   C12       1.0  0.10993  0.39228  0.22929  1.0000
  H   H13       1.0  0.15084  0.43700  0.17391  1.0000
  H   H14       1.0  0.18660  0.41916  0.22101  1.0000
  H   H15       1.0  0.12423  0.36725  0.27922  1.0000
  H   H16       1.0  0.08861  0.38489  0.23189  1.0000
  C   C13       1.0  0.27846  0.27166  0.35656  1.0000
  C   C14       1.0  0.27853  0.26939  0.31600  1.0000
  C   C15       1.0  0.27658  0.24119  0.29794  1.0000
  C   C16       1.0  0.27490  0.21477  0.32007  1.0000
  C   C17       1.0  0.27516  0.21691  0.36072  1.0000
  C   C18       1.0  0.27696  0.24526  0.37884  1.0000
  H   H17       1.0  0.28009  0.28941  0.29850  1.0000
  H   H18       1.0  0.27603  0.23996  0.26654  1.0000
  H   H19       1.0  0.27392  0.19680  0.37817  1.0000
  H   H20       1.0  0.27700  0.24675  0.41028  1.0000
  H   H21       1.0  0.15302  0.28768  0.11339  1.0000
  C   C19       1.0  0.26865  0.47927  0.44127  1.0000
  C   C20       1.0  0.12217  0.29598  0.06962  1.0000
  C   C21       1.0  0.21221  0.01249  0.37590  1.0000
  C   C22       1.0  0.32334  0.14146  0.21989  1.0000
  H   H22       1.0  0.11148  0.31447  0.05398  1.0000
  S   S21       1.0  0.02547  0.37134  0.17627  1.0000
  H   H23       1.0  0.18263  0.32884  0.20145  1.0000
  H   H24       1.0  0.10626  0.33136  0.20977  1.0000
  H   H25       1.0  0.07394  0.32418  0.18531  1.0000
  H   H26       1.0  0.12213  0.28164  0.16658  1.0000
  H   H27       1.0  0.15741  0.32182  0.08823  1.0000
  H   H28       1.0  0.30838  0.21145  0.23121  1.0000
  C   C23       1.0  0.18640  0.28573  0.28582  1.0000
  H   H29       1.0  0.16535  0.04147  0.36250  1.0000
  H   H30       1.0  0.14534  0.26428  0.33112  1.0000
  H   H31       1.0  0.15294  0.30589  0.20929  1.0000
  C   C24       1.0  0.21435  0.28144  0.26423  1.0000
  H   H32       1.0  0.34151  0.18443  0.16200  1.0000
  H   H33       1.0  0.21200  0.28870  0.23352  1.0000
  H   H34       1.0  0.22045  0.31929  0.40371  1.0000
  H   H35       1.0  0.14453  0.05435  0.11510  1.0000
  Fe  Fe11      1.0  0.02144  0.34954  0.11762  1.0000
  H   H36       1.0  0.17930  0.43981  0.39732  1.0000
  H   H37       1.0  0.29395  0.18935  0.19211  1.0000
  C   C25       1.0  0.02469  0.01790  0.96852  1.0000
  N   N1        1.0  0.12722  0.32389  0.13540  1.0000
  C   C26       1.0  0.09649  0.05617  0.01283  1.0000
  S   S22       1.0  0.01090  0.43583  0.13511  1.0000
  H   H38       1.0  0.03895  0.19123  0.11797  1.0000
  C   C27       1.0  0.10990  0.30181  0.15786  1.0000
  H   H39       1.0  0.13830  0.38521  0.11208  1.0000
  C   C28       1.0  0.16611  0.31600  0.18632  1.0000
  C   C29       1.0  0.21905  0.49306  0.33951  1.0000
  C   C30       1.0  0.09433  0.31430  0.19382  1.0000
  C   C31       1.0  0.10839  0.34841  0.12054  1.0000
  H   H40       1.0  0.12878  0.05731  0.05481  1.0000
  H   H41       1.0  0.13501  0.28388  0.04766  1.0000
  C   C32       1.0  0.14138  0.30754  0.10231  1.0000
  H   H42       1.0  0.07430  0.05054  0.00866  1.0000
  H   H43       1.0  0.09064  0.33898  0.10390  1.0000
  H   H44       1.0  0.09347  0.29231  0.13902  1.0000
  H   H45       1.0  0.05676  0.24169  0.13475  1.0000
  H   H46       1.0  0.21677  0.25614  0.39687  1.0000
  H   H47       1.0  0.12155  0.31299  0.35083  1.0000
  C   C33       1.0  0.02773  0.21106  0.10866  1.0000
  C   C34       1.0  0.19437  0.48620  0.40159  1.0000
  C   C35       1.0  0.19815  0.45214  0.40638  1.0000
  C   C36       1.0  0.12272  0.37241  0.09524  1.0000
  C   C37       1.0  0.33991  0.19016  0.19347  1.0000
  H   H48       1.0  0.09811  0.03311  0.12979  1.0000
  H   H49       1.0  0.06522  0.00884  0.03903  1.0000
  H   H50       1.0  0.21427  0.03526  0.36318  1.0000
  C   C38       1.0  0.14932  0.33778  0.16061  1.0000
  C   C39       1.0  0.20143  0.24221  0.38113  1.0000
  H   H51       1.0  0.09837  0.36061  0.14521  1.0000
  H   H52       1.0  0.22726  0.30083  0.34290  1.0000
  H   H53       1.0  0.20967  0.07129  0.40674  1.0000
  C   C40       1.0  0.03774  0.23973  0.11823  1.0000
  H   H54       1.0  0.21673  0.44338  0.39102  1.0000
  N   N2        1.0  0.19178  0.49789  0.36051  1.0000
  C   C41       1.0  0.16197  0.01975  0.37770  1.0000
  H   H55       1.0  0.14036  0.35525  0.17995  1.0000
  C   C42       1.0  0.11262  0.01897  0.11205  1.0000
  C   C43       1.0  0.14133  0.31236  0.33402  1.0000
  H   H56       1.0  0.22101  0.24968  0.32704  1.0000
  H   H57       1.0  0.19008  0.29736  0.40798  1.0000
  H   H58       1.0  0.23102  0.29521  0.27705  1.0000
  H   H59       1.0  0.10650  0.27985  0.08038  1.0000
  H   H60       1.0  0.20958  0.21886  0.38253  1.0000
  H   H61       1.0  0.17902  0.30863  0.27786  1.0000
  H   H62       1.0  0.20244  0.49727  0.27945  1.0000
  C   C44       1.0  0.15738  0.28322  0.34368  1.0000
  H   H63       1.0  0.18108  0.24227  0.39626  1.0000
  H   H64       1.0  0.15370  0.43865  0.32600  1.0000
  H   H65       1.0  0.29210  0.12205  0.18170  1.0000
  C   C45       1.0  0.31109  0.20455  0.20049  1.0000
  C   C46       1.0  0.19170  0.06592  0.42554  1.0000
  C   C47       1.0  0.02342  0.26583  0.10655  1.0000
  H   H66       1.0  0.15571  0.27999  0.37551  1.0000
  S   S23       1.0  0.02628  0.05145  0.14461  1.0000
  H   H67       1.0  0.13237  0.36287  0.06864  1.0000
  C   C48       1.0  0.20002  0.31468  0.38993  1.0000
  H   H68       1.0  0.20188  0.32760  0.33010  1.0000
  H   H69       1.0  0.22085  0.25754  0.26330  1.0000
  H   H70       1.0  0.18738  0.23373  0.32265  1.0000
  C   C49       1.0  0.19933  0.25144  0.33808  1.0000
  C   C50       1.0  0.19092  0.03229  0.43555  1.0000
  H   H71       1.0  0.16476  0.35007  0.14254  1.0000
  H   H72       1.0  0.06054  0.02741  0.08339  1.0000
  H   H73       1.0  0.17135  0.26986  0.27247  1.0000
  H   H74       1.0  0.20137  0.44709  0.43772  1.0000
  H   H75       1.0  0.15318  0.33271  0.34173  1.0000
  H   H76       1.0  0.10696  0.38906  0.08552  1.0000
  H   H77       1.0  0.09819  0.08056  0.00690  1.0000
  C   C51       1.0  0.31443  0.12828  0.18025  1.0000
  C   C52       1.0  0.10668  0.05017  0.05456  1.0000
  C   C53       1.0  0.20490  0.30644  0.34661  1.0000
  N   N3        1.0  0.18712  0.28198  0.32957  1.0000
  H   H78       1.0  0.30465  0.15066  0.23498  1.0000
  H   H79       1.0  0.30903  0.22500  0.18230  1.0000
  C   C54       1.0  0.13415  0.02187  0.40001  1.0000
  H   H80       1.0  0.14718  0.02643  0.15159  1.0000
  H   H81       1.0  0.32688  0.10794  0.17313  1.0000
  H   H82       1.0  0.10985  0.04473  0.99099  1.0000
  H   H83       1.0  0.31612  0.14423  0.15583  1.0000
  H   H84       1.0  0.17548  0.49161  0.41897  1.0000
  S   S24       1.0  0.02112  0.12384  0.15962  1.0000
  Fe  Fe12      1.0  0.01148  0.05949  0.08279  1.0000
  H   H85       1.0  0.11751  0.02859  0.37929  1.0000
  S   S25       1.0  0.32354  0.05672  0.23229  1.0000
  H   H86       1.0  0.17220  0.07409  0.41191  1.0000
  H   H87       1.0  0.21084  0.02731  0.45076  1.0000
  C   C55       1.0  0.27272  0.02103  0.45212  1.0000
  H   H88       1.0  0.33207  0.18292  0.27308  1.0000
  C   C56       1.0  0.14245  0.02994  0.12024  1.0000
  C   C57       1.0  0.07352  0.00990  0.06896  1.0000
  H   H89       1.0  0.02987  0.04112  0.97342  1.0000
  H   H90       1.0  0.17336  0.45517  0.28836  1.0000
  H   H91       1.0  0.19037  0.44017  0.33082  1.0000
  C   C58       1.0  0.17211  0.45300  0.32052  1.0000
  N   N4        1.0  0.10376  0.01866  0.06983  1.0000
  H   H92       1.0  0.13458  0.03910  0.42323  1.0000
  H   H93       1.0  0.19454  0.07888  0.45284  1.0000
  C   C59       1.0  0.16733  0.48405  0.33978  1.0000
  H   H94       1.0  0.15833  0.01744  0.10321  1.0000
  H   H95       1.0  0.23179  0.00959  0.39266  1.0000
  H   H96       1.0  0.14935  0.48188  0.36008  1.0000
  N   N5        1.0  0.18693  0.01112  0.40177  1.0000
  H   H97       1.0  0.23951  0.49574  0.28312  1.0000
  H   H98       1.0  0.16000  0.49914  0.31602  1.0000
  H   H99       1.0  0.17449  0.02923  0.45805  1.0000
  H   H100      1.0  0.14253  0.00779  0.04054  1.0000
  H   H101      1.0  0.15884  0.00337  0.35365  1.0000
  C   C60       1.0  0.18091  0.44163  0.64080  1.0000
  H   H102      1.0  0.20038  0.45076  0.69610  1.0000
  C   C61       1.0  0.18420  0.46138  0.67742  1.0000
  H   H103      1.0  0.13278  0.49902  0.68919  1.0000
  H   H104      1.0  0.30887  0.03725  0.59817  1.0000
  H   H105      1.0  0.16514  0.45904  0.69547  1.0000
  H   H106      1.0  0.25913  0.03964  0.50696  1.0000
  H   H107      1.0  0.25980  0.48312  0.63616  1.0000
  H   H108      1.0  0.03988  0.01748  0.90919  1.0000
  H   H109      1.0  0.20094  0.43052  0.63306  1.0000
  H   H110      1.0  0.21242  0.48594  0.61434  1.0000
  H   H111      1.0  0.16449  0.49182  0.74509  1.0000
  C   C62       1.0  0.25433  0.47545  0.50947  1.0000
  H   H112      1.0  0.16493  0.42424  0.64619  1.0000
  H   H113      1.0  0.24648  0.46191  0.53310  1.0000
  H   H114      1.0  0.13287  0.47873  0.64398  1.0000
  N   N6        1.0  0.19107  0.49365  0.66960  1.0000
  C   C63       1.0  0.24342  0.48108  0.65889  1.0000
  C   C64       1.0  0.21639  0.49579  0.64359  1.0000
  C   C65       1.0  0.26598  0.01952  0.49207  1.0000
  H   H115      1.0  0.21457  0.49685  0.72330  1.0000
  H   H116      1.0  0.24103  0.45685  0.66471  1.0000
  H   H117      1.0  0.17357  0.45458  0.61523  1.0000
  H   H118      1.0  0.25153  0.49264  0.68502  1.0000
  C   C66       1.0  0.13764  0.50054  0.65781  1.0000
  C   C67       1.0  0.25823  0.46229  0.47227  1.0000
  H   H119      1.0  0.25340  0.43893  0.46770  1.0000
  H   H120      1.0  0.29277  0.02510  0.64235  1.0000
  C   C68       1.0  0.30409  0.01723  0.61596  1.0000
  H   H121      1.0  0.01082  0.48763  0.89428  1.0000
  H   H122      1.0  0.34057  0.01446  0.65094  1.0000
  C   C69       1.0  0.03024  0.00440  0.93197  1.0000
  H   H123      1.0  0.06625  0.98177  0.12053  1.0000
  C   C70       1.0  0.27484  0.50965  0.44823  1.0000
  H   H124      1.0  0.14224  0.53065  0.37762  1.0000
  H   H125      1.0  0.18478  0.54121  0.33341  1.0000
  C   C71       1.0  0.28131  0.99464  0.43339  1.0000
  H   H126      1.0  0.23444  0.98336  0.33506  1.0000
  H   H127      1.0  0.22182  0.52942  0.29629  1.0000
  H   H128      1.0  0.10177  0.96116  0.01466  1.0000
  H   H129      1.0  0.17386  0.96466  0.39601  1.0000
  C   C72       1.0  0.18726  0.53139  0.36298  1.0000
  H   H130      1.0  0.12810  0.99996  0.41251  1.0000
  H   H131      1.0  0.28292  0.52313  0.42468  1.0000
  C   C73       1.0  0.20894  0.96487  0.43527  1.0000
  C   C74       1.0  0.11046  0.98380  0.00941  1.0000
  H   H132      1.0  0.20582  0.54250  0.37593  1.0000
  C   C75       1.0  0.18276  0.98008  0.41808  1.0000
  H   H133      1.0  0.04519  0.97294  0.07958  1.0000
  H   H134      1.0  0.12784  0.98033  0.98845  1.0000
  C   C76       1.0  0.12226  0.99710  0.04762  1.0000
  H   H135      1.0  0.20441  0.00189  0.31435  1.0000
  H   H136      1.0  0.21837  0.97840  0.45878  1.0000
  H   H137      1.0  0.12740  0.97744  0.06633  1.0000
  C   C77       1.0  0.16160  0.54215  0.38642  1.0000
  C   C78       1.0  0.28330  0.96741  0.45437  1.0000
  H   H138      1.0  0.16697  0.98047  0.44186  1.0000
  H   H139      1.0  0.22484  0.95999  0.41262  1.0000
  H   H140      1.0  0.16489  0.53977  0.41824  1.0000
  H   H141      1.0  0.08098  0.96152  0.07940  1.0000
  H   H142      1.0  0.20077  0.96996  0.34553  1.0000
  C   C79       1.0  0.21268  0.99069  0.34084  1.0000
  C   C80       1.0  0.06651  0.97969  0.08831  1.0000
  H   H143      1.0  0.15833  0.56647  0.38101  1.0000
  H   H144      1.0  0.28664  0.99523  0.40278  1.0000
  H   H145      1.0  0.29015  0.94730  0.43947  1.0000
  H   H146      1.0  0.11156  0.99616  0.12493  1.0000
  C   C81       1.0  0.01205  0.00146  0.99835  1.0000
  H   H147      1.0  0.20308  0.94305  0.44835  1.0000
  H   H148      1.0  0.09479  0.99770  0.99422  1.0000
  H   H149      1.0  0.23625  0.50418  0.35562  1.0000
  C   C82       1.0  0.22031  0.50465  0.29722  1.0000
  Fe  Fe13      1.0  0.27670  0.91323  0.58246  1.0000
  S   S26       1.0  0.27400  0.94280  0.63534  1.0000
  S   S27       1.0  0.27987  0.93072  0.51920  1.0000
  Fe  Fe14      1.0  0.27903  0.85548  0.63198  1.0000
  S   S28       1.0  0.27628  0.88232  0.68734  1.0000
  S   S29       1.0  0.28410  0.80636  0.65033  1.0000
  Fe  Fe15      1.0  0.24296  0.90941  0.65814  1.0000
  S   S30       1.0  0.20739  0.92593  0.69717  1.0000
  Fe  Fe16      1.0  0.30756  0.91313  0.66087  1.0000
  C   C83       1.0  0.01552  0.76266  0.80335  1.0000
  S   S31       1.0  0.24346  0.88096  0.60390  1.0000
  S   S32       1.0  0.31245  0.88526  0.60681  1.0000
  Fe  Fe17      1.0  0.26234  0.56506  0.59889  1.0000
  S   S33       1.0  0.26540  0.55960  0.66457  1.0000
  S   S34       1.0  0.25549  0.52091  0.56458  1.0000
  Fe  Fe18      1.0  0.26380  0.63355  0.60660  1.0000
  S   S35       1.0  0.26634  0.63208  0.67135  1.0000
  S   S36       1.0  0.26396  0.67795  0.57358  1.0000
  Fe  Fe19      1.0  0.29814  0.59537  0.66313  1.0000
  H   H150      1.0  0.33873  0.94640  0.51469  1.0000
  Fe  Fe20      1.0  0.23352  0.59663  0.66867  1.0000
  S   S37       1.0  0.20218  0.59769  0.71902  1.0000
  S   S38       1.0  0.29757  0.59864  0.59745  1.0000
  S   S39       1.0  0.22842  0.60039  0.60370  1.0000
  Fe  Fe21      1.0  0.03950  0.57395  0.77502  1.0000
  S   S40       1.0  0.03953  0.60191  0.82957  1.0000
  S   S41       1.0  0.07327  0.56614  0.72890  1.0000
  Fe  Fe22      1.0  0.05373  0.88029  0.77514  1.0000
  S   S42       1.0  0.05599  0.87579  0.84047  1.0000
  S   S43       1.0  0.08745  0.87025  0.72946  1.0000
  H   H151      1.0  0.32772  0.70459  0.67553  1.0000
  H   H152      1.0  0.33944  0.72168  0.61912  1.0000
  H   H153      1.0  0.17035  0.83066  0.80392  1.0000
  H   H154      1.0  0.26188  0.99150  0.54333  1.0000
  C   C84       1.0  0.27106  0.52278  0.48548  1.0000
  H   H155      1.0  0.20130  0.77739  0.76558  1.0000
  H   H156      1.0  0.01331  0.73222  0.75467  1.0000
  C   C85       1.0  0.33540  0.97306  0.56729  1.0000
  C   C86       1.0  0.16581  0.59145  0.72079  1.0000
  C   C87       1.0  0.15252  0.59019  0.75732  1.0000
  C   C88       1.0  0.12401  0.58330  0.76039  1.0000
  C   C89       1.0  0.10850  0.57757  0.72685  1.0000
  C   C90       1.0  0.12164  0.57958  0.69029  1.0000
  C   C91       1.0  0.15005  0.58686  0.68721  1.0000
  H   H157      1.0  0.16455  0.59375  0.78350  1.0000
  H   H158      1.0  0.11426  0.58148  0.78872  1.0000
  H   H159      1.0  0.10975  0.57532  0.66418  1.0000
  H   H160      1.0  0.15987  0.58840  0.65891  1.0000
  C   C92       1.0  0.27661  0.96592  0.49433  1.0000
  H   H161      1.0  0.32559  0.95340  0.58172  1.0000
  H   H162      1.0  0.12302  0.51731  0.64524  1.0000
  Fe  Fe23      1.0  0.02505  0.91438  0.84340  1.0000
  H   H163      1.0  0.21670  0.82013  0.79418  1.0000
  C   C93       1.0  0.17327  0.91178  0.70427  1.0000
  C   C94       1.0  0.15872  0.91936  0.73855  1.0000
  C   C95       1.0  0.13210  0.90756  0.74631  1.0000
  C   C96       1.0  0.11969  0.88808  0.71971  1.0000
  C   C97       1.0  0.13398  0.88105  0.68499  1.0000
  C   C98       1.0  0.16055  0.89297  0.67717  1.0000
  H   H164      1.0  0.16824  0.93419  0.75950  1.0000
  H   H165      1.0  0.12138  0.91321  0.77309  1.0000
  H   H166      1.0  0.12446  0.86622  0.66406  1.0000
  H   H167      1.0  0.17117  0.88768  0.65022  1.0000
  C   C99       1.0  0.27711  0.77126  0.62810  1.0000
  C   C100      1.0  0.27014  0.76840  0.58876  1.0000
  C   C101      1.0  0.26564  0.73973  0.57260  1.0000
  C   C102      1.0  0.26749  0.71376  0.59570  1.0000
  C   C103      1.0  0.27389  0.71677  0.63518  1.0000
  C   C104      1.0  0.27910  0.74526  0.65107  1.0000
  H   H168      1.0  0.26864  0.78816  0.57066  1.0000
  H   H169      1.0  0.26083  0.73767  0.54196  1.0000
  H   H170      1.0  0.27523  0.69712  0.65341  1.0000
  H   H171      1.0  0.28458  0.74718  0.68148  1.0000
  S   S44       1.0  0.33270  0.60095  0.70854  1.0000
  H   H172      1.0  0.21279  0.81901  0.63412  1.0000
  H   H173      1.0  0.18981  0.79679  0.66170  1.0000
  H   H174      1.0  0.23252  0.77405  0.68739  1.0000
  H   H175      1.0  0.18013  0.83470  0.65100  1.0000
  H   H176      1.0  0.18607  0.77564  0.71915  1.0000
  H   H177      1.0  0.13779  0.82984  0.77920  1.0000
  H   H178      1.0  0.23041  0.74665  0.72491  1.0000
  C   C105      1.0  0.33053  0.00001  0.62870  1.0000
  H   H179      1.0  0.32206  0.70201  0.58164  1.0000
  C   C106      1.0  0.26768  0.99223  0.51293  1.0000
  H   H180      1.0  0.15808  0.52912  0.72564  1.0000
  H   H181      1.0  0.19931  0.87335  0.78216  1.0000
  H   H182      1.0  0.05646  0.63482  0.75372  1.0000
  H   H183      1.0  0.27618  0.54605  0.49013  1.0000
  C   C107      1.0  0.20382  0.78564  0.73520  1.0000
  C   C108      1.0  0.19781  0.81980  0.65885  1.0000
  H   H184      1.0  0.15950  0.82067  0.71614  1.0000
  S   S45       1.0  0.02530  0.92042  0.77779  1.0000
  H   H185      1.0  0.22729  0.87809  0.74730  1.0000
  C   C109      1.0  0.15942  0.82077  0.77866  1.0000
  H   H186      1.0  0.03823  0.65154  0.71419  1.0000
  H   H187      1.0  0.34008  0.64070  0.64555  1.0000
  S   S46       1.0  0.03034  0.95889  0.87723  1.0000
  C   C110      1.0  0.33491  0.68109  0.67819  1.0000
  S   S47       1.0  0.34044  0.93247  0.70192  1.0000
  H   H188      1.0  0.21068  0.85622  0.69460  1.0000
  H   H189      1.0  0.24345  0.82562  0.75954  1.0000
  C   C111      1.0  0.02336  0.97428  0.92453  1.0000
  H   H190      1.0  0.23566  0.82777  0.69180  1.0000
  H   H191      1.0  0.20659  0.53200  0.70148  1.0000
  N   N7        1.0  0.09927  0.67996  0.75556  1.0000
  C   C112      1.0  0.09967  0.66161  0.79243  1.0000
  C   C113      1.0  0.11999  0.66636  0.72743  1.0000
  C   C114      1.0  0.07092  0.67987  0.73697  1.0000
  C   C115      1.0  0.10641  0.71185  0.76558  1.0000
  C   C116      1.0  0.07768  0.67001  0.82350  1.0000
  C   C117      1.0  0.15096  0.67092  0.73740  1.0000
  C   C118      1.0  0.05918  0.64871  0.72733  1.0000
  C   C119      1.0  0.10832  0.73387  0.73095  1.0000
  H   H192      1.0  0.09719  0.63735  0.78595  1.0000
  H   H193      1.0  0.12023  0.66324  0.80703  1.0000
  H   H194      1.0  0.11660  0.67450  0.69720  1.0000
  H   H195      1.0  0.11699  0.64175  0.72523  1.0000
  H   H196      1.0  0.05539  0.69185  0.75546  1.0000
  H   H197      1.0  0.07115  0.69257  0.70910  1.0000
  H   H198      1.0  0.09029  0.72171  0.78518  1.0000
  H   H199      1.0  0.12583  0.71319  0.78311  1.0000
  H   H200      1.0  0.08031  0.69302  0.83494  1.0000
  H   H201      1.0  0.05617  0.66718  0.81272  1.0000
  H   H202      1.0  0.08005  0.65466  0.84875  1.0000
  H   H203      1.0  0.15642  0.66141  0.76621  1.0000
  H   H204      1.0  0.16393  0.65884  0.71552  1.0000
  H   H205      1.0  0.15697  0.69482  0.73602  1.0000
  H   H206      1.0  0.23470  0.87093  0.79702  1.0000
  H   H207      1.0  0.07221  0.63643  0.70584  1.0000
  H   H208      1.0  0.31976  0.66968  0.69755  1.0000
  H   H209      1.0  0.08773  0.74450  0.72524  1.0000
  H   H210      1.0  0.11579  0.72334  0.70369  1.0000
  H   H211      1.0  0.12358  0.75167  0.73784  1.0000
  H   H212      1.0  0.24968  0.78018  0.73340  1.0000
  H   H213      1.0  0.16942  0.53471  0.65428  1.0000
  H   H214      1.0  0.15799  0.79615  0.78204  1.0000
  H   H215      1.0  0.17132  0.85421  0.73706  1.0000
  H   H216      1.0  0.31413  0.66406  0.62717  1.0000
  N   N8        1.0  0.20272  0.81942  0.73402  1.0000
  C   C120      1.0  0.22127  0.83117  0.76587  1.0000
  C   C121      1.0  0.17305  0.82956  0.73968  1.0000
  C   C122      1.0  0.21289  0.83141  0.69557  1.0000
  C   C123      1.0  0.22020  0.86530  0.77302  1.0000
  C   C124      1.0  0.23078  0.77116  0.71934  1.0000
  H   H217      1.0  0.02024  0.78191  0.78554  1.0000
  H   H218      1.0  0.22110  0.51974  0.63740  1.0000
  C   C125      1.0  0.01184  0.73439  0.78597  1.0000
  H   H219      1.0  0.28948  0.00256  0.60009  1.0000
  H   H220      1.0  0.32366  0.97968  0.64478  1.0000
  Fe  Fe24      1.0  0.01817  0.84637  0.83433  1.0000
  H   H221      1.0  0.31808  0.98608  0.55407  1.0000
  H   H222      1.0  0.33475  0.65204  0.56288  1.0000
  S   S48       1.0  0.01338  0.80188  0.86627  1.0000
  H   H223      1.0  0.16991  0.50831  0.61659  1.0000
  S   S49       1.0  0.01756  0.84878  0.76945  1.0000
  C   C126      1.0  0.16783  0.51022  0.64886  1.0000
  C   C127      1.0  0.33577  0.66441  0.63878  1.0000
  C   C128      1.0  0.01079  0.95782  0.95437  1.0000
  H   H224      1.0  0.18242  0.52368  0.76361  1.0000
  C   C129      1.0  0.17407  0.51335  0.73663  1.0000
  C   C130      1.0  0.19803  0.50925  0.70730  1.0000
  C   C131      1.0  0.26085  0.50575  0.51657  1.0000
  S   S50       1.0  0.01123  0.53853  0.80000  1.0000
  C   C132      1.0  0.01237  0.76610  0.84361  1.0000
  Fe  Fe25      1.0  0.51163  0.07727  0.08890  1.0000
  S   S51       1.0  0.49836  0.05616  0.03036  1.0000
  Fe  Fe26      1.0  0.52343  0.13796  0.12845  1.0000
  S   S52       1.0  0.53801  0.18651  0.13179  1.0000
  Fe  Fe27      1.0  0.48534  0.09160  0.16854  1.0000
  S   S53       1.0  0.45207  0.09059  0.21653  1.0000
  S   S54       1.0  0.48367  0.11524  0.11073  1.0000
  S   S55       1.0  0.52238  0.42988  0.15672  1.0000
  Fe  Fe28      1.0  0.49837  0.35533  0.11055  1.0000
  S   S56       1.0  0.50387  0.36111  0.17471  1.0000
  S   S57       1.0  0.48022  0.31137  0.08938  1.0000
  Fe  Fe29      1.0  0.48198  0.40516  0.16616  1.0000
  S   S58       1.0  0.45061  0.42072  0.21228  1.0000
  S   S59       1.0  0.47418  0.39854  0.10217  1.0000
  C   C133      1.0  0.52065  0.22074  0.12103  1.0000
  C   C134      1.0  0.49457  0.22182  0.10302  1.0000
  C   C135      1.0  0.48231  0.24973  0.09361  1.0000
  C   C136      1.0  0.49587  0.27672  0.10246  1.0000
  H   H225      1.0  0.48419  0.20120  0.09552  1.0000
  H   H226      1.0  0.46245  0.25038  0.07889  1.0000
  C   C137      1.0  0.35947  0.06542  0.22853  1.0000
  C   C138      1.0  0.37508  0.07401  0.26093  1.0000
  C   C139      1.0  0.40351  0.08095  0.25669  1.0000
  C   C140      1.0  0.41662  0.07985  0.22002  1.0000
  C   C141      1.0  0.40099  0.07139  0.18755  1.0000
  C   C142      1.0  0.37267  0.06384  0.19191  1.0000
  H   H227      1.0  0.36532  0.07499  0.28933  1.0000
  H   H228      1.0  0.41540  0.08745  0.28200  1.0000
  H   H229      1.0  0.41063  0.07105  0.15914  1.0000
  H   H230      1.0  0.36076  0.05723  0.16669  1.0000
  C   C143      1.0  0.41440  0.41297  0.21592  1.0000
  C   C144      1.0  0.40107  0.41584  0.25228  1.0000
  C   C145      1.0  0.37246  0.40954  0.25664  1.0000
  C   C146      1.0  0.35669  0.40077  0.22446  1.0000
  C   C147      1.0  0.36998  0.39829  0.18797  1.0000
  C   C148      1.0  0.39865  0.40423  0.18371  1.0000
  H   H231      1.0  0.41297  0.42273  0.27740  1.0000
  H   H232      1.0  0.36257  0.41171  0.28486  1.0000
  C   C149      1.0  0.61387  0.46033  0.03399  1.0000
  H   H233      1.0  0.40844  0.40241  0.15543  1.0000
  H   H234      1.0  0.36587  0.19441  0.25986  1.0000
  C   C150      1.0  0.51948  0.47786  0.00924  1.0000
  S   S60       1.0  0.51119  0.05275  0.14642  1.0000
  S   S61       1.0  0.52323  0.11679  0.18755  1.0000
  Fe  Fe30      1.0  0.54910  0.08020  0.16126  1.0000
  S   S62       1.0  0.58394  0.06044  0.19893  1.0000
  S   S63       1.0  0.55141  0.10218  0.10238  1.0000
  Fe  Fe31      1.0  0.51606  0.42023  0.09261  1.0000
  S   S64       1.0  0.53171  0.45645  0.05005  1.0000
  Fe  Fe32      1.0  0.54362  0.38491  0.15991  1.0000
  S   S65       1.0  0.58335  0.36869  0.19020  1.0000
  S   S66       1.0  0.53947  0.37616  0.09555  1.0000
  C   C151      1.0  0.52158  0.27560  0.12134  1.0000
  C   C152      1.0  0.53394  0.24778  0.13031  1.0000
  H   H235      1.0  0.53223  0.29618  0.12834  1.0000
  H   H236      1.0  0.55413  0.24729  0.14408  1.0000
  H   H237      1.0  0.64061  0.40759  0.14737  1.0000
  C   C153      1.0  0.65898  0.07675  0.24972  1.0000
  C   C154      1.0  0.63220  0.06570  0.24138  1.0000
  C   C155      1.0  0.61776  0.07479  0.20773  1.0000
  C   C156      1.0  0.63078  0.09439  0.18181  1.0000
  C   C157      1.0  0.65759  0.10530  0.19004  1.0000
  C   C158      1.0  0.59479  0.46423  0.13125  1.0000
  H   H238      1.0  0.62244  0.05026  0.26138  1.0000
  H   H239      1.0  0.62014  0.10114  0.15547  1.0000
  C   C159      1.0  0.50856  0.02516  0.00006  1.0000
  C   C160      1.0  0.61193  0.38753  0.21185  1.0000
  C   C161      1.0  0.63560  0.37072  0.22246  1.0000
  C   C162      1.0  0.65918  0.38463  0.23866  1.0000
  C   C163      1.0  0.65939  0.41564  0.24441  1.0000
  C   C164      1.0  0.63571  0.43250  0.23372  1.0000
  C   C165      1.0  0.61203  0.41854  0.21777  1.0000
  H   H240      1.0  0.63576  0.34672  0.21810  1.0000
  H   H241      1.0  0.63843  0.13939  0.27309  1.0000
  H   H242      1.0  0.63560  0.45648  0.23826  1.0000
  H   H243      1.0  0.59385  0.43171  0.21035  1.0000
  N   N9        1.0  0.60396  0.18509  0.22443  1.0000
  C   C166      1.0  0.60306  0.20049  0.18526  1.0000
  C   C167      1.0  0.59153  0.20645  0.25383  1.0000
  C   C168      1.0  0.58640  0.15722  0.22170  1.0000
  C   C169      1.0  0.63394  0.17742  0.23300  1.0000
  C   C170      1.0  0.61099  0.18098  0.14963  1.0000
  C   C171      1.0  0.60712  0.23623  0.25940  1.0000
  C   C172      1.0  0.57525  0.14379  0.26002  1.0000
  H   H244      1.0  0.60946  0.46714  0.15577  1.0000
  H   H245      1.0  0.58185  0.20973  0.17963  1.0000
  H   H246      1.0  0.61729  0.22001  0.18446  1.0000
  H   H247      1.0  0.58988  0.19621  0.28311  1.0000
  H   H248      1.0  0.56963  0.21205  0.24567  1.0000
  H   H249      1.0  0.56757  0.16162  0.20360  1.0000
  H   H250      1.0  0.59793  0.13903  0.20650  1.0000
  H   H251      1.0  0.64182  0.16067  0.21178  1.0000
  H   H252      1.0  0.66958  0.06998  0.27608  1.0000
  H   H253      1.0  0.43790  0.45489  0.06787  1.0000
  H   H254      1.0  0.36572  0.16235  0.31780  1.0000
  H   H255      1.0  0.63288  0.17306  0.15072  1.0000
  C   C173      1.0  0.64071  0.16413  0.27329  1.0000
  H   H256      1.0  0.45182  0.03226  0.16944  1.0000
  C   C174      1.0  0.44177  0.49997  0.20793  1.0000
  H   H257      1.0  0.55820  0.15783  0.27229  1.0000
  H   H258      1.0  0.59148  0.14014  0.28218  1.0000
  H   H259      1.0  0.56619  0.12146  0.25370  1.0000
  H   H260      1.0  0.54034  0.00759  0.03784  1.0000
  C   C175      1.0  0.42138  0.46369  0.08754  1.0000
  H   H261      1.0  0.41472  0.46935  0.14888  1.0000
  H   H262      1.0  0.48509  0.47097  0.10860  1.0000
  H   H263      1.0  0.58126  0.43132  0.08938  1.0000
  H   H264      1.0  0.40502  0.44625  0.08900  1.0000
  C   C176      1.0  0.43278  0.46925  0.12885  1.0000
  H   H265      1.0  0.47717  0.46255  0.01079  1.0000
  H   H266      1.0  0.57352  0.46591  0.14373  1.0000
  C   C177      1.0  0.52921  0.00450  0.01082  1.0000
  H   H267      1.0  0.66268  0.16927  0.28064  1.0000
  C   C178      1.0  0.63485  0.45209  0.06636  1.0000
  H   H268      1.0  0.61066  0.44158  0.01335  1.0000
  C   C179      1.0  0.39907  0.16674  0.20155  1.0000
  H   H269      1.0  0.63951  0.47279  0.08315  1.0000
  H   H270      1.0  0.64947  0.44554  0.14155  1.0000
  N   N10       1.0  0.42446  0.31084  0.20514  1.0000
  C   C180      1.0  0.40311  0.32071  0.17539  1.0000
  C   C181      1.0  0.40996  0.29037  0.23347  1.0000
  C   C182      1.0  0.44752  0.29424  0.18397  1.0000
  C   C183      1.0  0.43529  0.33861  0.22480  1.0000
  C   C184      1.0  0.41462  0.33560  0.13810  1.0000
  C   C185      1.0  0.38561  0.30455  0.25664  1.0000
  C   C186      1.0  0.46529  0.27188  0.20767  1.0000
  C   C187      1.0  0.45611  0.33433  0.25838  1.0000
  H   H271      1.0  0.39041  0.30137  0.16547  1.0000
  H   H272      1.0  0.38802  0.33696  0.18834  1.0000
  H   H273      1.0  0.42448  0.28100  0.25540  1.0000
  H   H274      1.0  0.40172  0.27044  0.21782  1.0000
  H   H275      1.0  0.43895  0.28073  0.15951  1.0000
  H   H276      1.0  0.46213  0.31034  0.17020  1.0000
  H   H277      1.0  0.44598  0.35321  0.20346  1.0000
  H   H278      1.0  0.41805  0.35315  0.23561  1.0000
  H   H279      1.0  0.43051  0.35281  0.14407  1.0000
  H   H280      1.0  0.42359  0.31866  0.11793  1.0000
  H   H281      1.0  0.39728  0.34678  0.12232  1.0000
  H   H282      1.0  0.36845  0.14046  0.17208  1.0000
  H   H283      1.0  0.60878  0.19478  0.12289  1.0000
  C   C188      1.0  0.44426  0.02193  0.10852  1.0000
  H   H284      1.0  0.45313  0.25180  0.21584  1.0000
  H   H285      1.0  0.47470  0.28189  0.23385  1.0000
  H   H286      1.0  0.48276  0.26377  0.18906  1.0000
  H   H287      1.0  0.47774  0.33236  0.24717  1.0000
  H   H288      1.0  0.45137  0.31515  0.27748  1.0000
  H   H289      1.0  0.45492  0.35425  0.27779  1.0000
  H   H290      1.0  0.61798  0.35041  0.07270  1.0000
  N   N11       1.0  0.62624  0.42706  0.09313  1.0000
  C   C189      1.0  0.62439  0.39856  0.06966  1.0000
  C   C190      1.0  0.59819  0.43341  0.11124  1.0000
  H   H291      1.0  0.63807  0.36422  0.11236  1.0000
  H   H292      1.0  0.64789  0.19686  0.22801  1.0000
  H   H293      1.0  0.39724  0.18603  0.18138  1.0000
  H   H294      1.0  0.39253  0.32354  0.27499  1.0000
  C   C191      1.0  0.46265  0.49707  0.17402  1.0000
  H   H295      1.0  0.59697  0.24910  0.28331  1.0000
  H   H296      1.0  0.59347  0.46779  0.04569  1.0000
  H   H297      1.0  0.44467  0.44884  0.13734  1.0000
  H   H298      1.0  0.47534  0.47645  0.17926  1.0000
  H   H299      1.0  0.37668  0.12726  0.21880  1.0000
  H   H300      1.0  0.35796  0.39174  0.16282  1.0000
  H   H301      1.0  0.35050  0.13196  0.29234  1.0000
  H   H302      1.0  0.62225  0.47932  0.01679  1.0000
  H   H303      1.0  0.40529  0.17461  0.23084  1.0000
  H   H304      1.0  0.41195  0.48406  0.07460  1.0000
  C   C192      1.0  0.36406  0.15168  0.28867  1.0000
  C   C193      1.0  0.64742  0.42415  0.12527  1.0000
  H   H305      1.0  0.42411  0.05714  0.04870  1.0000
  H   H306      1.0  0.59325  0.41641  0.13378  1.0000
  C   C194      1.0  0.37221  0.14807  0.20249  1.0000
  H   H307      1.0  0.64327  0.39536  0.05124  1.0000
  H   H308      1.0  0.62911  0.23262  0.26800  1.0000
  H   H309      1.0  0.59683  0.48312  0.11058  1.0000
  H   H310      1.0  0.62832  0.17391  0.29730  1.0000
  C   C195      1.0  0.49436  0.02045  0.96469  1.0000
  C   C196      1.0  0.47480  0.49327  0.10524  1.0000
  C   C197      1.0  0.49185  0.47708  0.99641  1.0000
  H   H311      1.0  0.59688  0.16164  0.14583  1.0000
  H   H312      1.0  0.60666  0.39978  0.04891  1.0000
  H   H313      1.0  0.38531  0.14417  0.28040  1.0000
  C   C198      1.0  0.62018  0.36951  0.09318  1.0000
  H   H314      1.0  0.60095  0.37036  0.11086  1.0000
  H   H315      1.0  0.46116  0.03737  0.09926  1.0000
  H   H316      1.0  0.60599  0.25062  0.23313  1.0000
  H   H317      1.0  0.41639  0.15233  0.19060  1.0000
  H   H318      1.0  0.36830  0.31198  0.23757  1.0000
  H   H319      1.0  0.37688  0.28751  0.27674  1.0000
  H   H320      1.0  0.35542  0.20827  0.19765  1.0000
  C   C199      1.0  0.35184  0.17471  0.25976  1.0000
  N   N12       1.0  0.34685  0.16360  0.21885  1.0000
  C   C200      1.0  0.67166  0.09693  0.22428  1.0000
  H   H321      1.0  0.65461  0.44628  0.05110  1.0000
  C   C201      1.0  0.41363  0.03654  0.03820  1.0000
  H   H322      1.0  0.42579  0.48224  0.20795  1.0000
  H   H323      1.0  0.45265  0.01714  0.02410  1.0000
  H   H324      1.0  0.45328  0.49740  0.23577  1.0000
  H   H325      1.0  0.66734  0.12064  0.16992  1.0000
  H   H326      1.0  0.42554  0.03643  0.11012  1.0000
  C   C202      1.0  0.43370  0.00944  0.03960  1.0000
  C   C203      1.0  0.48315  0.49520  0.96480  1.0000
  C   C204      1.0  0.45010  0.01202  0.15080  1.0000
  H   H327      1.0  0.55958  0.49789  0.99923  1.0000
  C   C205      1.0  0.53818  0.49689  0.98970  1.0000
  N   N13       1.0  0.45073  0.49662  0.13341  1.0000
  H   H328      1.0  0.40777  0.04084  0.00742  1.0000
  H   H329      1.0  0.46743  0.49406  0.07456  1.0000
  H   H330      1.0  0.39421  0.03300  0.05476  1.0000
  H   H331      1.0  0.39010  0.00756  0.11614  1.0000
  C   C206      1.0  0.36166  0.02013  0.57848  1.0000
  H   H332      1.0  0.42535  0.46511  0.82113  1.0000
  H   H333      1.0  0.40693  0.02708  0.57630  1.0000
  H   H334      1.0  0.46171  0.49448  0.95549  1.0000
  H   H335      1.0  0.34622  0.02927  0.55732  1.0000
  H   H336      1.0  0.45986  0.50147  0.72463  1.0000
  H   H337      1.0  0.38962  0.03324  0.53162  1.0000
  C   C207      1.0  0.45754  0.50094  0.75683  1.0000
  H   H338      1.0  0.45584  0.48643  0.83067  1.0000
  H   H339      1.0  0.66075  0.49650  0.64079  1.0000
  H   H340      1.0  0.46479  0.47856  0.76668  1.0000
  C   C208      1.0  0.39015  0.01822  0.55741  1.0000
  H   H341      1.0  0.41482  0.48712  0.75671  1.0000
  H   H342      1.0  0.39608  0.01070  0.64177  1.0000
  H   H343      1.0  0.43669  0.46627  0.88993  1.0000
  H   H344      1.0  0.38064  0.49088  0.80590  1.0000
  H   H345      1.0  0.40435  0.48537  0.88417  1.0000
  C   C209      1.0  0.42681  0.48659  0.87716  1.0000
  C   C210      1.0  0.43272  0.48686  0.83310  1.0000
  H   H346      1.0  0.64438  0.49428  0.55830  1.0000
  C   C211      1.0  0.66477  0.49921  0.50353  1.0000
  H   H347      1.0  0.64553  0.49304  0.48764  1.0000
  H   H348      1.0  0.36402  0.03776  0.60121  1.0000
  H   H349      1.0  0.47836  0.03618  0.95589  1.0000
  H   H350      1.0  0.55148  0.96391  0.99534  1.0000
  C   C212      1.0  0.53546  0.97964  0.98660  1.0000
  H   H351      1.0  0.45782  0.93892  0.04691  1.0000
  H   H352      1.0  0.42780  0.96077  0.11733  1.0000
  H   H353      1.0  0.43286  0.99857  0.16302  1.0000
  H   H354      1.0  0.43528  0.52940  0.09237  1.0000
  C   C213      1.0  0.49783  0.51713  0.10803  1.0000
  C   C214      1.0  0.40460  0.52771  0.13753  1.0000
  H   H355      1.0  0.46944  0.96787  0.01366  1.0000
  H   H356      1.0  0.51150  0.51536  0.08197  1.0000
  C   C215      1.0  0.43543  0.52547  0.12443  1.0000
  C   C216      1.0  0.42018  0.97403  0.09198  1.0000
  H   H357      1.0  0.43192  0.52250  0.20862  1.0000
  H   H358      1.0  0.48940  0.54027  0.10859  1.0000
  H   H359      1.0  0.39874  0.51345  0.16244  1.0000
  H   H360      1.0  0.44660  0.54489  0.13725  1.0000
  H   H361      1.0  0.47008  0.99971  0.15368  1.0000
  H   H362      1.0  0.37761  0.98650  0.07473  1.0000
  H   H363      1.0  0.40003  0.55117  0.14648  1.0000
  C   C217      1.0  0.39058  0.98555  0.10142  1.0000
  H   H364      1.0  0.47706  0.51619  0.17786  1.0000
  H   H365      1.0  0.39047  0.52325  0.11269  1.0000
  C   C218      1.0  0.46918  0.98154  0.07585  1.0000
  H   H366      1.0  0.42483  0.99168  0.02062  1.0000
  H   H367      1.0  0.48596  0.99828  0.07122  1.0000
  H   H368      1.0  0.41746  0.95676  0.06898  1.0000
  H   H369      1.0  0.49366  0.94863  0.04368  1.0000
  N   N14       1.0  0.44115  0.99698  0.07922  1.0000
  H   H370      1.0  0.47470  0.96971  0.10327  1.0000
  C   C219      1.0  0.47217  0.95799  0.04304  1.0000
  H   H371      1.0  0.38067  0.97006  0.12255  1.0000
  H   H372      1.0  0.51142  0.51314  0.13363  1.0000
  Fe  Fe33      1.0  0.49332  0.58689  0.77604  1.0000
  S   S67       1.0  0.48298  0.60612  0.83497  1.0000
  S   S68       1.0  0.46344  0.57721  0.72557  1.0000
  Fe  Fe34      1.0  0.52325  0.63178  0.82880  1.0000
  S   S69       1.0  0.53905  0.67945  0.83862  1.0000
  Fe  Fe35      1.0  0.50924  0.56778  0.85913  1.0000
  S   S70       1.0  0.48943  0.53671  0.90546  1.0000
  S   S71       1.0  0.53165  0.61510  0.76798  1.0000
  S   S72       1.0  0.51813  0.54792  0.80003  1.0000
  Fe  Fe36      1.0  0.49550  0.90532  0.78432  1.0000
  S   S73       1.0  0.48069  0.89581  0.84541  1.0000
  S   S74       1.0  0.47118  0.91488  0.72819  1.0000
  Fe  Fe37      1.0  0.52120  0.91655  0.86535  1.0000
  S   S75       1.0  0.53009  0.94278  0.92217  1.0000
  Fe  Fe38      1.0  0.50494  0.85250  0.83980  1.0000
  S   S76       1.0  0.48279  0.80891  0.85469  1.0000
  S   S77       1.0  0.53465  0.92911  0.80400  1.0000
  S   S78       1.0  0.51740  0.86101  0.77823  1.0000
  H   H373      1.0  0.65477  0.55657  0.59686  1.0000
  H   H374      1.0  0.66184  0.70074  0.82080  1.0000
  C   C220      1.0  0.59639  0.65572  0.76460  1.0000
  C   C221      1.0  0.52227  0.71499  0.84075  1.0000
  C   C222      1.0  0.49404  0.71827  0.84991  1.0000
  C   C223      1.0  0.48227  0.74714  0.85426  1.0000
  C   C224      1.0  0.49838  0.77299  0.84851  1.0000
  H   H375      1.0  0.48153  0.69860  0.85493  1.0000
  H   H376      1.0  0.46071  0.74937  0.86278  1.0000
  C   C225      1.0  0.36928  0.59519  0.71121  1.0000
  C   C226      1.0  0.38403  0.57817  0.68377  1.0000
  C   C227      1.0  0.41293  0.57344  0.68824  1.0000
  C   C228      1.0  0.42739  0.58556  0.72014  1.0000
  C   C229      1.0  0.41271  0.60304  0.74714  1.0000
  C   C230      1.0  0.38384  0.60779  0.74265  1.0000
  H   H377      1.0  0.35869  0.97955  0.51274  1.0000
  H   H378      1.0  0.42411  0.55991  0.66715  1.0000
  H   H379      1.0  0.42353  0.61268  0.77167  1.0000
  H   H380      1.0  0.37264  0.62107  0.76399  1.0000
  C   C231      1.0  0.37636  0.92466  0.70971  1.0000
  C   C232      1.0  0.38868  0.93430  0.74463  1.0000
  C   C233      1.0  0.41742  0.93033  0.75138  1.0000
  C   C234      1.0  0.43442  0.91753  0.72267  1.0000
  C   C235      1.0  0.42215  0.90796  0.68764  1.0000
  C   C236      1.0  0.39321  0.91095  0.68146  1.0000
  H   H381      1.0  0.37592  0.94517  0.76656  1.0000
  H   H382      1.0  0.42657  0.93820  0.77824  1.0000
  H   H383      1.0  0.43511  0.89823  0.66510  1.0000
  H   H384      1.0  0.38411  0.90344  0.65442  1.0000
  Fe  Fe39      1.0  0.55553  0.57803  0.79676  1.0000
  S   S79       1.0  0.54843  0.59516  0.85780  1.0000
  S   S80       1.0  0.60038  0.56394  0.78209  1.0000
  Fe  Fe40      1.0  0.55539  0.88377  0.80174  1.0000
  S   S81       1.0  0.54428  0.87206  0.86365  1.0000
  S   S82       1.0  0.59693  0.86847  0.77492  1.0000
  C   C237      1.0  0.39770  0.65785  0.64992  1.0000
  C   C238      1.0  0.67584  0.66872  0.75726  1.0000
  C   C239      1.0  0.52645  0.76968  0.83850  1.0000
  C   C240      1.0  0.53837  0.74085  0.83512  1.0000
  H   H385      1.0  0.53915  0.78933  0.83426  1.0000
  H   H386      1.0  0.56027  0.73860  0.82843  1.0000
  C   C241      1.0  0.65928  0.59306  0.68277  1.0000
  C   C242      1.0  0.63039  0.59784  0.67953  1.0000
  C   C243      1.0  0.61200  0.58865  0.70923  1.0000
  C   C244      1.0  0.62233  0.57460  0.74269  1.0000
  C   C245      1.0  0.65116  0.56916  0.74544  1.0000
  H   H387      1.0  0.55570  0.96020  0.73377  1.0000
  H   H388      1.0  0.62218  0.60905  0.65405  1.0000
  H   H389      1.0  0.58986  0.59264  0.70641  1.0000
  H   H390      1.0  0.65937  0.55811  0.77103  1.0000
  H   H391      1.0  0.62253  0.71289  0.75992  1.0000
  C   C246      1.0  0.64549  0.66059  0.74818  1.0000
  C   C247      1.0  0.64463  0.93291  0.72320  1.0000
  C   C248      1.0  0.62346  0.91886  0.74496  1.0000
  C   C249      1.0  0.62306  0.88762  0.74827  1.0000
  C   C250      1.0  0.64395  0.87071  0.72947  1.0000
  C   C251      1.0  0.66496  0.88472  0.70749  1.0000
  C   C252      1.0  0.60986  0.65086  0.84878  1.0000
  H   H392      1.0  0.60761  0.93216  0.75943  1.0000
  H   H393      1.0  0.64375  0.84654  0.73168  1.0000
  H   H394      1.0  0.39896  0.68664  0.59969  1.0000
  H   H395      1.0  0.37035  0.94712  0.54109  1.0000
  C   C253      1.0  0.35974  0.72367  0.56408  1.0000
  H   H396      1.0  0.36641  0.85142  0.70115  1.0000
  H   H397      1.0  0.61571  0.92149  0.64970  1.0000
  H   H398      1.0  0.42010  0.52602  0.74926  1.0000
  C   C254      1.0  0.42167  0.55850  0.85742  1.0000
  H   H399      1.0  0.35170  0.53790  0.79923  1.0000
  H   H400      1.0  0.37314  0.56827  0.65948  1.0000
  H   H401      1.0  0.41740  0.64963  0.63654  1.0000
  H   H402      1.0  0.62997  0.51127  0.61673  1.0000
  C   C255      1.0  0.62138  0.69993  0.78756  1.0000
  H   H403      1.0  0.38550  0.88243  0.81949  1.0000
  H   H404      1.0  0.40331  0.66712  0.67888  1.0000
  H   H405      1.0  0.47122  0.51852  0.76857  1.0000
  H   H406      1.0  0.64541  0.63642  0.74054  1.0000
  H   H407      1.0  0.44143  0.86493  0.76679  1.0000
  C   C256      1.0  0.36957  0.62446  0.58043  1.0000
  H   H408      1.0  0.55094  0.84929  0.70705  1.0000
  H   H409      1.0  0.49897  0.94338  0.60113  1.0000
  H   H410      1.0  0.56469  0.66171  0.72015  1.0000
  H   H411      1.0  0.53506  0.94721  0.58944  1.0000
  C   C257      1.0  0.37394  0.53714  0.79036  1.0000
  H   H412      1.0  0.42298  0.88537  0.81876  1.0000
  H   H413      1.0  0.38253  0.55973  0.79524  1.0000
  C   C258      1.0  0.40523  0.87247  0.83033  1.0000
  H   H414      1.0  0.40532  0.87544  0.86245  1.0000
  H   H415      1.0  0.60449  0.67432  0.85639  1.0000
  C   C259      1.0  0.52957  0.51471  0.95777  1.0000
  H   H416      1.0  0.40830  0.97418  0.65551  1.0000
  H   H417      1.0  0.54430  0.52910  0.94318  1.0000
  H   H418      1.0  0.38453  0.63818  0.65514  1.0000
  H   H419      1.0  0.59054  0.63869  0.84167  1.0000
  H   H420      1.0  0.38419  0.70354  0.64168  1.0000
  C   C260      1.0  0.66811  0.53706  0.60475  1.0000
  H   H421      1.0  0.64167  0.53079  0.53866  1.0000
  H   H422      1.0  0.56378  0.85396  0.65900  1.0000
  H   H423      1.0  0.39950  0.83394  0.69525  1.0000
  C   C261      1.0  0.58677  0.66798  0.72479  1.0000
  H   H424      1.0  0.37427  0.53201  0.75873  1.0000
  N   N15       1.0  0.62407  0.66679  0.77940  1.0000
  H   H425      1.0  0.38084  0.72948  0.57447  1.0000
  H   H426      1.0  0.45669  0.53838  0.82723  1.0000
  C   C262      1.0  0.63102  0.64855  0.81510  1.0000
  H   H427      1.0  0.60037  0.70506  0.79996  1.0000
  H   H428      1.0  0.51978  0.96765  0.62999  1.0000
  H   H429      1.0  0.54281  0.98668  0.69867  1.0000
  H   H430      1.0  0.64493  0.95709  0.72113  1.0000
  H   H431      1.0  0.50995  0.91996  0.66458  1.0000
  H   H432      1.0  0.58780  0.69273  0.72330  1.0000
  C   C263      1.0  0.64251  0.71373  0.81630  1.0000
  H   H433      1.0  0.52135  0.89875  0.62456  1.0000
  C   C264      1.0  0.52003  0.94609  0.61390  1.0000
  C   C265      1.0  0.37339  0.97278  0.61514  1.0000
  C   C266      1.0  0.43405  0.54178  0.82172  1.0000
  H   H434      1.0  0.40900  0.54493  0.87743  1.0000
  H   H435      1.0  0.63293  0.62432  0.80733  1.0000
  N   N16       1.0  0.41095  0.83063  0.77830  1.0000
  C   C267      1.0  0.40753  0.83866  0.82086  1.0000
  C   C268      1.0  0.40681  0.79729  0.77471  1.0000
  C   C269      1.0  0.38868  0.84720  0.75578  1.0000
  C   C270      1.0  0.43969  0.84018  0.76590  1.0000
  C   C271      1.0  0.42820  0.77758  0.79635  1.0000
  H   H436      1.0  0.39617  0.99585  0.54648  1.0000
  C   C272      1.0  0.44984  0.83076  0.72503  1.0000
  H   H437      1.0  0.38861  0.82797  0.83333  1.0000
  H   H438      1.0  0.42532  0.82998  0.83838  1.0000
  H   H439      1.0  0.40714  0.78966  0.74405  1.0000
  H   H440      1.0  0.38573  0.79111  0.78555  1.0000
  C   C273      1.0  0.66957  0.57837  0.71573  1.0000
  H   H441      1.0  0.39435  0.87112  0.75237  1.0000
  H   H442      1.0  0.45576  0.83285  0.78718  1.0000
  H   H443      1.0  0.44979  0.78173  0.78630  1.0000
  H   H444      1.0  0.42688  0.78065  0.82833  1.0000
  H   H445      1.0  0.42378  0.75361  0.79049  1.0000
  H   H446      1.0  0.36434  0.95165  0.62669  1.0000
  H   H447      1.0  0.52459  0.95278  0.70704  1.0000
  H   H448      1.0  0.65153  0.65425  0.82742  1.0000
  H   H449      1.0  0.44512  0.84850  0.70336  1.0000
  H   H450      1.0  0.44161  0.80918  0.71475  1.0000
  H   H451      1.0  0.47278  0.82753  0.72578  1.0000
  N   N17       1.0  0.55505  0.91797  0.65793  1.0000
  C   C274      1.0  0.57478  0.90825  0.62598  1.0000
  C   C275      1.0  0.52604  0.91948  0.64127  1.0000
  C   C276      1.0  0.55518  0.89610  0.69125  1.0000
  C   C277      1.0  0.56431  0.94797  0.67306  1.0000
  C   C278      1.0  0.60501  0.90136  0.63851  1.0000
  H   H452      1.0  0.53969  0.90279  0.71386  1.0000
  C   C279      1.0  0.54885  0.86331  0.68049  1.0000
  H   H453      1.0  0.38263  0.51609  0.84491  1.0000
  H   H454      1.0  0.56690  0.88809  0.61057  1.0000
  H   H455      1.0  0.57618  0.92579  0.60310  1.0000
  C   C280      1.0  0.64985  0.51713  0.63108  1.0000
  C   C281      1.0  0.50060  0.99559  0.94049  1.0000
  H   H456      1.0  0.57539  0.89648  0.70660  1.0000
  C   C282      1.0  0.38425  0.68250  0.62417  1.0000
  H   H457      1.0  0.58541  0.94613  0.68614  1.0000
  H   H458      1.0  0.56712  0.96435  0.64895  1.0000
  H   H459      1.0  0.60637  0.88306  0.66022  1.0000
  H   H460      1.0  0.61709  0.89374  0.61267  1.0000
  H   H461      1.0  0.52721  0.86082  0.66986  1.0000
  H   H462      1.0  0.59878  0.65775  0.70048  1.0000
  H   H463      1.0  0.40951  0.57844  0.84792  1.0000
  H   H464      1.0  0.57943  0.66142  0.78533  1.0000
  H   H465      1.0  0.43306  0.55799  0.79722  1.0000
  H   H466      1.0  0.61866  0.63999  0.87513  1.0000
  H   H467      1.0  0.64049  0.67292  0.72094  1.0000
  C   C283      1.0  0.54566  0.96243  0.70481  1.0000
  H   H468      1.0  0.59626  0.63086  0.76274  1.0000
  C   C284      1.0  0.50192  0.51411  0.94506  1.0000
  H   H469      1.0  0.39240  0.62597  0.58437  1.0000
  H   H470      1.0  0.64883  0.73609  0.80531  1.0000
  H   H471      1.0  0.43896  0.56754  0.87520  1.0000
  H   H472      1.0  0.63244  0.71804  0.84495  1.0000
  C   C285      1.0  0.66555  0.91595  0.70446  1.0000
  H   H473      1.0  0.36864  0.84721  0.77225  1.0000
  C   C286      1.0  0.38133  0.83547  0.71486  1.0000
  H   H474      1.0  0.36820  0.66541  0.54960  1.0000
  H   H475      1.0  0.36631  0.61082  0.55377  1.0000
  C   C287      1.0  0.52126  0.97492  0.95123  1.0000
  H   H476      1.0  0.37053  0.81360  0.71628  1.0000
  C   C288      1.0  0.65664  0.51205  0.54361  1.0000
  H   H477      1.0  0.64426  0.52996  0.65778  1.0000
  C   C289      1.0  0.42680  0.50672  0.76752  1.0000
  H   H478      1.0  0.36095  0.71207  0.53560  1.0000
  H   H479      1.0  0.34868  0.74521  0.55853  1.0000
  C   C290      1.0  0.35627  0.65562  0.57411  1.0000
  H   H480      1.0  0.38917  0.96511  0.59383  1.0000
  N   N18       1.0  0.42063  0.51261  0.81008  1.0000
  H   H481      1.0  0.36019  0.61167  0.60465  1.0000
  C   C291      1.0  0.38937  0.98767  0.64886  1.0000
  N   N19       1.0  0.35549  0.67664  0.60855  1.0000
  H   H482      1.0  0.35517  0.68033  0.69340  1.0000
  H   H483      1.0  0.48947  0.99246  0.91349  1.0000
  H   H484      1.0  0.37669  0.98802  0.67595  1.0000
  H   H485      1.0  0.66604  0.56943  0.51544  1.0000
  H   H486      1.0  0.43658  0.50587  0.89193  1.0000
  C   C292      1.0  0.38936  0.51301  0.81437  1.0000
  H   H487      1.0  0.66091  0.92639  0.84749  1.0000
  N   N20       1.0  0.35085  0.99170  0.59673  1.0000
  C   C293      1.0  0.35231  0.96112  0.53238  1.0000
  H   H488      1.0  0.67577  0.51575  0.48512  1.0000
  C   C294      1.0  0.34294  0.70589  0.59458  1.0000
  Fe  Fe41      1.0  0.76851  0.41272  0.35843  1.0000
  S   S83       1.0  0.76387  0.44290  0.30644  1.0000
  S   S84       1.0  0.77943  0.42928  0.42025  1.0000
  Fe  Fe42      1.0  0.76167  0.35555  0.30847  1.0000
  S   S85       1.0  0.75658  0.38301  0.25392  1.0000
  S   S86       1.0  0.75884  0.30627  0.29064  1.0000
  Fe  Fe43      1.0  0.79242  0.41018  0.27562  1.0000
  S   S87       1.0  0.82473  0.42375  0.22992  1.0000
  Fe  Fe44      1.0  0.72840  0.41276  0.28879  1.0000
  H   H489      1.0  0.76114  0.09696  0.41943  1.0000
  S   S88       1.0  0.79925  0.38134  0.32817  1.0000
  S   S89       1.0  0.73123  0.38418  0.34277  1.0000
  Fe  Fe45      1.0  0.76461  0.06869  0.34939  1.0000
  S   S90       1.0  0.76264  0.05912  0.28469  1.0000
  S   S91       1.0  0.75033  0.03343  0.39446  1.0000
  Fe  Fe46      1.0  0.77767  0.13498  0.33482  1.0000
  S   S92       1.0  0.77666  0.12977  0.27016  1.0000
  S   S93       1.0  0.78691  0.17884  0.36616  1.0000
  Fe  Fe47      1.0  0.73817  0.10209  0.27928  1.0000
  S   S94       1.0  0.70459  0.11313  0.23401  1.0000
  Fe  Fe48      1.0  0.80133  0.08747  0.27941  1.0000
  S   S95       1.0  0.83256  0.07719  0.23046  1.0000
  S   S96       1.0  0.73751  0.11032  0.34391  1.0000
  S   S97       1.0  0.80503  0.09410  0.34443  1.0000
  H   H490      1.0  0.75373  0.15126  0.42864  1.0000
  C   C295      1.0  0.76310  0.01266  0.43546  1.0000
  H   H491      1.0  0.73515  0.03438  0.20793  1.0000
  H   H492      1.0  0.79281  0.32257  0.15358  1.0000
  Fe  Fe49      1.0  0.99247  0.08407  0.16290  1.0000
  S   S98       1.0  0.96545  0.07956  0.21760  1.0000
  S   S99       1.0  0.97605  0.08960  0.10234  1.0000
  N   N21       1.0  0.84520  0.48769  0.33916  1.0000
  H   H493      1.0  0.95012  0.14518  0.25376  1.0000
  C   C296      1.0  0.83213  0.45799  0.34872  1.0000
  H   H494      1.0  0.95825  0.20321  0.24285  1.0000
  Fe  Fe50      1.0  0.98642  0.39718  0.16080  1.0000
  S   S100      1.0  0.95532  0.39777  0.21204  1.0000
  S   S101      1.0  0.98105  0.37319  0.10336  1.0000
  H   H495      1.0  0.96630  0.24363  0.20118  1.0000
  C   C297      1.0  0.83957  0.31835  0.28364  1.0000
  C   C298      1.0  0.80751  0.27825  0.21286  1.0000
  H   H496      1.0  0.98462  0.19208  0.20932  1.0000
  N   N22       1.0  0.84045  0.32439  0.20892  1.0000
  H   H497      1.0  0.83997  0.33973  0.14885  1.0000
  C   C299      1.0  0.86951  0.07950  0.22773  1.0000
  C   C300      1.0  0.88620  0.08262  0.26078  1.0000
  C   C301      1.0  0.91550  0.08258  0.25714  1.0000
  C   C302      1.0  0.92845  0.07987  0.22046  1.0000
  C   C303      1.0  0.91172  0.07754  0.18733  1.0000
  C   C304      1.0  0.88247  0.07715  0.19102  1.0000
  H   H498      1.0  0.87660  0.08433  0.28921  1.0000
  H   H499      1.0  0.92822  0.08440  0.28296  1.0000
  H   H500      1.0  0.92134  0.07532  0.15896  1.0000
  H   H501      1.0  0.86981  0.07463  0.16525  1.0000
  C   C305      1.0  0.91897  0.40514  0.21622  1.0000
  C   C306      1.0  0.90591  0.40147  0.25271  1.0000
  C   C307      1.0  0.87709  0.40681  0.25750  1.0000
  C   C308      1.0  0.86104  0.41630  0.22584  1.0000
  C   C309      1.0  0.87411  0.42023  0.18950  1.0000
  C   C310      1.0  0.90282  0.41445  0.18459  1.0000
  H   H502      1.0  0.91822  0.39427  0.27737  1.0000
  H   H503      1.0  0.86736  0.40360  0.28558  1.0000
  H   H504      1.0  0.86194  0.42774  0.16486  1.0000
  H   H505      1.0  0.91255  0.41753  0.15643  1.0000
  C   C311      1.0  0.76680  0.27138  0.31298  1.0000
  C   C312      1.0  0.76084  0.24497  0.29238  1.0000
  C   C313      1.0  0.76688  0.21660  0.30830  1.0000
  C   C314      1.0  0.77908  0.21427  0.34509  1.0000
  C   C315      1.0  0.78522  0.24068  0.36570  1.0000
  C   C316      1.0  0.77913  0.26914  0.34975  1.0000
  H   H506      1.0  0.75130  0.24645  0.26395  1.0000
  H   H507      1.0  0.76195  0.19654  0.29215  1.0000
  H   H508      1.0  0.79467  0.23914  0.39418  1.0000
  H   H509      1.0  0.78385  0.28927  0.36591  1.0000
  C   C317      1.0  0.76346  0.48962  0.42834  1.0000
  S   S102      1.0  0.68879  0.43439  0.26403  1.0000
  C   C318      1.0  0.79838  0.34367  0.16861  1.0000
  C   C319      1.0  0.75860  0.14990  0.46036  1.0000
  C   C320      1.0  0.86812  0.48244  0.30978  1.0000
  H   H510      1.0  0.80394  0.07607  0.11995  1.0000
  C   C321      1.0  0.99884  0.26292  0.08516  1.0000
  H   H511      1.0  0.81479  0.47701  0.27372  1.0000
  N   N23       1.0  0.75044  0.05539  0.15536  1.0000
  C   C322      1.0  0.72113  0.06456  0.14456  1.0000
  C   C323      1.0  0.76642  0.04763  0.11870  1.0000
  H   H512      1.0  0.85814  0.44393  0.39904  1.0000
  H   H513      1.0  0.80003  0.13021  0.41726  1.0000
  H   H514      1.0  0.96927  0.20583  0.14683  1.0000
  H   H515      1.0  0.82943  0.35833  0.25147  1.0000
  H   H516      1.0  0.80514  0.25563  0.19986  1.0000
  H   H517      1.0  0.77112  0.07432  0.45873  1.0000
  H   H518      1.0  0.70952  0.07227  0.17078  1.0000
  H   H519      1.0  0.72119  0.08391  0.12416  1.0000
  C   C324      1.0  0.82384  0.09906  0.45145  1.0000
  C   C325      1.0  0.76061  0.09580  0.45177  1.0000
  H   H520      1.0  0.83002  0.48361  0.42120  1.0000
  H   H521      1.0  0.76748  0.11041  0.12591  1.0000
  C   C326      1.0  0.77587  0.01538  0.19734  1.0000
  C   C327      1.0  0.79834  0.05202  0.11949  1.0000
  H   H522      1.0  0.75279  0.08379  0.20627  1.0000
  H   H523      1.0  0.84175  0.10354  0.43180  1.0000
  H   H524      1.0  0.81278  0.46120  0.36609  1.0000
  C   C328      1.0  0.76201  0.11181  0.15720  1.0000
  H   H525      1.0  0.87572  0.35235  0.22284  1.0000
  C   C329      1.0  0.98906  0.23420  0.07503  1.0000
  S   S103      1.0  0.00430  0.01709  0.04530  1.0000
  C   C330      1.0  0.74833  0.02867  0.18210  1.0000
  H   H526      1.0  0.86056  0.46932  0.28438  1.0000
  H   H527      1.0  0.80606  0.02491  0.42931  1.0000
  C   C331      1.0  0.87144  0.32932  0.21233  1.0000
  C   C332      1.0  0.88872  0.32483  0.17481  1.0000
  H   H528      1.0  0.88077  0.31405  0.23441  1.0000
  H   H529      1.0  0.83666  0.28834  0.16695  1.0000
  H   H530      1.0  0.85187  0.27714  0.21141  1.0000
  H   H531      1.0  0.88374  0.30360  0.15971  1.0000
  H   H532      1.0  0.88609  0.34408  0.15465  1.0000
  H   H533      1.0  0.91119  0.32419  0.18247  1.0000
  N   N24       1.0  0.94250  0.18452  0.18888  1.0000
  C   C333      1.0  0.94878  0.20977  0.16106  1.0000
  C   C334      1.0  0.94541  0.15573  0.16612  1.0000
  C   C335      1.0  0.96384  0.18562  0.22114  1.0000
  C   C336      1.0  0.91350  0.18930  0.20472  1.0000
  H   H534      1.0  0.83845  0.41509  0.37734  1.0000
  C   C337      1.0  0.92419  0.15120  0.13303  1.0000
  H   H535      1.0  0.78947  0.03220  0.21113  1.0000
  C   C338      1.0  0.90085  0.16376  0.22911  1.0000
  C   C339      1.0  0.80332  0.12558  0.44877  1.0000
  H   H536      1.0  0.93332  0.21086  0.13705  1.0000
  H   H537      1.0  0.94388  0.13573  0.18493  1.0000
  H   H538      1.0  0.96658  0.15402  0.15304  1.0000
  H   H539      1.0  0.74104  0.12217  0.16044  1.0000
  C   C340      1.0  0.94983  0.24154  0.17881  1.0000
  H   H540      1.0  0.91281  0.20936  0.22391  1.0000
  H   H541      1.0  0.89852  0.19504  0.18114  1.0000
  H   H542      1.0  0.98161  0.16169  0.27054  1.0000
  H   H543      1.0  0.80755  0.04242  0.09250  1.0000
  H   H544      1.0  0.95519  0.25766  0.15533  1.0000
  H   H545      1.0  0.92767  0.16694  0.10857  1.0000
  H   H546      1.0  0.92701  0.12835  0.12084  1.0000
  H   H547      1.0  0.90239  0.15267  0.14347  1.0000
  H   H548      1.0  0.68411  0.05112  0.11291  1.0000
  H   H549      1.0  0.67719  0.37135  0.24672  1.0000
  H   H550      1.0  0.76264  0.02392  0.11023  1.0000
  H   H551      1.0  0.90646  0.16594  0.26033  1.0000
  H   H552      1.0  0.90658  0.14116  0.21872  1.0000
  H   H553      1.0  0.87780  0.16455  0.22663  1.0000
  H   H554      1.0  0.98203  0.14070  0.22655  1.0000
  H   H555      1.0  0.78531  0.34694  0.19481  1.0000
  C   C341      1.0  0.76315  0.08102  0.17753  1.0000
  H   H556      1.0  0.85891  0.32970  0.29307  1.0000
  H   H557      1.0  0.86882  0.42792  0.35274  1.0000
  H   H558      1.0  0.82531  0.44639  0.32178  1.0000
  H   H559      1.0  0.80469  0.32980  0.24739  1.0000
  H   H560      1.0  0.79299  0.36224  0.14840  1.0000
  H   H561      1.0  0.88504  0.46845  0.32250  1.0000
  H   H562      1.0  0.77695  0.12712  0.17159  1.0000
  H   H563      1.0  0.98772  0.28277  0.07575  1.0000
  H   H564      1.0  0.84402  0.29423  0.27904  1.0000
  H   H565      1.0  0.75594  0.48840  0.39872  1.0000
  H   H566      1.0  0.75885  0.06117  0.09356  1.0000
  C   C342      1.0  0.82976  0.34479  0.17719  1.0000
  S   S104      1.0  0.00074  0.42847  0.01505  1.0000
  C   C343      1.0  0.82742  0.33370  0.24709  1.0000
  H   H567      1.0  0.78900  0.29153  0.20439  1.0000
  H   H568      1.0  0.71415  0.02907  0.10050  1.0000
  S   S105      1.0  0.98967  0.17244  0.07467  1.0000
  H   H569      1.0  0.83498  0.36851  0.18389  1.0000
  C   C344      1.0  0.00490  0.49109  0.00713  1.0000
  C   C345      1.0  0.83533  0.29189  0.19900  1.0000
  H   H570      1.0  0.82437  0.32016  0.30799  1.0000
  H   H571      1.0  0.78517  0.07654  0.18474  1.0000
  H   H572      1.0  0.80706  0.27512  0.24487  1.0000
  C   C346      1.0  0.77535  0.46417  0.44558  1.0000
  C   C347      1.0  0.70318  0.04035  0.12492  1.0000
  C   C348      1.0  0.00482  0.46304  0.98881  1.0000
  C   C349      1.0  0.85083  0.43535  0.37063  1.0000
  C   C350      1.0  0.85745  0.50193  0.37502  1.0000
  Fe  Fe51      1.0  0.00640  0.12789  0.09802  1.0000
  H   H573      1.0  0.97022  0.23218  0.05808  1.0000
  H   H574      1.0  0.69015  0.41246  0.13910  1.0000
  H   H575      1.0  0.87623  0.48941  0.38501  1.0000
  H   H576      1.0  0.69586  0.02354  0.14637  1.0000
  C   C351      1.0  0.96927  0.15653  0.24411  1.0000
  H   H577      1.0  0.92945  0.24871  0.19091  1.0000
  H   H578      1.0  0.00338  0.49230  0.03852  1.0000
  C   C352      1.0  0.81189  0.50064  0.28230  1.0000
  H   H579      1.0  0.68706  0.43309  0.09488  1.0000
  H   H580      1.0  0.81479  0.07767  0.44154  1.0000
  H   H581      1.0  0.81487  0.14516  0.46025  1.0000
  H   H582      1.0  0.73783  0.00967  0.16746  1.0000
  C   C353      1.0  0.79115  0.01252  0.44640  1.0000
  H   H583      1.0  0.80869  0.04084  0.14430  1.0000
  C   C354      1.0  0.00348  0.20812  0.08661  1.0000
  Fe  Fe52      1.0  0.00753  0.41077  0.07796  1.0000
  H   H584      1.0  0.78904  0.18626  0.45255  1.0000
  H   H585      1.0  0.71639  0.10795  0.44670  1.0000
  H   H586      1.0  0.72278  0.06943  0.45753  1.0000
  C   C355      1.0  0.67718  0.41531  0.11255  1.0000
  H   H587      1.0  0.67794  0.39371  0.09669  1.0000
  H   H588      1.0  0.91423  0.45977  0.87601  1.0000
  H   H589      1.0  0.76373  0.07441  0.52797  1.0000
  H   H590      1.0  0.79750  0.13287  0.52243  1.0000
  C   C356      1.0  0.77938  0.11941  0.51266  1.0000
  C   C357      1.0  0.96177  0.00710  0.85383  1.0000
  C   C358      1.0  0.72982  0.09257  0.46392  1.0000
  H   H591      1.0  0.79436  0.44706  0.49791  1.0000
  C   C359      1.0  0.78325  0.08748  0.52942  1.0000
  H   H592      1.0  0.76119  0.12914  0.52853  1.0000
  H   H593      1.0  0.96310  0.04474  0.81148  1.0000
  H   H594      1.0  0.98565  0.48162  0.83298  1.0000
  H   H595      1.0  0.79997  0.07445  0.51499  1.0000
  C   C360      1.0  0.69756  0.49552  0.58262  1.0000
  H   H596      1.0  0.78882  0.08915  0.56072  1.0000
  C   C361      1.0  0.78498  0.46646  0.48422  1.0000
  H   H597      1.0  0.67736  0.47847  0.50631  1.0000
  H   H598      1.0  0.68460  0.47501  0.58486  1.0000
  H   H599      1.0  0.90903  0.00992  0.82626  1.0000
  C   C362      1.0  0.96295  0.47878  0.83763  1.0000
  H   H600      1.0  0.95402  0.47368  0.80867  1.0000
  C   C363      1.0  0.92913  0.47851  0.93000  1.0000
  H   H601      1.0  0.96047  0.45948  0.85760  1.0000
  C   C364      1.0  0.78267  0.49358  0.50539  1.0000
  C   C365      1.0  0.97695  0.03174  0.83095  1.0000
  H   H602      1.0  0.90848  0.48045  0.81484  1.0000
  H   H603      1.0  0.94699  0.01839  0.87428  1.0000
  H   H604      1.0  0.77891  0.18001  0.50289  1.0000
  C   C366      1.0  0.91280  0.48165  0.89154  1.0000
  N   N25       1.0  0.77564  0.12213  0.46910  1.0000
  C   C367      1.0  0.72371  0.48725  0.55860  1.0000
  H   H605      1.0  0.70575  0.49927  0.61260  1.0000
  H   H606      1.0  0.98564  0.04799  0.85215  1.0000
  H   H607      1.0  0.89051  0.48313  0.90014  1.0000
  C   C368      1.0  0.00672  0.46227  0.94779  1.0000
  H   H608      1.0  0.95061  0.48689  0.92870  1.0000
  H   H609      1.0  0.93171  0.01569  0.78731  1.0000
  H   H610      1.0  0.73216  0.46540  0.56878  1.0000
  C   C369      1.0  0.77169  0.18003  0.47227  1.0000
  H   H611      1.0  0.73811  0.14920  0.47548  1.0000
  H   H612      1.0  0.71979  0.48514  0.52702  1.0000
  H   H613      1.0  0.75579  0.19809  0.46930  1.0000
  H   H614      1.0  0.72649  0.09682  0.49538  1.0000
  H   H615      1.0  0.83259  0.09694  0.48114  1.0000
  H   H616      1.0  0.86283  0.49153  0.84932  1.0000
  H   H617      1.0  0.91800  0.48989  0.95430  1.0000
  C   C370      1.0  0.00876  0.48888  0.92554  1.0000
  H   H618      1.0  0.00683  0.44082  0.93313  1.0000
  H   H619      1.0  0.79029  0.49479  0.53495  1.0000
  H   H620      1.0  0.93142  0.45441  0.93753  1.0000
  H   H621      1.0  0.99508  0.02256  0.81476  1.0000
  H   H622      1.0  0.86413  0.50282  0.79948  1.0000
  C   C371      1.0  0.90474  0.50319  0.82717  1.0000
  H   H623      1.0  0.77156  0.82084  0.39913  1.0000
  H   H624      1.0  0.75178  0.53616  0.43584  1.0000
  H   H625      1.0  0.74559  0.84985  0.40405  1.0000
  H   H626      1.0  0.82123  0.51543  0.25991  1.0000
  C   C372      1.0  0.78504  0.85874  0.43405  1.0000
  H   H627      1.0  0.75268  0.82354  0.44277  1.0000
  H   H628      1.0  0.80459  0.50896  0.34322  1.0000
  C   C373      1.0  0.76219  0.83731  0.41969  1.0000
  H   H629      1.0  0.82268  0.90624  0.42816  1.0000
  H   H630      1.0  0.80556  0.84737  0.42994  1.0000
  H   H631      1.0  0.83073  0.53176  0.32216  1.0000
  H   H632      1.0  0.86501  0.52487  0.36842  1.0000
  H   H633      1.0  0.86752  0.52618  0.27925  1.0000
  H   H634      1.0  0.78559  0.87725  0.41236  1.0000
  C   C374      1.0  0.00631  0.51774  0.98479  1.0000
  C   C375      1.0  0.76114  0.51675  0.44955  1.0000
  H   H635      1.0  0.81936  0.52001  0.40333  1.0000
  H   H636      1.0  0.00595  0.53917  0.99949  1.0000
  H   H637      1.0  0.78914  0.50523  0.28127  1.0000
  H   H638      1.0  0.99539  0.95832  0.01360  1.0000
  C   C376      1.0  0.82295  0.50834  0.32334  1.0000
  C   C377      1.0  0.88233  0.51077  0.29382  1.0000
  H   H639      1.0  0.79946  0.93078  0.45511  1.0000
  H   H640      1.0  0.84874  0.51625  0.43451  1.0000
  H   H641      1.0  0.72292  0.86541  0.45965  1.0000
  C   C378      1.0  0.74426  0.99569  0.45781  1.0000
  C   C379      1.0  0.81638  0.91397  0.45760  1.0000
  H   H642      1.0  0.89793  0.50389  0.27152  1.0000
  H   H643      1.0  0.75806  0.90826  0.45034  1.0000
  H   H644      1.0  0.89381  0.52290  0.31686  1.0000
  H   H645      1.0  0.72251  0.99553  0.44975  1.0000
  C   C380      1.0  0.00516  0.97135  0.99087  1.0000
  C   C381      1.0  0.83748  0.50542  0.41011  1.0000
  H   H646      1.0  0.77110  0.99858  0.22021  1.0000
  H   H647      1.0  0.78724  0.00322  0.17400  1.0000
  Fe  Fe53      1.0  0.77633  0.92581  0.58865  1.0000
  S   S106      1.0  0.77084  0.94134  0.65076  1.0000
  S   S107      1.0  0.79432  0.95683  0.54113  1.0000
  Fe  Fe54      1.0  0.75984  0.86135  0.61029  1.0000
  S   S108      1.0  0.75321  0.87267  0.67330  1.0000
  S   S109      1.0  0.74586  0.81644  0.58569  1.0000
  Fe  Fe55      1.0  0.73153  0.91399  0.65164  1.0000
  H   H648      1.0  0.97133  0.94047  0.88035  1.0000
  Fe  Fe56      1.0  0.79310  0.89893  0.66851  1.0000
  S   S110      1.0  0.82063  0.89844  0.72317  1.0000
  S   S111      1.0  0.73552  0.90148  0.58835  1.0000
  S   S112      1.0  0.80132  0.88459  0.60642  1.0000
  Fe  Fe57      1.0  0.76928  0.57618  0.57451  1.0000
  S   S113      1.0  0.75340  0.55848  0.63225  1.0000
  S   S114      1.0  0.76652  0.55391  0.51363  1.0000
  Fe  Fe58      1.0  0.77811  0.64033  0.60904  1.0000
  S   S115      1.0  0.76203  0.62649  0.66751  1.0000
  S   S116      1.0  0.79946  0.68590  0.60444  1.0000
  Fe  Fe59      1.0  0.78860  0.58515  0.65930  1.0000
  S   S117      1.0  0.81377  0.57621  0.71466  1.0000
  Fe  Fe60      1.0  0.72852  0.60143  0.63612  1.0000
  C   C382      1.0  0.91127  0.53700  0.88235  1.0000
  S   S118      1.0  0.80605  0.59983  0.60162  1.0000
  S   S119      1.0  0.74286  0.61826  0.57754  1.0000
  Fe  Fe61      1.0  0.97529  0.56639  0.77766  1.0000
  S   S120      1.0  0.97088  0.59455  0.83154  1.0000
  S   S121      1.0  0.94216  0.54462  0.73976  1.0000
  H   H649      1.0  0.80068  0.79593  0.61236  1.0000
  H   H650      1.0  0.69914  0.58705  0.51772  1.0000
  H   H651      1.0  0.82105  0.74483  0.61813  1.0000
  C   C383      1.0  0.93285  0.96254  0.85893  1.0000
  C   C384      1.0  0.78340  0.72190  0.60221  1.0000
  C   C385      1.0  0.75561  0.72575  0.59117  1.0000
  Fe  Fe62      1.0  0.98915  0.88860  0.77705  1.0000
  S   S122      1.0  0.98719  0.88447  0.84224  1.0000
  S   S123      1.0  0.95369  0.89479  0.73302  1.0000
  H   H652      1.0  0.73837  0.96601  0.50712  1.0000
  C   C386      1.0  0.74433  0.75483  0.58693  1.0000
  H   H653      1.0  0.74304  0.70635  0.58481  1.0000
  C   C387      1.0  0.77822  0.84733  0.50505  1.0000
  H   H654      1.0  0.75810  0.83564  0.50207  1.0000
  C   C388      1.0  0.76041  0.78037  0.59466  1.0000
  H   H655      1.0  0.71571  0.55164  0.56807  1.0000
  H   H656      1.0  0.77490  0.87461  0.82936  1.0000
  H   H657      1.0  0.72303  0.75754  0.57735  1.0000
  C   C389      1.0  0.78799  0.77652  0.60670  1.0000
  C   C390      1.0  0.77244  0.89920  0.82566  1.0000
  H   H658      1.0  0.70002  0.85203  0.77849  1.0000
  C   C391      1.0  0.79949  0.74746  0.60995  1.0000
  C   C392      1.0  0.00713  0.74058  0.86642  1.0000
  C   C393      1.0  0.68391  0.57381  0.53485  1.0000
  H   H659      1.0  0.78150  0.90595  0.79745  1.0000
  H   H660      1.0  0.72288  0.96072  0.80128  1.0000
  C   C394      1.0  0.84981  0.56837  0.72021  1.0000
  C   C395      1.0  0.86557  0.55464  0.69085  1.0000
  C   C396      1.0  0.89385  0.54761  0.69732  1.0000
  C   C397      1.0  0.90695  0.55529  0.73250  1.0000
  C   C398      1.0  0.89136  0.56975  0.76149  1.0000
  C   C399      1.0  0.86281  0.57562  0.75565  1.0000
  H   H661      1.0  0.85579  0.54862  0.66363  1.0000
  H   H662      1.0  0.90567  0.53616  0.67488  1.0000
  H   H663      1.0  0.90113  0.57569  0.78872  1.0000
  H   H664      1.0  0.85072  0.58607  0.77861  1.0000
  C   C400      1.0  0.78126  0.97877  0.50139  1.0000
  H   H665      1.0  0.99115  0.78237  0.71748  1.0000
  C   C401      1.0  0.68170  0.93345  0.83671  1.0000
  H   H666      1.0  0.82190  0.99567  0.48686  1.0000
  H   H667      1.0  0.71384  0.90071  0.48043  1.0000
  C   C402      1.0  0.85766  0.89856  0.72541  1.0000
  C   C403      1.0  0.87083  0.89916  0.76203  1.0000
  C   C404      1.0  0.90015  0.89840  0.76512  1.0000
  C   C405      1.0  0.91667  0.89707  0.73151  1.0000
  C   C406      1.0  0.90347  0.89686  0.69499  1.0000
  C   C407      1.0  0.87420  0.89751  0.69189  1.0000
  H   H668      1.0  0.85824  0.90002  0.78815  1.0000
  H   H669      1.0  0.90992  0.89881  0.79343  1.0000
  H   H670      1.0  0.91599  0.89597  0.66877  1.0000
  H   H671      1.0  0.86445  0.89714  0.66354  1.0000
  H   H672      1.0  0.90916  0.55421  0.85896  1.0000
  H   H673      1.0  0.96067  0.79065  0.69015  1.0000
  N   N26       1.0  0.87730  0.65280  0.68053  1.0000
  C   C408      1.0  0.90186  0.63383  0.69306  1.0000
  C   C409      1.0  0.86296  0.63650  0.64784  1.0000
  C   C410      1.0  0.85760  0.65506  0.71476  1.0000
  C   C411      1.0  0.88783  0.68330  0.66871  1.0000
  C   C412      1.0  0.91732  0.64418  0.73000  1.0000
  C   C413      1.0  0.88184  0.62700  0.61351  1.0000
  C   C414      1.0  0.82958  0.67115  0.70796  1.0000
  C   C415      1.0  0.87045  0.70096  0.63862  1.0000
  H   H674      1.0  0.89530  0.61038  0.69803  1.0000
  H   H675      1.0  0.91792  0.63254  0.66969  1.0000
  H   H676      1.0  0.84566  0.64992  0.63539  1.0000
  H   H677      1.0  0.85286  0.61579  0.65900  1.0000
  H   H678      1.0  0.85255  0.63227  0.72568  1.0000
  H   H679      1.0  0.86738  0.66700  0.73956  1.0000
  H   H680      1.0  0.89014  0.69795  0.69473  1.0000
  H   H681      1.0  0.90911  0.68164  0.65588  1.0000
  H   H682      1.0  0.93694  0.63097  0.73290  1.0000
  H   H683      1.0  0.92308  0.66815  0.72872  1.0000
  H   H684      1.0  0.90500  0.63962  0.75670  1.0000
  H   H685      1.0  0.86867  0.62123  0.58806  1.0000
  H   H686      1.0  0.89619  0.64504  0.60453  1.0000
  H   H687      1.0  0.89405  0.60657  0.62098  1.0000
  H   H688      1.0  0.83222  0.69568  0.70535  1.0000
  H   H689      1.0  0.81612  0.66757  0.73387  1.0000
  H   H690      1.0  0.81785  0.66214  0.68292  1.0000
  H   H691      1.0  0.87119  0.69039  0.60939  1.0000
  H   H692      1.0  0.87916  0.72379  0.63535  1.0000
  H   H693      1.0  0.84849  0.70369  0.64730  1.0000
  N   N27       1.0  0.92818  0.80230  0.76278  1.0000
  C   C416      1.0  0.91219  0.81262  0.72730  1.0000
  C   C417      1.0  0.95860  0.80347  0.75211  1.0000
  C   C418      1.0  0.92255  0.82452  0.79501  1.0000
  C   C419      1.0  0.91854  0.77133  0.77383  1.0000
  H   H694      1.0  0.87101  0.82035  0.70298  1.0000
  C   C420      1.0  0.93667  0.81858  0.83448  1.0000
  C   C421      1.0  0.93848  0.75201  0.79905  1.0000
  H   H695      1.0  0.92006  0.83463  0.71682  1.0000
  C   C422      1.0  0.75471  0.95024  0.76041  1.0000
  H   H696      1.0  0.97220  0.79870  0.77722  1.0000
  H   H697      1.0  0.96427  0.82667  0.74326  1.0000
  H   H698      1.0  0.92901  0.84728  0.78565  1.0000
  H   H699      1.0  0.89825  0.77273  0.78950  1.0000
  H   H700      1.0  0.91445  0.75793  0.74709  1.0000
  H   H701      1.0  0.75131  0.88860  0.75701  1.0000
  H   H702      1.0  0.99948  0.69281  0.86697  1.0000
  H   H703      1.0  0.76175  0.90958  0.50171  1.0000
  H   H704      1.0  0.92856  0.79812  0.84865  1.0000
  H   H705      1.0  0.93172  0.83748  0.85444  1.0000
  H   H706      1.0  0.95963  0.81768  0.83240  1.0000
  H   H707      1.0  0.92639  0.74076  0.82239  1.0000
  H   H708      1.0  0.95526  0.76427  0.81382  1.0000
  H   H709      1.0  0.94793  0.73361  0.78153  1.0000
  H   H710      1.0  0.69505  0.93718  0.86249  1.0000
  H   H711      1.0  0.92382  0.94296  0.84348  1.0000
  C   C423      1.0  0.80010  0.99576  0.47907  1.0000
  H   H712      1.0  0.00486  0.74294  0.89763  1.0000
  H   H713      1.0  0.73212  0.84051  0.75694  1.0000
  H   H714      1.0  0.87453  0.83530  0.75042  1.0000
  H   H715      1.0  0.75277  0.97207  0.74509  1.0000
  H   H716      1.0  0.67962  0.90804  0.78370  1.0000
  C   C424      1.0  0.77056  0.51897  0.48830  1.0000
  H   H717      1.0  0.95505  0.52635  0.83406  1.0000
  N   N28       1.0  0.72352  0.91217  0.79722  1.0000
  H   H718      1.0  0.95553  0.96635  0.91445  1.0000
  C   C425      1.0  0.72935  0.88859  0.76675  1.0000
  C   C426      1.0  0.72649  0.94284  0.77927  1.0000
  C   C427      1.0  0.74180  0.90885  0.83270  1.0000
  H   H719      1.0  0.89999  0.82598  0.80183  1.0000
  Fe  Fe63      1.0  0.00220  0.62588  0.80427  1.0000
  H   H720      1.0  0.79388  0.80479  0.52681  1.0000
  C   C428      1.0  0.72280  0.85610  0.77868  1.0000
  H   H721      1.0  0.96950  0.00234  0.76095  1.0000
  H   H722      1.0  0.68076  0.87134  0.69302  1.0000
  H   H723      1.0  0.74197  0.93006  0.84977  1.0000
  H   H724      1.0  0.71727  0.89353  0.73991  1.0000
  S   S124      1.0  0.69233  0.93481  0.67878  1.0000
  C   C429      1.0  0.95135  0.94942  0.89152  1.0000
  C   C430      1.0  0.00808  0.51696  0.94379  1.0000
  H   H725      1.0  0.73300  0.89155  0.85251  1.0000
  H   H726      1.0  0.91981  0.57111  0.92589  1.0000
  C   C431      1.0  0.80073  0.82251  0.50628  1.0000
  C   C432      1.0  0.96804  0.78247  0.71884  1.0000
  H   H727      1.0  0.87059  0.79521  0.74345  1.0000
  H   H728      1.0  0.69171  0.57445  0.71863  1.0000
  H   H729      1.0  0.80796  0.89616  0.51485  1.0000
  H   H730      1.0  0.73150  0.85035  0.80758  1.0000
  H   H731      1.0  0.78568  0.90939  0.84851  1.0000
  S   S125      1.0  0.00357  0.59902  0.74906  1.0000
  C   C433      1.0  0.88033  0.81583  0.73201  1.0000
  H   H732      1.0  0.77118  0.95308  0.78259  1.0000
  H   H733      1.0  0.91533  0.79683  0.70260  1.0000
  H   H734      1.0  0.89033  0.53512  0.89606  1.0000
  H   H735      1.0  0.70863  0.53510  0.52254  1.0000
  H   H736      1.0  0.95797  0.94338  0.79813  1.0000
  H   H737      1.0  0.77714  0.85768  0.53452  1.0000
  N   N29       1.0  0.94686  0.98350  0.83048  1.0000
  H   H738      1.0  0.71029  0.94632  0.75652  1.0000
  C   C434      1.0  0.00591  0.70901  0.80869  1.0000
  C   C435      1.0  0.80872  0.88747  0.48441  1.0000
  C   C436      1.0  0.69839  0.54478  0.54871  1.0000
  H   H739      1.0  0.89402  0.96106  0.79887  1.0000
  H   H740      1.0  0.96388  0.51339  0.88057  1.0000
  C   C437      1.0  0.97736  0.97966  0.76742  1.0000
  H   H741      1.0  0.72595  0.87162  0.51151  1.0000
  H   H742      1.0  0.96141  0.75904  0.72334  1.0000
  H   H743      1.0  0.69014  0.88729  0.82510  1.0000
  H   H744      1.0  0.80378  0.81155  0.47763  1.0000
  H   H745      1.0  0.68406  0.65707  0.78329  1.0000
  C   C438      1.0  0.75320  0.97890  0.49048  1.0000
  H   H746      1.0  0.82697  0.87206  0.48332  1.0000
  H   H747      1.0  0.98580  0.95969  0.82330  1.0000
  H   H748      1.0  0.93590  0.53623  0.93732  1.0000
  H   H749      1.0  0.89252  0.98950  0.76263  1.0000
  H   H750      1.0  0.91502  0.97391  0.87380  1.0000
  H   H751      1.0  0.92044  0.96297  0.76121  1.0000
  H   H752      1.0  0.76124  0.93379  0.73799  1.0000
  H   H753      1.0  0.94985  0.55976  0.89947  1.0000
  H   H754      1.0  0.97826  0.99680  0.87227  1.0000
  C   C439      1.0  0.93049  0.55130  0.91300  1.0000
  C   C440      1.0  0.92399  0.99791  0.80679  1.0000
  C   C441      1.0  0.69346  0.90885  0.80957  1.0000
  Fe  Fe64      1.0  0.00843  0.56802  0.85319  1.0000
  H   H755      1.0  0.97198  0.96495  0.74244  1.0000
  H   H756      1.0  0.94034  0.93065  0.90594  1.0000
  S   S126      1.0  0.00865  0.55166  0.91716  1.0000
  C   C442      1.0  0.00414  0.71210  0.84912  1.0000
  H   H757      1.0  0.82078  0.83091  0.51766  1.0000
  C   C443      1.0  0.96704  0.96547  0.80601  1.0000
  H   H758      1.0  0.68907  0.66125  0.73241  1.0000
  H   H759      1.0  0.00537  0.93467  0.94938  1.0000
  S   S127      1.0  0.99851  0.67481  0.78461  1.0000
  C   C444      1.0  0.95083  0.50794  0.85509  1.0000
  H   H760      1.0  0.68512  0.54605  0.62332  1.0000
  H   H761      1.0  0.67744  0.58829  0.55957  1.0000
  H   H762      1.0  0.86672  0.53072  0.83617  1.0000
  C   C445      1.0  0.75856  0.89391  0.47683  1.0000
  C   C446      1.0  0.72884  0.88170  0.48225  1.0000
  N   N30       1.0  0.78212  0.87130  0.47462  1.0000
  C   C447      1.0  0.87282  0.50736  0.82887  1.0000
  S   S128      1.0  0.68145  0.60672  0.64538  1.0000
  N   N31       1.0  0.68030  0.52212  0.56908  1.0000
  H   H763      1.0  0.91249  0.51905  0.80471  1.0000
  C   C448      1.0  0.90703  0.97630  0.78115  1.0000
  N   N32       1.0  0.92026  0.50733  0.86504  1.0000
  H   H764      1.0  0.00043  0.98120  0.76776  1.0000
  H   H765      1.0  0.83450  0.92582  0.47027  1.0000
  H   H766      1.0  0.67830  0.95480  0.82081  1.0000
  H   H767      1.0  0.67853  0.69329  0.75956  1.0000
  H   H768      1.0  0.74028  0.50406  0.56333  1.0000
