data_image0
_chemical_formula_structural       H3FeS2HSFeC2H2C3SHCH4CH2C3FeH4CH2C2HCHC2H5NC2H2CHCH2CH3CFeH3CSCHSFeS2FeS2FeHFeS3H2CHCH2SH2CH5SHFeS2FeS2FeSFeS3C2SC3H4C2H2C6H4C6H4C6FeH3CH2SHNCNCHCHSHCHC3H3SHNC8H27C2NH3CHCH3SC3H3CHCH2C3H2CH6CHNHNH5CH2C2FeH9CHFeHCH4SHC3HCHC3HCH6FeHCSH2C2FeSH4CH4CH2C4HCHFeS2FeS2FeSFeS3FeS2FeS2CFe2SCSH2FeS3CS2HC6H4C6H4C2H2C2H2C6H6C2SHCHSC2H3CHCHCH2C6SH2FeCH4FeSFeH4CHCH2C2HCH7CNCHCH2CH3CH14NC8H20NC7H12CH5CHCH2C2H7CNHCHCH4CNHCH3CHCSNH2SC2HSH3C2HCHCHSH3C2H13CFeS2CHC2H5C3H3C2NH3CHCHCHCH2CHCH2CH2CH3CH2CH2CSCH3FeS2HC3FeHCH5SHCH6CHC3H2CFeH2CHCHC3HCNCHCH5CH2SHCHC2H3NCH8SC3H2FeS2FeS2CHC3H3C2H2C5H4C3H3CH2SFeS2FeS2FeS2FeS2FeS2FeS2CH2C3H2C4H2C2H3CHSH2C4H2C2HC2HCH2C2HFeH4CH4C2HCH2SH2C2H2C2HC2H2C3H9CH4CNCH4CH2CH2NH7CHN2SHCNHCH4C3H8NC7H9C2HCHNC8H14CH6CH2CFeHCH3CH3NH4CNH5CH5CH4CHC2H4CH8C2HC2HC2HFeS2FeS3FeS2FeS3C4H3C4H4SHC3H2CHC3H3FeS2FeS2FeSFeS2C2H6C2HCHSC4H2C2HC3H2C2H11CH3CNCH7C2H2SCH3NCH3C2HCH2CH5CHCNH4C2H2NC4HCFeH3CH2CH2NH6C2H9CHCH2C2SCHC2H6CH2C2HCHCH2CH7CNH4CH2C2FeH2SHCSCH3C3H2FeHSC2H4CH3SHC2HFeS2C2H2CHC2HC4FeCH2C3H2SH2C2HNHCHCH3CH2CHSH2CH2CH2NH2SH2CH8CH3SHSNH2FeCHCHFeS2H2C2HC2SC2HCH2C2HC3HCH2FeCFeCHFeH3CSHCSH8C2H2CNCHC3SH5CSH13C2H6C2H3CH4FeS2FeS2FeSFeHS2HS2FeS2FeSCFeSH3FeSCSCH2C3H4CHC6H4C4HCH2CHC6NH3SH8CH2CHC2SCH4FeHNC8H19NHC3HC3HNH6SH13CHFeC2NHC2HC2SFeH2NH2CH3CH3FeHS2H3FeHCH5CHC2HCH2CH2C3HCH3CHC2H3C2H4CHC3H2SC4SCH2CHC2FeHSHSH2SC2H3CHSH2C2HCH2SCSHFeC2SFeHCH4CSHC2HC2HCH2SFeS2HS2FeS2FeS2FeSHCSHFeS2FeS2FeSFeHS2HFeH4CHSC2FeH2C7H4C6H4C2HC4SC6H7C2HC5H2C2H2SCHC2H3CH2CH3CH2CFeHCHCHSH2FeHSH5NC6HCH8CH6SCH4CH2C2HCHCHNH5CH2CSH3FeH6FeH4C2H8C2HNCH2CHSCH5CH3CH2SH4CHCHNCHNCHCH4SC3H2C2H2CNSH3SC2H5FeH2SHSCS2FeCFeCH2CH2CH2CH4CH2SCH2C2HC2HCNHSFeHCHCFeC2H3CHCH2CH8
_chemical_formula_sum              "H1152 Fe96 S192 C672 N48"
_cell_length_a       47.1726
_cell_length_b       52.5518
_cell_length_c       33.3312
_cell_angle_alpha    89.9771
_cell_angle_beta     90.2248
_cell_angle_gamma    89.9942

_space_group_name_H-M_alt    "P 1"
_space_group_IT_number       1

loop_
  _space_group_symop_operation_xyz
  'x, y, z'

loop_
  _atom_site_type_symbol
  _atom_site_label
  _atom_site_symmetry_multiplicity
  _atom_site_fract_x
  _atom_site_fract_y
  _atom_site_fract_z
  _atom_site_occupancy
  H   H1        1.0  0.32589  0.95256  0.39610  1.0000
  H   H2        1.0  0.33862  0.44615  0.29541  1.0000
  H   H3        1.0  0.24785  0.35897  0.41553  1.0000
  Fe  Fe1       1.0  0.26428  0.43576  0.36846  1.0000
  S   S1        1.0  0.25547  0.41056  0.31525  1.0000
  S   S2        1.0  0.28446  0.41734  0.42304  1.0000
  H   H4        1.0  0.08141  0.42853  0.23093  1.0000
  S   S3        1.0  0.17048  0.41531  0.30515  1.0000
  Fe  Fe2       1.0  0.21444  0.43219  0.31046  1.0000
  C   C1        1.0  0.10429  0.42977  0.23007  1.0000
  C   C2        1.0  0.16437  0.38158  0.47589  1.0000
  H   H5        1.0  0.13631  0.36314  0.41733  1.0000
  H   H6        1.0  0.21808  0.37830  0.46458  1.0000
  C   C3        1.0  0.20680  0.36692  0.44149  1.0000
  C   C4        1.0  0.26419  0.41321  0.46671  1.0000
  C   C5        1.0  0.27132  0.39369  0.49370  1.0000
  S   S4        1.0  0.30339  0.43798  0.22487  1.0000
  H   H7        1.0  0.18664  0.35454  0.51574  1.0000
  C   C6        1.0  0.24134  0.42920  0.47525  1.0000
  H   H8        1.0  0.28894  0.38121  0.48710  1.0000
  H   H9        1.0  0.21941  0.35126  0.38279  1.0000
  H   H10       1.0  0.13510  0.40546  0.39274  1.0000
  H   H11       1.0  0.34483  0.98719  0.35602  1.0000
  C   C7        1.0  0.16260  0.35867  0.36556  1.0000
  H   H12       1.0  0.16256  0.33932  0.42281  1.0000
  H   H13       1.0  0.18649  0.43441  0.22704  1.0000
  C   C8        1.0  0.35197  0.44655  0.26915  1.0000
  C   C9        1.0  0.15035  0.42424  0.26275  1.0000
  C   C10       1.0  0.16364  0.43336  0.22827  1.0000
  Fe  Fe3       1.0  0.27469  0.44235  0.27904  1.0000
  H   H14       1.0  0.20800  0.43813  0.51707  1.0000
  H   H15       1.0  0.23039  0.38427  0.39086  1.0000
  H   H16       1.0  0.19320  0.41617  0.43301  1.0000
  H   H17       1.0  0.18937  0.40253  0.38544  1.0000
  C   C11       1.0  0.22559  0.42559  0.51048  1.0000
  H   H18       1.0  0.33136  0.96237  0.30394  1.0000
  H   H19       1.0  0.15196  0.36299  0.53147  1.0000
  C   C12       1.0  0.16486  0.35848  0.50454  1.0000
  C   C13       1.0  0.34015  0.44282  0.23112  1.0000
  H   H20       1.0  0.17513  0.39746  0.49210  1.0000
  C   C14       1.0  0.35788  0.44314  0.19732  1.0000
  H   H21       1.0  0.16317  0.33864  0.35496  1.0000
  C   C15       1.0  0.12065  0.42222  0.26349  1.0000
  C   C16       1.0  0.17923  0.40335  0.41523  1.0000
  H   H22       1.0  0.18179  0.36794  0.35372  1.0000
  H   H23       1.0  0.34880  0.44038  0.16779  1.0000
  H   H24       1.0  0.14385  0.36748  0.35074  1.0000
  H   H25       1.0  0.14175  0.42392  0.43795  1.0000
  H   H26       1.0  0.30143  0.95273  0.33256  1.0000
  N   N1        1.0  0.17742  0.37756  0.43496  1.0000
  C   C17       1.0  0.15915  0.35908  0.41177  1.0000
  C   C18       1.0  0.22667  0.36551  0.40502  1.0000
  H   H27       1.0  0.15571  0.34118  0.49059  1.0000
  H   H28       1.0  0.20582  0.34722  0.45365  1.0000
  C   C19       1.0  0.15077  0.41729  0.40911  1.0000
  H   H29       1.0  0.11026  0.41506  0.29005  1.0000
  C   C20       1.0  0.14738  0.44063  0.19486  1.0000
  H   H30       1.0  0.14174  0.38736  0.47323  1.0000
  H   H31       1.0  0.15448  0.43456  0.39058  1.0000
  C   C21       1.0  0.11770  0.43904  0.19568  1.0000
  H   H32       1.0  0.14924  0.95316  0.53445  1.0000
  H   H33       1.0  0.23600  0.44453  0.45492  1.0000
  H   H34       1.0  0.15785  0.44762  0.16820  1.0000
  C   C22       1.0  0.25551  0.39002  0.52892  1.0000
  Fe  Fe4       1.0  0.05117  0.44803  0.14358  1.0000
  H   H35       1.0  0.03617  0.96933  0.06954  1.0000
  H   H36       1.0  0.18680  0.95425  0.48147  1.0000
  H   H37       1.0  0.31469  0.41771  0.53251  1.0000
  C   C23       1.0  0.36024  0.97359  0.36931  1.0000
  S   S5        1.0  0.09863  0.45026  0.15373  1.0000
  C   C24       1.0  0.23264  0.40604  0.53742  1.0000
  H   H38       1.0  0.24314  0.23360  0.77765  1.0000
  S   S6        1.0  0.22889  0.01510  0.61361  1.0000
  Fe  Fe5       1.0  0.28385  0.13417  0.72273  1.0000
  S   S7        1.0  0.27707  0.10879  0.77602  1.0000
  S   S8        1.0  0.27743  0.12316  0.65843  1.0000
  Fe  Fe6       1.0  0.30131  0.17958  0.77329  1.0000
  S   S9        1.0  0.29598  0.15800  0.83043  1.0000
  S   S10       1.0  0.31574  0.22002  0.77862  1.0000
  Fe  Fe7       1.0  0.31784  0.12615  0.79818  1.0000
  H   H39       1.0  0.17277  0.20185  0.78549  1.0000
  Fe  Fe8       1.0  0.25605  0.14324  0.80236  1.0000
  S   S11       1.0  0.21508  0.14664  0.83575  1.0000
  S   S12       1.0  0.32611  0.14908  0.74281  1.0000
  S   S13       1.0  0.25974  0.16739  0.74736  1.0000
  H   H40       1.0  0.04112  0.00390  0.85221  1.0000
  H   H41       1.0  0.11864  0.25273  0.77723  1.0000
  C   C25       1.0  0.29428  0.03304  0.77922  1.0000
  H   H42       1.0  0.18423  0.95686  0.55403  1.0000
  C   C26       1.0  0.19501  0.26877  0.67870  1.0000
  H   H43       1.0  0.03177  0.98904  0.71993  1.0000
  H   H44       1.0  0.27673  0.41328  0.59726  1.0000
  S   S14       1.0  0.10908  0.08513  0.77116  1.0000
  H   H45       1.0  0.18781  0.13226  0.71720  1.0000
  H   H46       1.0  0.20930  0.10953  0.63822  1.0000
  C   C27       1.0  0.13949  0.24285  0.77707  1.0000
  H   H47       1.0  0.35975  0.38677  0.92244  1.0000
  H   H48       1.0  0.22060  0.11664  0.70525  1.0000
  H   H49       1.0  0.13920  0.05959  0.70416  1.0000
  H   H50       1.0  0.34316  0.02856  0.70346  1.0000
  H   H51       1.0  0.03363  0.03193  0.82209  1.0000
  S   S15       1.0  0.04243  0.37462  0.72800  1.0000
  H   H52       1.0  0.19829  0.06936  0.66709  1.0000
  Fe  Fe9       1.0  0.22637  0.37552  0.63080  1.0000
  S   S16       1.0  0.21881  0.38789  0.69469  1.0000
  S   S17       1.0  0.21247  0.40241  0.58132  1.0000
  Fe  Fe10      1.0  0.25178  0.32517  0.65652  1.0000
  S   S18       1.0  0.24630  0.33371  0.72168  1.0000
  S   S19       1.0  0.27026  0.28792  0.63602  1.0000
  Fe  Fe11      1.0  0.20315  0.34793  0.70441  1.0000
  S   S20       1.0  0.16821  0.33252  0.74427  1.0000
  Fe  Fe12      1.0  0.26260  0.37240  0.70582  1.0000
  S   S21       1.0  0.29427  0.39169  0.74688  1.0000
  S   S22       1.0  0.20744  0.33665  0.63972  1.0000
  S   S23       1.0  0.27128  0.36290  0.64148  1.0000
  C   C28       1.0  0.07711  0.36235  0.73297  1.0000
  C   C29       1.0  0.19104  0.11834  0.65394  1.0000
  S   S24       1.0  0.35361  0.10486  0.82852  1.0000
  C   C30       1.0  0.13328  0.34422  0.73942  1.0000
  C   C31       1.0  0.11129  0.33264  0.76116  1.0000
  C   C32       1.0  0.08324  0.34161  0.75786  1.0000
  H   H53       1.0  0.11593  0.31655  0.78032  1.0000
  H   H54       1.0  0.06638  0.33241  0.77432  1.0000
  H   H55       1.0  0.19711  0.08780  0.58431  1.0000
  H   H56       1.0  0.15156  0.04589  0.65743  1.0000
  C   C33       1.0  0.09914  0.37400  0.71152  1.0000
  C   C34       1.0  0.15684  0.09173  0.61753  1.0000
  H   H57       1.0  0.21441  0.21979  0.71973  1.0000
  H   H58       1.0  0.19100  0.24975  0.66552  1.0000
  C   C35       1.0  0.13857  0.10209  0.78953  1.0000
  C   C36       1.0  0.13583  0.12739  0.80171  1.0000
  C   C37       1.0  0.15946  0.14084  0.81588  1.0000
  C   C38       1.0  0.18626  0.12945  0.81630  1.0000
  C   C39       1.0  0.18934  0.10438  0.80281  1.0000
  C   C40       1.0  0.16539  0.09056  0.79013  1.0000
  H   H59       1.0  0.11560  0.13676  0.80012  1.0000
  H   H60       1.0  0.15698  0.16021  0.82627  1.0000
  H   H61       1.0  0.20999  0.09543  0.80339  1.0000
  H   H62       1.0  0.16768  0.07099  0.78062  1.0000
  C   C41       1.0  0.30210  0.23840  0.73926  1.0000
  C   C42       1.0  0.29403  0.22720  0.70292  1.0000
  C   C43       1.0  0.28434  0.24250  0.67114  1.0000
  C   C44       1.0  0.28255  0.26894  0.67579  1.0000
  C   C45       1.0  0.29068  0.28000  0.71219  1.0000
  C   C46       1.0  0.30009  0.26473  0.74399  1.0000
  H   H63       1.0  0.29569  0.20681  0.69901  1.0000
  H   H64       1.0  0.27819  0.23383  0.64296  1.0000
  H   H65       1.0  0.29053  0.30038  0.71555  1.0000
  H   H66       1.0  0.30594  0.27334  0.77232  1.0000
  C   C47       1.0  0.24520  0.04375  0.62743  1.0000
  C   C48       1.0  0.25032  0.06178  0.59751  1.0000
  C   C49       1.0  0.26100  0.08577  0.60748  1.0000
  C   C50       1.0  0.26643  0.09203  0.64751  1.0000
  C   C51       1.0  0.26180  0.07387  0.67759  1.0000
  C   C52       1.0  0.25145  0.04957  0.66751  1.0000
  Fe  Fe13      1.0  0.19092  0.95901  0.72450  1.0000
  H   H67       1.0  0.26456  0.09972  0.58413  1.0000
  H   H68       1.0  0.26582  0.07856  0.70852  1.0000
  H   H69       1.0  0.24735  0.03575  0.69076  1.0000
  C   C53       1.0  0.09675  0.35820  0.86960  1.0000
  H   H70       1.0  0.09453  0.39005  0.69223  1.0000
  H   H71       1.0  0.08542  0.40592  0.80651  1.0000
  S   S25       1.0  0.05882  0.13876  0.81615  1.0000
  H   H72       1.0  0.13533  0.22357  0.76484  1.0000
  N   N2        1.0  0.31041  0.44029  0.58696  1.0000
  C   C54       1.0  0.33486  0.04728  0.71316  1.0000
  N   N3        1.0  0.06331  0.39650  0.88142  1.0000
  C   C55       1.0  0.34845  0.44481  0.64278  1.0000
  H   H73       1.0  0.18386  0.05815  0.60485  1.0000
  C   C56       1.0  0.17783  0.07665  0.59128  1.0000
  H   H74       1.0  0.11778  0.95825  0.83507  1.0000
  S   S26       1.0  0.04800  0.19806  0.74494  1.0000
  H   H75       1.0  0.04361  0.00275  0.79898  1.0000
  C   C57       1.0  0.15815  0.05421  0.68654  1.0000
  H   H76       1.0  0.04018  0.25148  0.73112  1.0000
  C   C58       1.0  0.33070  0.38679  0.73842  1.0000
  C   C59       1.0  0.19366  0.22254  0.73509  1.0000
  C   C60       1.0  0.12232  0.95603  0.77099  1.0000
  H   H77       1.0  0.17738  0.21836  0.71172  1.0000
  H   H78       1.0  0.08931  0.98486  0.93115  1.0000
  H   H79       1.0  0.34684  0.29277  0.74557  1.0000
  S   S27       1.0  0.18817  0.95868  0.65709  1.0000
  H   H80       1.0  0.06550  0.37216  0.82826  1.0000
  N   N4        1.0  0.08949  0.03619  0.86357  1.0000
  C   C61       1.0  0.07315  0.06082  0.86645  1.0000
  C   C62       1.0  0.07919  0.02248  0.82645  1.0000
  C   C63       1.0  0.12076  0.04261  0.86006  1.0000
  C   C64       1.0  0.08392  0.02116  0.90126  1.0000
  C   C65       1.0  0.08161  0.07871  0.90123  1.0000
  C   C66       1.0  0.04753  0.01507  0.82553  1.0000
  C   C67       1.0  0.13944  0.02486  0.83430  1.0000
  C   C68       1.0  0.09471  0.99359  0.90179  1.0000
  H   H81       1.0  0.07525  0.07190  0.83821  1.0000
  H   H82       1.0  0.05013  0.05722  0.87020  1.0000
  H   H83       1.0  0.09104  0.00455  0.82161  1.0000
  H   H84       1.0  0.08336  0.03427  0.79927  1.0000
  H   H85       1.0  0.12379  0.06175  0.84642  1.0000
  H   H86       1.0  0.13090  0.04406  0.89019  1.0000
  H   H87       1.0  0.09361  0.03063  0.92782  1.0000
  H   H88       1.0  0.06086  0.02052  0.90773  1.0000
  H   H89       1.0  0.06926  0.09665  0.89836  1.0000
  H   H90       1.0  0.07616  0.07044  0.93082  1.0000
  H   H91       1.0  0.10435  0.08400  0.90056  1.0000
  H   H92       1.0  0.10532  0.41154  0.89216  1.0000
  H   H93       1.0  0.31387  0.38351  0.57999  1.0000
  H   H94       1.0  0.21281  0.14830  0.68720  1.0000
  H   H95       1.0  0.16200  0.03056  0.83766  1.0000
  H   H96       1.0  0.13417  0.02676  0.80190  1.0000
  H   H97       1.0  0.13794  0.00460  0.84297  1.0000
  H   H98       1.0  0.08415  0.98185  0.87861  1.0000
  H   H99       1.0  0.32985  0.07085  0.76552  1.0000
  H   H100      1.0  0.11801  0.99259  0.89872  1.0000
  H   H101      1.0  0.14881  0.15183  0.67314  1.0000
  H   H102      1.0  0.14389  0.37399  0.69776  1.0000
  H   H103      1.0  0.14665  0.24181  0.80869  1.0000
  H   H104      1.0  0.24116  0.24710  0.82697  1.0000
  H   H105      1.0  0.32062  0.44529  0.80531  1.0000
  H   H106      1.0  0.18559  0.08248  0.71202  1.0000
  H   H107      1.0  0.25379  0.01675  0.79709  1.0000
  C   C69       1.0  0.19195  0.20101  0.76667  1.0000
  C   C70       1.0  0.12711  0.36493  0.71458  1.0000
  N   N5        1.0  0.16737  0.09933  0.65859  1.0000
  H   H108      1.0  0.32442  0.99767  0.74924  1.0000
  H   H109      1.0  0.05129  0.35736  0.87066  1.0000
  H   H110      1.0  0.12616  0.13710  0.63556  1.0000
  C   C71       1.0  0.33338  0.39526  0.57803  1.0000
  H   H111      1.0  0.14781  0.11200  0.71375  1.0000
  C   C72       1.0  0.20638  0.26721  0.72211  1.0000
  H   H112      1.0  0.15047  0.25641  0.71939  1.0000
  H   H113      1.0  0.34667  0.06217  0.69644  1.0000
  H   H114      1.0  0.34115  0.39060  0.80088  1.0000
  S   S28       1.0  0.22684  0.98713  0.72640  1.0000
  C   C73       1.0  0.35366  0.40072  0.89885  1.0000
  C   C74       1.0  0.33585  0.00516  0.77610  1.0000
  C   C75       1.0  0.13260  0.13695  0.66755  1.0000
  H   H115      1.0  0.16911  0.03886  0.70354  1.0000
  H   H116      1.0  0.34231  0.39012  0.87485  1.0000
  H   H117      1.0  0.19296  0.24019  0.81362  1.0000
  C   C76       1.0  0.33889  0.05175  0.75857  1.0000
  H   H118      1.0  0.34773  0.15262  0.87444  1.0000
  C   C77       1.0  0.27139  0.44247  0.64150  1.0000
  H   H119      1.0  0.24617  0.26756  0.78477  1.0000
  H   H120      1.0  0.21083  0.20072  0.78660  1.0000
  C   C78       1.0  0.17876  0.07675  0.68137  1.0000
  C   C79       1.0  0.14281  0.11049  0.68143  1.0000
  C   C80       1.0  0.10844  0.95097  0.73469  1.0000
  H   H121      1.0  0.13707  0.08023  0.61972  1.0000
  H   H122      1.0  0.09868  0.34120  0.84997  1.0000
  C   C81       1.0  0.15988  0.25784  0.74994  1.0000
  H   H123      1.0  0.12403  0.09767  0.68015  1.0000
  H   H124      1.0  0.04358  0.43059  0.81647  1.0000
  H   H125      1.0  0.34700  0.43036  0.55039  1.0000
  H   H126      1.0  0.18503  0.13437  0.63379  1.0000
  H   H127      1.0  0.26019  0.42974  0.66284  1.0000
  H   H128      1.0  0.22900  0.26145  0.71948  1.0000
  C   C82       1.0  0.20269  0.25332  0.79155  1.0000
  H   H129      1.0  0.07948  0.43500  0.88120  1.0000
  N   N6        1.0  0.19056  0.24959  0.75003  1.0000
  H   H130      1.0  0.15082  0.10884  0.59981  1.0000
  N   N7        1.0  0.32605  0.03180  0.78558  1.0000
  H   H131      1.0  0.32181  0.02460  0.84937  1.0000
  H   H132      1.0  0.28331  0.99782  0.81245  1.0000
  H   H133      1.0  0.32281  0.05739  0.83612  1.0000
  H   H134      1.0  0.04651  0.37647  0.93328  1.0000
  H   H135      1.0  0.20666  0.28699  0.73424  1.0000
  C   C83       1.0  0.32974  0.44437  0.83611  1.0000
  H   H136      1.0  0.24558  0.05731  0.56651  1.0000
  H   H137      1.0  0.11364  0.14234  0.68537  1.0000
  C   C84       1.0  0.29083  0.42610  0.61481  1.0000
  C   C85       1.0  0.20363  0.12923  0.69329  1.0000
  Fe  Fe14      1.0  0.22649  0.98398  0.65948  1.0000
  H   H138      1.0  0.28839  0.02614  0.74871  1.0000
  H   H139      1.0  0.34651  0.18054  0.90603  1.0000
  H   H140      1.0  0.17558  0.28067  0.67700  1.0000
  H   H141      1.0  0.21105  0.27832  0.65962  1.0000
  H   H142      1.0  0.30273  0.41346  0.63547  1.0000
  H   H143      1.0  0.27471  0.02711  0.83849  1.0000
  H   H144      1.0  0.32988  0.99197  0.80082  1.0000
  H   H145      1.0  0.15819  0.27830  0.75851  1.0000
  H   H146      1.0  0.19758  0.27279  0.80281  1.0000
  C   C86       1.0  0.06794  0.37112  0.86124  1.0000
  H   H147      1.0  0.33867  0.41382  0.91352  1.0000
  Fe  Fe15      1.0  0.06766  0.10661  0.77370  1.0000
  H   H148      1.0  0.33863  0.30339  0.66127  1.0000
  C   C87       1.0  0.27586  0.01766  0.80877  1.0000
  H   H149      1.0  0.34069  0.32589  0.70239  1.0000
  H   H150      1.0  0.12008  0.95190  0.70683  1.0000
  H   H151      1.0  0.19157  0.18233  0.75106  1.0000
  H   H152      1.0  0.33529  0.43645  0.66692  1.0000
  S   S29       1.0  0.05061  0.12660  0.71930  1.0000
  H   H153      1.0  0.35879  0.18801  0.82303  1.0000
  C   C88       1.0  0.23515  0.25007  0.79505  1.0000
  C   C89       1.0  0.34946  0.38811  0.77099  1.0000
  C   C90       1.0  0.05595  0.41440  0.95346  1.0000
  H   H154      1.0  0.35577  0.15021  0.92622  1.0000
  C   C91       1.0  0.06253  0.39142  0.92611  1.0000
  H   H155      1.0  0.08323  0.38389  0.93689  1.0000
  C   C92       1.0  0.03465  0.40682  0.86946  1.0000
  C   C93       1.0  0.08650  0.41548  0.87278  1.0000
  C   C94       1.0  0.09761  0.41684  0.82902  1.0000
  H   H156      1.0  0.12005  0.41046  0.82764  1.0000
  C   C95       1.0  0.35814  0.16272  0.89957  1.0000
  H   H157      1.0  0.09837  0.35122  0.90091  1.0000
  H   H158      1.0  0.31236  0.04909  0.70396  1.0000
  H   H159      1.0  0.32171  0.42656  0.84937  1.0000
  H   H160      1.0  0.32711  0.38181  0.67464  1.0000
  H   H161      1.0  0.09756  0.43695  0.81870  1.0000
  H   H162      1.0  0.28658  0.05305  0.78076  1.0000
  Fe  Fe16      1.0  0.03893  0.15756  0.76261  1.0000
  H   H163      1.0  0.11499  0.37069  0.86274  1.0000
  C   C96       1.0  0.10700  0.95477  0.80692  1.0000
  S   S30       1.0  0.15819  0.96558  0.77315  1.0000
  H   H164      1.0  0.07014  0.43081  0.94785  1.0000
  H   H165      1.0  0.34376  0.39589  0.60773  1.0000
  C   C97       1.0  0.34146  0.38312  0.69982  1.0000
  C   C98       1.0  0.33209  0.03844  0.82882  1.0000
  Fe  Fe17      1.0  0.25555  0.95308  0.72482  1.0000
  S   S31       1.0  0.25874  0.95262  0.65778  1.0000
  H   H166      1.0  0.26089  0.37472  0.54930  1.0000
  H   H167      1.0  0.27517  0.44517  0.54591  1.0000
  H   H168      1.0  0.34944  0.26638  0.68892  1.0000
  H   H169      1.0  0.03394  0.39796  0.80446  1.0000
  C   C99       1.0  0.32664  0.42185  0.56064  1.0000
  H   H170      1.0  0.34796  0.38516  0.55733  1.0000
  H   H171      1.0  0.02955  0.42449  0.88620  1.0000
  H   H172      1.0  0.03347  0.42040  0.95111  1.0000
  H   H173      1.0  0.05911  0.40864  0.98528  1.0000
  C   C100      1.0  0.35154  0.31865  0.67524  1.0000
  H   H174      1.0  0.35198  0.33456  0.65332  1.0000
  H   H175      1.0  0.16749  0.07219  0.56212  1.0000
  C   C101      1.0  0.03038  0.41406  0.82510  1.0000
  C   C102      1.0  0.26099  0.91526  0.52149  1.0000
  C   C103      1.0  0.03110  0.72103  0.14655  1.0000
  C   C104      1.0  0.33385  0.54042  0.26056  1.0000
  H   H176      1.0  0.17687  0.89140  0.52118  1.0000
  C   C105      1.0  0.16028  0.89423  0.49773  1.0000
  H   H177      1.0  0.03427  0.91306  0.04718  1.0000
  Fe  Fe18      1.0  0.25500  0.87219  0.39642  1.0000
  S   S32       1.0  0.24838  0.89369  0.33898  1.0000
  S   S33       1.0  0.27224  0.89686  0.44653  1.0000
  Fe  Fe19      1.0  0.23462  0.82292  0.35908  1.0000
  S   S34       1.0  0.22612  0.84085  0.29920  1.0000
  S   S35       1.0  0.22372  0.78140  0.36382  1.0000
  Fe  Fe20      1.0  0.26812  0.86000  0.30876  1.0000
  S   S36       1.0  0.29791  0.86417  0.25604  1.0000
  Fe  Fe21      1.0  0.20726  0.87256  0.33508  1.0000
  S   S37       1.0  0.16758  0.89432  0.31920  1.0000
  S   S38       1.0  0.27815  0.83994  0.36641  1.0000
  S   S39       1.0  0.21240  0.85322  0.39453  1.0000
  Fe  Fe22      1.0  0.33277  0.68368  0.30236  1.0000
  S   S40       1.0  0.33123  0.68095  0.23532  1.0000
  S   S41       1.0  0.33696  0.72085  0.33448  1.0000
  Fe  Fe23      1.0  0.33723  0.62672  0.31392  1.0000
  S   S42       1.0  0.33755  0.61904  0.24795  1.0000
  S   S43       1.0  0.33792  0.59350  0.35627  1.0000
  C   C106      1.0  0.34587  0.94806  0.37970  1.0000
  Fe  Fe24      1.0  0.05359  0.64081  0.24315  1.0000
  Fe  Fe25      1.0  0.30255  0.64769  0.24590  1.0000
  S   S44       1.0  0.26567  0.63589  0.20792  1.0000
  C   C107      1.0  0.32037  0.94538  0.31630  1.0000
  S   S45       1.0  0.30020  0.65334  0.31251  1.0000
  H   H178      1.0  0.11286  0.81512  0.32126  1.0000
  H   H179      1.0  0.31848  0.48561  0.16778  1.0000
  Fe  Fe26      1.0  0.11394  0.66006  0.23819  1.0000
  S   S46       1.0  0.14954  0.67638  0.27490  1.0000
  S   S47       1.0  0.11606  0.65522  0.17141  1.0000
  S   S48       1.0  0.23148  0.52431  0.32179  1.0000
  C   C108      1.0  0.05927  0.83760  0.07885  1.0000
  S   S49       1.0  0.09567  0.62150  0.24996  1.0000
  S   S50       1.0  0.22181  0.45499  0.36646  1.0000
  H   H180      1.0  0.13612  0.48047  0.27904  1.0000
  C   C109      1.0  0.23361  0.64843  0.22499  1.0000
  C   C110      1.0  0.23315  0.66877  0.25207  1.0000
  C   C111      1.0  0.20718  0.67778  0.26674  1.0000
  C   C112      1.0  0.18180  0.66620  0.25477  1.0000
  C   C113      1.0  0.18232  0.64605  0.22743  1.0000
  C   C114      1.0  0.20819  0.63732  0.21229  1.0000
  H   H181      1.0  0.25277  0.67767  0.26138  1.0000
  H   H182      1.0  0.20676  0.69376  0.28718  1.0000
  H   H183      1.0  0.16288  0.63676  0.21853  1.0000
  H   H184      1.0  0.20854  0.62166  0.19123  1.0000
  C   C115      1.0  0.30733  0.57503  0.34949  1.0000
  C   C116      1.0  0.28588  0.58330  0.32350  1.0000
  C   C117      1.0  0.26236  0.56780  0.31581  1.0000
  C   C118      1.0  0.26031  0.54385  0.33374  1.0000
  C   C119      1.0  0.28162  0.53552  0.35991  1.0000
  C   C120      1.0  0.30503  0.55122  0.36806  1.0000
  H   H185      1.0  0.28774  0.60130  0.30825  1.0000
  H   H186      1.0  0.24632  0.57404  0.29473  1.0000
  H   H187      1.0  0.28004  0.51705  0.37403  1.0000
  H   H188      1.0  0.32167  0.54469  0.38799  1.0000
  C   C121      1.0  0.25696  0.89504  0.49463  1.0000
  C   C122      1.0  0.30934  0.93063  0.27932  1.0000
  H   H189      1.0  0.34746  0.75414  0.19236  1.0000
  H   H190      1.0  0.17314  0.49645  0.16126  1.0000
  C   C123      1.0  0.24086  0.87401  0.50651  1.0000
  C   C124      1.0  0.33817  0.89079  0.39018  1.0000
  H   H191      1.0  0.09183  0.79373  0.16569  1.0000
  H   H192      1.0  0.23786  0.85821  0.48612  1.0000
  C   C125      1.0  0.25460  0.76343  0.35728  1.0000
  C   C126      1.0  0.27997  0.77157  0.37479  1.0000
  C   C127      1.0  0.30502  0.75799  0.36827  1.0000
  C   C128      1.0  0.30486  0.73634  0.34392  1.0000
  C   C129      1.0  0.27946  0.72794  0.32661  1.0000
  C   C130      1.0  0.25420  0.74135  0.33369  1.0000
  H   H193      1.0  0.28020  0.78815  0.39390  1.0000
  H   H194      1.0  0.32462  0.76442  0.38186  1.0000
  H   H195      1.0  0.27935  0.71133  0.30746  1.0000
  H   H196      1.0  0.23458  0.73508  0.32000  1.0000
  H   H197      1.0  0.15506  0.84154  0.33605  1.0000
  H   H198      1.0  0.11550  0.90505  0.27705  1.0000
  C   C131      1.0  0.29654  0.51133  0.23738  1.0000
  C   C132      1.0  0.11356  0.83456  0.31080  1.0000
  S   S51       1.0  0.03995  0.45339  0.07843  1.0000
  H   H199      1.0  0.33250  0.50698  0.30117  1.0000
  C   C133      1.0  0.09067  0.84463  0.28891  1.0000
  H   H200      1.0  0.18636  0.58215  0.22570  1.0000
  S   S52       1.0  0.07200  0.67984  0.23744  1.0000
  C   C134      1.0  0.13817  0.87503  0.30743  1.0000
  C   C135      1.0  0.13742  0.84957  0.31949  1.0000
  H   H201      1.0  0.09162  0.72596  0.28532  1.0000
  H   H202      1.0  0.09940  0.52789  0.13664  1.0000
  H   H203      1.0  0.17472  0.89628  0.41707  1.0000
  C   C136      1.0  0.05863  0.52536  0.10826  1.0000
  H   H204      1.0  0.07385  0.87804  0.25998  1.0000
  C   C137      1.0  0.12172  0.91568  0.42769  1.0000
  H   H205      1.0  0.20482  0.92837  0.50442  1.0000
  C   C138      1.0  0.18540  0.91011  0.43722  1.0000
  H   H206      1.0  0.05166  0.79902  0.09692  1.0000
  H   H207      1.0  0.05858  0.74856  0.17410  1.0000
  C   C139      1.0  0.28637  0.56704  0.21560  1.0000
  C   C140      1.0  0.05141  0.80988  0.06818  1.0000
  C   C141      1.0  0.03516  0.53873  0.09362  1.0000
  C   C142      1.0  0.11503  0.88533  0.28638  1.0000
  C   C143      1.0  0.08671  0.74319  0.26724  1.0000
  C   C144      1.0  0.18191  0.50574  0.22468  1.0000
  S   S53       1.0  0.05038  0.63399  0.17688  1.0000
  H   H208      1.0  0.30248  0.54401  0.16817  1.0000
  H   H209      1.0  0.33302  0.85071  0.32479  1.0000
  Fe  Fe27      1.0  0.24284  0.48291  0.32543  1.0000
  C   C145      1.0  0.09143  0.87009  0.27672  1.0000
  H   H210      1.0  0.35847  0.81041  0.25448  1.0000
  H   H211      1.0  0.06495  0.84874  0.05177  1.0000
  H   H212      1.0  0.15800  0.55056  0.18932  1.0000
  H   H213      1.0  0.17167  0.52802  0.29553  1.0000
  Fe  Fe28      1.0  0.07222  0.67174  0.17168  1.0000
  S   S54       1.0  0.10761  0.58034  0.15679  1.0000
  Fe  Fe29      1.0  0.09417  0.61796  0.18285  1.0000
  H   H214      1.0  0.21065  0.94474  0.42553  1.0000
  H   H215      1.0  0.12580  0.93412  0.48446  1.0000
  H   H216      1.0  0.32646  0.92096  0.26249  1.0000
  H   H217      1.0  0.18002  0.86128  0.46865  1.0000
  C   C146      1.0  0.08144  0.53845  0.12557  1.0000
  H   H218      1.0  0.35689  0.88112  0.37733  1.0000
  C   C147      1.0  0.14809  0.49362  0.29867  1.0000
  H   H219      1.0  0.31803  0.55138  0.27784  1.0000
  H   H220      1.0  0.09682  0.51414  0.25890  1.0000
  C   C148      1.0  0.15849  0.86817  0.47645  1.0000
  C   C149      1.0  0.18988  0.50553  0.17984  1.0000
  H   H221      1.0  0.27809  0.57998  0.19192  1.0000
  C   C150      1.0  0.10161  0.52013  0.22777  1.0000
  H   H222      1.0  0.14171  0.56041  0.23419  1.0000
  H   H223      1.0  0.13534  0.53325  0.29052  1.0000
  H   H224      1.0  0.08357  0.73722  0.23578  1.0000
  H   H225      1.0  0.34347  0.86834  0.19995  1.0000
  H   H226      1.0  0.09986  0.54108  0.22487  1.0000
  H   H227      1.0  0.08494  0.51167  0.20821  1.0000
  H   H228      1.0  0.31754  0.89526  0.33382  1.0000
  C   C151      1.0  0.35000  0.79161  0.24535  1.0000
  N   N8        1.0  0.33963  0.93084  0.34453  1.0000
  C   C152      1.0  0.34290  0.51391  0.20224  1.0000
  H   H229      1.0  0.04203  0.84754  0.09494  1.0000
  C   C153      1.0  0.32839  0.78351  0.27749  1.0000
  H   H230      1.0  0.31845  0.45749  0.50473  1.0000
  H   H231      1.0  0.25265  0.51270  0.21544  1.0000
  C   C154      1.0  0.34660  0.85426  0.29939  1.0000
  H   H232      1.0  0.10295  0.92745  0.41976  1.0000
  H   H233      1.0  0.34727  0.73976  0.23963  1.0000
  H   H234      1.0  0.06610  0.75118  0.27722  1.0000
  C   C155      1.0  0.18332  0.93601  0.49770  1.0000
  H   H235      1.0  0.33752  0.79538  0.21761  1.0000
  H   H236      1.0  0.32820  0.56334  0.19057  1.0000
  H   H237      1.0  0.30288  0.91413  0.37273  1.0000
  H   H238      1.0  0.31704  0.76579  0.26928  1.0000
  H   H239      1.0  0.33830  0.78139  0.30746  1.0000
  H   H240      1.0  0.31204  0.79865  0.28039  1.0000
  H   H241      1.0  0.13314  0.91209  0.39920  1.0000
  H   H242      1.0  0.04357  0.75812  0.07641  1.0000
  H   H243      1.0  0.35401  0.53275  0.31802  1.0000
  H   H244      1.0  0.14462  0.94922  0.44534  1.0000
  H   H245      1.0  0.05768  0.59897  0.11395  1.0000
  H   H246      1.0  0.20651  0.92399  0.38385  1.0000
  H   H247      1.0  0.28530  0.51980  0.26353  1.0000
  H   H248      1.0  0.32327  0.87544  0.39901  1.0000
  N   N9        1.0  0.21201  0.63739  0.38165  1.0000
  C   C156      1.0  0.23203  0.61592  0.39156  1.0000
  C   C157      1.0  0.22871  0.65870  0.36280  1.0000
  C   C158      1.0  0.18940  0.62905  0.35227  1.0000
  C   C159      1.0  0.19784  0.64613  0.41967  1.0000
  C   C160      1.0  0.21827  0.59177  0.40930  1.0000
  C   C161      1.0  0.25136  0.67136  0.38977  1.0000
  C   C162      1.0  0.19974  0.61357  0.31583  1.0000
  C   C163      1.0  0.17945  0.67034  0.41582  1.0000
  H   H249      1.0  0.24448  0.61034  0.36472  1.0000
  H   H250      1.0  0.24815  0.62204  0.41398  1.0000
  H   H251      1.0  0.21441  0.67403  0.35175  1.0000
  H   H252      1.0  0.23997  0.65189  0.33565  1.0000
  H   H253      1.0  0.17274  0.61752  0.36733  1.0000
  H   H254      1.0  0.17793  0.64582  0.33981  1.0000
  H   H255      1.0  0.18362  0.63101  0.43150  1.0000
  H   H256      1.0  0.21373  0.64943  0.44390  1.0000
  H   H257      1.0  0.21077  0.59513  0.44035  1.0000
  H   H258      1.0  0.20056  0.58434  0.39085  1.0000
  H   H259      1.0  0.23455  0.57648  0.41086  1.0000
  H   H260      1.0  0.26891  0.65815  0.39733  1.0000
  H   H261      1.0  0.26109  0.68734  0.37301  1.0000
  H   H262      1.0  0.24238  0.67966  0.41748  1.0000
  H   H263      1.0  0.20626  0.59410  0.32447  1.0000
  H   H264      1.0  0.21738  0.62296  0.29982  1.0000
  H   H265      1.0  0.18194  0.61150  0.29416  1.0000
  H   H266      1.0  0.19235  0.68746  0.40909  1.0000
  H   H267      1.0  0.16875  0.67398  0.44489  1.0000
  H   H268      1.0  0.16261  0.66829  0.39274  1.0000
  N   N10       1.0  0.13271  0.76404  0.24081  1.0000
  C   C164      1.0  0.15312  0.78532  0.25034  1.0000
  C   C165      1.0  0.12011  0.76901  0.19982  1.0000
  C   C166      1.0  0.14750  0.73864  0.24034  1.0000
  C   C167      1.0  0.11024  0.76335  0.27275  1.0000
  C   C168      1.0  0.17057  0.78234  0.28932  1.0000
  C   C169      1.0  0.09790  0.79055  0.19753  1.0000
  C   C170      1.0  0.17326  0.73664  0.21216  1.0000
  H   H269      1.0  0.30535  0.49306  0.24891  1.0000
  H   H270      1.0  0.16843  0.78825  0.22544  1.0000
  H   H271      1.0  0.14167  0.80375  0.25296  1.0000
  H   H272      1.0  0.11028  0.75155  0.18696  1.0000
  H   H273      1.0  0.13701  0.77406  0.17800  1.0000
  H   H274      1.0  0.15456  0.73306  0.27103  1.0000
  H   H275      1.0  0.13253  0.72331  0.23106  1.0000
  H   H276      1.0  0.11983  0.75934  0.30261  1.0000
  H   H277      1.0  0.10015  0.78226  0.27672  1.0000
  H   H278      1.0  0.18399  0.76503  0.28946  1.0000
  H   H279      1.0  0.18521  0.79876  0.29199  1.0000
  H   H280      1.0  0.15717  0.78277  0.31653  1.0000
  C   C171      1.0  0.27334  0.50462  0.20607  1.0000
  H   H281      1.0  0.07819  0.78548  0.21372  1.0000
  H   H282      1.0  0.10617  0.80883  0.20935  1.0000
  H   H283      1.0  0.19083  0.74934  0.22157  1.0000
  H   H284      1.0  0.16741  0.74044  0.18049  1.0000
  H   H285      1.0  0.18158  0.71688  0.21334  1.0000
  C   C172      1.0  0.19526  0.93213  0.41004  1.0000
  H   H286      1.0  0.14021  0.89697  0.51471  1.0000
  C   C173      1.0  0.18711  0.56204  0.23595  1.0000
  H   H287      1.0  0.17876  0.48550  0.23332  1.0000
  H   H288      1.0  0.27763  0.51057  0.17497  1.0000
  C   C174      1.0  0.36162  0.74961  0.21820  1.0000
  C   C175      1.0  0.31017  0.55041  0.19782  1.0000
  H   H289      1.0  0.18960  0.56245  0.26898  1.0000
  H   H290      1.0  0.19445  0.52484  0.16817  1.0000
  H   H291      1.0  0.27335  0.93162  0.51246  1.0000
  H   H292      1.0  0.13031  0.48925  0.21584  1.0000
  H   H293      1.0  0.16878  0.48460  0.30616  1.0000
  H   H294      1.0  0.05927  0.50485  0.10649  1.0000
  H   H295      1.0  0.13205  0.51417  0.18120  1.0000
  C   C176      1.0  0.33473  0.86027  0.26209  1.0000
  N   N11       1.0  0.16685  0.91735  0.47219  1.0000
  H   H296      1.0  0.29442  0.57943  0.23989  1.0000
  C   C177      1.0  0.15255  0.52034  0.28021  1.0000
  H   H297      1.0  0.29287  0.91659  0.28768  1.0000
  C   C178      1.0  0.35258  0.86388  0.22897  1.0000
  H   H298      1.0  0.27039  0.48367  0.20513  1.0000
  H   H299      1.0  0.20936  0.49393  0.17595  1.0000
  H   H300      1.0  0.06934  0.80178  0.05076  1.0000
  H   H301      1.0  0.13532  0.49531  0.32646  1.0000
  C   C179      1.0  0.13076  0.51030  0.21391  1.0000
  N   N12       1.0  0.15619  0.52125  0.23535  1.0000
  H   H302      1.0  0.20076  0.51200  0.24230  1.0000
  C   C180      1.0  0.15950  0.54864  0.22256  1.0000
  H   H303      1.0  0.20620  0.55342  0.22226  1.0000
  H   H304      1.0  0.05527  0.57963  0.21048  1.0000
  H   H305      1.0  0.32667  0.51441  0.13953  1.0000
  C   C181      1.0  0.05783  0.57846  0.11295  1.0000
  H   H306      1.0  0.20484  0.90026  0.44820  1.0000
  C   C182      1.0  0.33425  0.50090  0.16265  1.0000
  S   S55       1.0  0.05914  0.70241  0.12858  1.0000
  N   N13       1.0  0.32021  0.52866  0.22390  1.0000
  H   H307      1.0  0.04795  0.55391  0.24330  1.0000
  H   H308      1.0  0.26822  0.55580  0.22684  1.0000
  S   S56       1.0  0.28635  0.46617  0.33239  1.0000
  C   C183      1.0  0.08066  0.56492  0.12941  1.0000
  C   C184      1.0  0.30779  0.47073  0.52575  1.0000
  H   H309      1.0  0.07813  0.83761  0.09892  1.0000
  S   S57       1.0  0.06183  0.82464  0.27696  1.0000
  H   H310      1.0  0.34367  0.90094  0.41825  1.0000
  H   H311      1.0  0.14937  0.85394  0.49741  1.0000
  H   H312      1.0  0.35118  0.49823  0.22139  1.0000
  C   C185      1.0  0.32332  0.90798  0.35915  1.0000
  C   C186      1.0  0.03696  0.74378  0.16668  1.0000
  H   H313      1.0  0.29895  0.94415  0.25828  1.0000
  C   C187      1.0  0.03520  0.56538  0.09472  1.0000
  H   H314      1.0  0.17728  0.94327  0.39771  1.0000
  C   C188      1.0  0.03796  0.57001  0.22707  1.0000
  H   H315      1.0  0.11347  0.89765  0.44018  1.0000
  S   S58       1.0  0.23261  0.46151  0.26934  1.0000
  H   H316      1.0  0.36137  0.52646  0.19566  1.0000
  H   H317      1.0  0.14518  0.86823  0.44909  1.0000
  H   H318      1.0  0.35325  0.49144  0.14989  1.0000
  C   C189      1.0  0.34750  0.52183  0.29094  1.0000
  C   C190      1.0  0.13991  0.93024  0.45853  1.0000
  H   H319      1.0  0.35048  0.55446  0.25192  1.0000
  H   H320      1.0  0.29192  0.48140  0.50765  1.0000
  H   H321      1.0  0.35943  0.93873  0.40251  1.0000
  H   H322      1.0  0.02934  0.58401  0.24861  1.0000
  H   H323      1.0  0.36145  0.90598  0.30304  1.0000
  H   H324      1.0  0.32324  0.48487  0.53725  1.0000
  H   H325      1.0  0.28120  0.47182  0.57752  1.0000
  H   H326      1.0  0.29499  0.90770  0.70266  1.0000
  H   H327      1.0  0.25123  0.87299  0.73596  1.0000
  H   H328      1.0  0.28632  0.86403  0.75253  1.0000
  H   H329      1.0  0.03541  0.81332  0.95497  1.0000
  H   H330      1.0  0.26357  0.83954  0.62673  1.0000
  H   H331      1.0  0.34578  0.46660  0.58887  1.0000
  C   C191      1.0  0.28448  0.88908  0.69734  1.0000
  Fe  Fe30      1.0  0.22050  0.92728  0.65943  1.0000
  S   S59       1.0  0.21972  0.92502  0.72689  1.0000
  S   S60       1.0  0.21744  0.89223  0.62004  1.0000
  C   C192      1.0  0.33407  0.87398  0.68752  1.0000
  H   H332      1.0  0.28019  0.87953  0.61898  1.0000
  C   C193      1.0  0.33047  0.45744  0.60966  1.0000
  C   C194      1.0  0.24851  0.91477  0.55970  1.0000
  H   H333      1.0  0.27354  0.89529  0.76010  1.0000
  H   H334      1.0  0.31360  0.86497  0.61094  1.0000
  H   H335      1.0  0.33845  0.90509  0.61916  1.0000
  H   H336      1.0  0.34181  0.89378  0.68387  1.0000
  H   H337      1.0  0.33078  0.88170  0.75220  1.0000
  C   C195      1.0  0.32578  0.94164  0.76363  1.0000
  C   C196      1.0  0.26451  0.83842  0.65998  1.0000
  C   C197      1.0  0.33780  0.94211  0.72535  1.0000
  H   H338      1.0  0.26512  0.89358  0.67946  1.0000
  H   H339      1.0  0.29573  0.83649  0.70689  1.0000
  H   H340      1.0  0.34810  0.86191  0.66857  1.0000
  C   C198      1.0  0.27367  0.87925  0.73839  1.0000
  C   C199      1.0  0.34289  0.93585  0.79690  1.0000
  N   N14       1.0  0.30365  0.87163  0.67378  1.0000
  H   H341      1.0  0.16734  0.92680  0.55871  1.0000
  H   H342      1.0  0.21694  0.85675  0.55447  1.0000
  H   H343      1.0  0.30750  0.92066  0.63978  1.0000
  C   C200      1.0  0.23262  0.89369  0.57179  1.0000
  H   H344      1.0  0.04106  0.77767  0.00721  1.0000
  C   C201      1.0  0.22908  0.87320  0.54523  1.0000
  H   H345      1.0  0.30811  0.91080  0.58849  1.0000
  C   C202      1.0  0.29463  0.84412  0.67599  1.0000
  H   H346      1.0  0.25850  0.81867  0.66828  1.0000
  C   C203      1.0  0.06390  0.94425  0.77052  1.0000
  H   H347      1.0  0.25123  0.93074  0.57967  1.0000
  H   H348      1.0  0.33374  0.93564  0.82664  1.0000
  C   C204      1.0  0.30246  0.87922  0.63001  1.0000
  H   H349      1.0  0.30961  0.83193  0.65875  1.0000
  C   C205      1.0  0.31493  0.90552  0.61934  1.0000
  H   H350      1.0  0.04507  0.84540  0.96894  1.0000
  H   H351      1.0  0.33424  0.84794  0.73994  1.0000
  C   C206      1.0  0.34047  0.86756  0.73168  1.0000
  H   H352      1.0  0.06333  0.81935  0.99068  1.0000
  H   H353      1.0  0.24829  0.85132  0.67271  1.0000
  C   C207      1.0  0.04218  0.82568  0.98031  1.0000
  H   H354      1.0  0.28336  0.45641  0.65981  1.0000
  H   H355      1.0  0.31872  0.47344  0.62382  1.0000
  H   H356      1.0  0.25462  0.45212  0.62367  1.0000
  C   C208      1.0  0.29223  0.45677  0.56006  1.0000
  H   H357      1.0  0.32124  0.46105  0.85255  1.0000
  H   H358      1.0  0.06636  0.94798  0.83460  1.0000
  C   C209      1.0  0.16985  0.94334  0.53832  1.0000
  H   H359      1.0  0.34486  0.45376  0.90990  1.0000
  H   H360      1.0  0.32493  0.94721  0.69966  1.0000
  C   C210      1.0  0.07791  0.94897  0.80674  1.0000
  S   S61       1.0  0.29001  0.94957  0.77196  1.0000
  C   C211      1.0  0.07927  0.94511  0.73450  1.0000
  H   H361      1.0  0.06858  0.94134  0.70636  1.0000
  H   H362      1.0  0.45787  0.34916  0.20606  1.0000
  H   H363      1.0  0.50405  0.97644  0.08804  1.0000
  Fe  Fe31      1.0  0.49857  0.42080  0.13180  1.0000
  S   S62       1.0  0.50044  0.41658  0.19919  1.0000
  S   S63       1.0  0.49531  0.38600  0.09202  1.0000
  H   H364      1.0  0.64122  0.39359  0.17646  1.0000
  C   C212      1.0  0.39399  0.39172  0.11894  1.0000
  C   C213      1.0  0.63733  0.40768  0.19946  1.0000
  C   C214      1.0  0.45475  0.35668  0.17519  1.0000
  Fe  Fe32      1.0  0.53491  0.44600  0.19635  1.0000
  H   H365      1.0  0.45127  0.31705  0.15418  1.0000
  C   C215      1.0  0.65442  0.43353  0.25450  1.0000
  H   H366      1.0  0.64714  0.38075  0.40601  1.0000
  H   H367      1.0  0.67324  0.40629  0.33537  1.0000
  H   H368      1.0  0.44993  0.37993  0.25104  1.0000
  H   H369      1.0  0.66793  0.31149  0.31208  1.0000
  H   H370      1.0  0.43554  0.40496  0.19302  1.0000
  S   S64       1.0  0.57153  0.45047  0.23985  1.0000
  H   H371      1.0  0.62506  0.40242  0.35611  1.0000
  C   C216      1.0  0.60491  0.43616  0.23372  1.0000
  H   H372      1.0  0.63807  0.33162  0.30665  1.0000
  H   H373      1.0  0.40080  0.44765  0.17551  1.0000
  H   H374      1.0  0.48929  0.00423  0.04496  1.0000
  H   H375      1.0  0.48607  0.33005  0.15313  1.0000
  H   H376      1.0  0.45623  0.95621  0.06816  1.0000
  H   H377      1.0  0.39948  0.39602  0.19898  1.0000
  C   C217      1.0  0.61009  0.41827  0.20357  1.0000
  H   H378      1.0  0.41090  0.32889  0.11730  1.0000
  C   C218      1.0  0.66111  0.33171  0.31371  1.0000
  C   C219      1.0  0.62707  0.44354  0.25939  1.0000
  C   C220      1.0  0.39582  0.32894  0.14251  1.0000
  H   H379      1.0  0.59308  0.41250  0.18368  1.0000
  H   H380      1.0  0.67134  0.43968  0.27406  1.0000
  C   C221      1.0  0.46339  0.33459  0.14744  1.0000
  Fe  Fe33      1.0  0.46964  0.44922  0.19961  1.0000
  H   H381      1.0  0.66941  0.34290  0.43795  1.0000
  H   H382      1.0  0.43926  0.39449  0.12526  1.0000
  C   C222      1.0  0.63184  0.38907  0.33219  1.0000
  H   H383      1.0  0.41896  0.39731  0.26375  1.0000
  C   C223      1.0  0.66640  0.34174  0.35684  1.0000
  H   H384      1.0  0.62105  0.37058  0.33635  1.0000
  C   C224      1.0  0.42286  0.37938  0.12882  1.0000
  C   C225      1.0  0.47523  0.95395  0.04868  1.0000
  C   C226      1.0  0.38725  0.44718  0.20158  1.0000
  H   H385      1.0  0.67247  0.34180  0.28956  1.0000
  C   C227      1.0  0.42150  0.38849  0.20010  1.0000
  N   N15       1.0  0.42528  0.36734  0.16983  1.0000
  C   C228      1.0  0.65958  0.41536  0.22481  1.0000
  H   H386      1.0  0.36835  0.98249  0.39733  1.0000
  C   C229      1.0  0.42690  0.38158  0.24451  1.0000
  H   H387      1.0  0.62405  0.39708  0.30335  1.0000
  H   H388      1.0  0.47077  0.37201  0.17129  1.0000
  H   H389      1.0  0.39095  0.40964  0.13588  1.0000
  H   H390      1.0  0.42758  0.36590  0.10429  1.0000
  H   H391      1.0  0.39501  0.30911  0.15409  1.0000
  C   C230      1.0  0.50158  0.95704  0.07565  1.0000
  H   H392      1.0  0.46188  0.33944  0.11518  1.0000
  H   H393      1.0  0.67351  0.37137  0.46646  1.0000
  S   S65       1.0  0.53577  0.44756  0.12897  1.0000
  H   H394      1.0  0.39350  0.39689  0.08661  1.0000
  C   C231      1.0  0.66449  0.38678  0.33096  1.0000
  H   H395      1.0  0.64573  0.33998  0.37269  1.0000
  C   C232      1.0  0.40305  0.34726  0.17753  1.0000
  C   C233      1.0  0.67984  0.36181  0.43811  1.0000
  H   H396      1.0  0.68099  0.32816  0.37224  1.0000
  H   H397      1.0  0.37425  0.33299  0.13060  1.0000
  H   H398      1.0  0.47564  0.43086  0.04942  1.0000
  N   N16       1.0  0.67747  0.36858  0.36090  1.0000
  C   C234      1.0  0.67041  0.37851  0.40227  1.0000
  H   H399      1.0  0.67025  0.38206  0.29969  1.0000
  H   H400      1.0  0.41565  0.36408  0.25384  1.0000
  H   H401      1.0  0.45237  0.00079  0.04679  1.0000
  H   H402      1.0  0.67959  0.39788  0.40683  1.0000
  H   H403      1.0  0.37590  0.37882  0.12461  1.0000
  H   H404      1.0  0.40925  0.33536  0.20380  1.0000
  H   H405      1.0  0.37845  0.97118  0.34877  1.0000
  H   H406      1.0  0.38263  0.35639  0.18629  1.0000
  S   S66       1.0  0.69342  0.40162  0.21952  1.0000
  C   C235      1.0  0.39909  0.45015  0.23981  1.0000
  C   C236      1.0  0.38132  0.45013  0.27344  1.0000
  C   C237      1.0  0.48392  0.39085  0.04219  1.0000
  H   H407      1.0  0.65776  0.45029  0.13389  1.0000
  H   H408      1.0  0.52111  0.95085  0.06003  1.0000
  Fe  Fe34      1.0  0.50910  0.13473  0.77647  1.0000
  S   S67       1.0  0.46915  0.12817  0.74067  1.0000
  S   S68       1.0  0.51164  0.13432  0.84364  1.0000
  Fe  Fe35      1.0  0.45356  0.36963  0.77225  1.0000
  S   S69       1.0  0.42652  0.38055  0.71869  1.0000
  S   S70       1.0  0.43300  0.35472  0.82782  1.0000
  C   C238      1.0  0.52578  0.97989  0.99300  1.0000
  H   H409      1.0  0.48515  0.01699  0.97050  1.0000
  C   C239      1.0  0.37883  0.38614  0.76509  1.0000
  C   C240      1.0  0.38969  0.38298  0.72653  1.0000
  C   C241      1.0  0.47542  0.41492  0.02894  1.0000
  H   H410      1.0  0.62419  0.19960  0.67031  1.0000
  H   H411      1.0  0.51625  0.42852  0.91475  1.0000
  H   H412      1.0  0.45792  0.06584  0.73286  1.0000
  C   C242      1.0  0.47649  0.23790  0.81534  1.0000
  C   C243      1.0  0.49641  0.21968  0.82742  1.0000
  H   H413      1.0  0.46237  0.23388  0.79048  1.0000
  H   H414      1.0  0.49728  0.20155  0.81227  1.0000
  C   C244      1.0  0.39004  0.16692  0.89157  1.0000
  C   C245      1.0  0.41159  0.10835  0.82563  1.0000
  C   C246      1.0  0.43740  0.11398  0.80658  1.0000
  C   C247      1.0  0.43784  0.11929  0.76544  1.0000
  C   C248      1.0  0.41267  0.11775  0.74320  1.0000
  H   H415      1.0  0.37926  0.37908  0.66388  1.0000
  H   H416      1.0  0.41125  0.10464  0.85756  1.0000
  H   H417      1.0  0.45680  0.11438  0.82381  1.0000
  H   H418      1.0  0.41294  0.12137  0.71123  1.0000
  C   C249      1.0  0.54835  0.41241  0.97758  1.0000
  C   C250      1.0  0.50734  0.06389  0.87815  1.0000
  C   C251      1.0  0.48443  0.04735  0.88438  1.0000
  H   H419      1.0  0.50376  0.08414  0.87661  1.0000
  H   H420      1.0  0.46321  0.05495  0.88731  1.0000
  H   H421      1.0  0.54282  0.34331  0.93224  1.0000
  C   C252      1.0  0.47556  0.37400  0.97489  1.0000
  H   H422      1.0  0.63347  0.01553  0.81014  1.0000
  H   H423      1.0  0.47570  0.35816  0.95417  1.0000
  S   S71       1.0  0.45983  0.00040  0.89016  1.0000
  Fe  Fe36      1.0  0.55067  0.11064  0.83404  1.0000
  S   S72       1.0  0.54597  0.10857  0.76737  1.0000
  S   S73       1.0  0.56355  0.07427  0.86426  1.0000
  Fe  Fe37      1.0  0.54089  0.16756  0.83537  1.0000
  S   S74       1.0  0.53544  0.17006  0.76858  1.0000
  S   S75       1.0  0.53983  0.20220  0.87477  1.0000
  Fe  Fe38      1.0  0.57280  0.14375  0.76640  1.0000
  S   S76       1.0  0.60799  0.14723  0.72107  1.0000
  S   S77       1.0  0.58036  0.14382  0.83271  1.0000
  Fe  Fe39      1.0  0.46675  0.37590  0.86168  1.0000
  S   S78       1.0  0.48475  0.39381  0.80617  1.0000
  S   S79       1.0  0.45759  0.40397  0.91139  1.0000
  Fe  Fe40      1.0  0.46518  0.32359  0.82276  1.0000
  S   S80       1.0  0.48447  0.33736  0.76548  1.0000
  S   S81       1.0  0.44932  0.28344  0.82031  1.0000
  Fe  Fe41      1.0  0.51371  0.35989  0.80517  1.0000
  S   S82       1.0  0.56131  0.36578  0.80431  1.0000
  S   S83       1.0  0.49709  0.34302  0.86254  1.0000
  C   C253      1.0  0.58199  0.35651  0.76274  1.0000
  H   H424      1.0  0.68014  0.23302  0.61162  1.0000
  H   H425      1.0  0.37587  0.15815  0.82025  1.0000
  C   C254      1.0  0.61667  0.33881  0.69973  1.0000
  C   C255      1.0  0.58711  0.33564  0.69818  1.0000
  C   C256      1.0  0.56978  0.34457  0.72944  1.0000
  H   H426      1.0  0.57760  0.32599  0.67281  1.0000
  H   H427      1.0  0.54708  0.34186  0.72800  1.0000
  C   C257      1.0  0.51463  0.22473  0.85962  1.0000
  C   C258      1.0  0.51311  0.24818  0.87943  1.0000
  C   C259      1.0  0.49334  0.26656  0.86705  1.0000
  C   C260      1.0  0.47494  0.26131  0.83515  1.0000
  H   H428      1.0  0.52722  0.25211  0.90433  1.0000
  H   H429      1.0  0.49203  0.28457  0.88262  1.0000
  C   C261      1.0  0.64211  0.15036  0.74185  1.0000
  C   C262      1.0  0.66586  0.14296  0.71951  1.0000
  H   H430      1.0  0.67780  0.03807  0.79223  1.0000
  H   H431      1.0  0.60262  0.96761  0.75500  1.0000
  H   H432      1.0  0.64432  0.25524  0.65370  1.0000
  C   C263      1.0  0.64588  0.16029  0.78039  1.0000
  H   H433      1.0  0.66311  0.13532  0.68960  1.0000
  S   S84       1.0  0.69306  0.33012  0.58148  1.0000
  H   H434      1.0  0.47115  0.18253  0.87551  1.0000
  H   H435      1.0  0.62786  0.16685  0.79730  1.0000
  C   C264      1.0  0.48883  0.02102  0.88547  1.0000
  C   C265      1.0  0.51631  0.01132  0.88192  1.0000
  C   C266      1.0  0.53932  0.02789  0.87700  1.0000
  C   C267      1.0  0.53481  0.05415  0.87435  1.0000
  H   H436      1.0  0.51993  0.99106  0.88275  1.0000
  H   H437      1.0  0.56052  0.02027  0.87398  1.0000
  C   C268      1.0  0.46724  0.39815  0.96168  1.0000
  C   C269      1.0  0.46692  0.41849  0.98890  1.0000
  H   H438      1.0  0.37433  0.33367  0.75615  1.0000
  C   C270      1.0  0.68768  0.24224  0.63956  1.0000
  C   C271      1.0  0.39579  0.23374  0.84355  1.0000
  H   H439      1.0  0.62432  0.43279  0.92584  1.0000
  C   C272      1.0  0.36791  0.00119  0.76811  1.0000
  H   H440      1.0  0.44534  0.17319  0.91076  1.0000
  H   H441      1.0  0.65291  0.95467  0.75976  1.0000
  C   C273      1.0  0.42433  0.43820  0.82673  1.0000
  C   C274      1.0  0.46809  0.01859  0.99304  1.0000
  H   H442      1.0  0.43593  0.19553  0.82603  1.0000
  Fe  Fe42      1.0  0.68299  0.33531  0.64692  1.0000
  H   H443      1.0  0.52876  0.40185  0.98562  1.0000
  H   H444      1.0  0.37115  0.99369  0.73731  1.0000
  H   H445      1.0  0.38053  0.26278  0.66013  1.0000
  H   H446      1.0  0.56637  0.43108  0.85476  1.0000
  C   C275      1.0  0.54293  0.43956  0.99364  1.0000
  H   H447      1.0  0.41394  0.44295  0.79777  1.0000
  H   H448      1.0  0.65216  0.17856  0.65485  1.0000
  H   H449      1.0  0.59982  0.08760  0.72056  1.0000
  H   H450      1.0  0.44268  0.97681  0.96415  1.0000
  C   C276      1.0  0.43542  0.27685  0.68513  1.0000
  C   C277      1.0  0.66984  0.08913  0.79106  1.0000
  H   H451      1.0  0.43679  0.29272  0.66327  1.0000
  C   C278      1.0  0.62037  0.07811  0.77710  1.0000
  H   H452      1.0  0.44716  0.01773  0.97783  1.0000
  H   H453      1.0  0.54587  0.44905  0.91848  1.0000
  S   S85       1.0  0.47828  0.95916  0.80040  1.0000
  H   H454      1.0  0.54739  0.36180  0.97649  1.0000
  H   H455      1.0  0.61494  0.09758  0.78777  1.0000
  C   C279      1.0  0.38229  0.31010  0.68407  1.0000
  C   C280      1.0  0.66578  0.26319  0.64872  1.0000
  H   H456      1.0  0.56540  0.40374  0.99635  1.0000
  H   H457      1.0  0.62110  0.36937  0.78965  1.0000
  C   C281      1.0  0.38620  0.10828  0.80363  1.0000
  C   C282      1.0  0.37095  0.38160  0.69382  1.0000
  H   H458      1.0  0.59714  0.39522  0.94484  1.0000
  C   C283      1.0  0.41648  0.28381  0.72111  1.0000
  C   C284      1.0  0.62881  0.35139  0.73252  1.0000
  H   H459      1.0  0.39313  0.38737  0.79023  1.0000
  H   H460      1.0  0.36647  0.22365  0.69599  1.0000
  C   C285      1.0  0.58626  0.40967  0.92588  1.0000
  C   C286      1.0  0.67315  0.16212  0.79702  1.0000
  C   C287      1.0  0.66618  0.21204  0.68909  1.0000
  H   H461      1.0  0.64659  0.00581  0.76239  1.0000
  H   H462      1.0  0.67415  0.09225  0.75871  1.0000
  H   H463      1.0  0.38134  0.01817  0.77179  1.0000
  H   H464      1.0  0.60364  0.22184  0.83803  1.0000
  H   H465      1.0  0.65815  0.09853  0.87043  1.0000
  H   H466      1.0  0.62206  0.06030  0.71688  1.0000
  H   H467      1.0  0.63078  0.08215  0.89694  1.0000
  H   H468      1.0  0.39918  0.14778  0.88514  1.0000
  H   H469      1.0  0.51646  0.07300  0.66222  1.0000
  C   C288      1.0  0.38694  0.11225  0.76222  1.0000
  H   H470      1.0  0.41027  0.17135  0.77290  1.0000
  H   H471      1.0  0.52282  0.03400  0.69723  1.0000
  H   H472      1.0  0.37255  0.01928  0.84285  1.0000
  H   H473      1.0  0.40035  0.31566  0.78455  1.0000
  C   C289      1.0  0.38011  0.17891  0.82166  1.0000
  N   N17       1.0  0.38546  0.28761  0.71185  1.0000
  C   C290      1.0  0.62030  0.07938  0.73080  1.0000
  H   H474      1.0  0.62201  0.05259  0.84404  1.0000
  H   H475      1.0  0.39182  0.25218  0.85882  1.0000
  H   H476      1.0  0.60200  0.06610  0.78611  1.0000
  H   H477      1.0  0.48137  0.06064  0.66576  1.0000
  C   C291      1.0  0.53953  0.42960  0.90915  1.0000
  H   H478      1.0  0.64539  0.20830  0.62921  1.0000
  H   H479      1.0  0.43032  0.06047  0.79254  1.0000
  C   C292      1.0  0.49932  0.06798  0.68360  1.0000
  H   H480      1.0  0.40083  0.23336  0.71265  1.0000
  H   H481      1.0  0.65366  0.22634  0.70601  1.0000
  N   N18       1.0  0.64749  0.06895  0.79652  1.0000
  H   H482      1.0  0.54928  0.02001  0.75418  1.0000
  H   H483      1.0  0.41947  0.26901  0.74468  1.0000
  H   H484      1.0  0.55741  0.31114  0.86522  1.0000
  H   H485      1.0  0.54112  0.00270  0.79856  1.0000
  H   H486      1.0  0.49310  0.08600  0.69845  1.0000
  H   H487      1.0  0.62154  0.10096  0.85433  1.0000
  H   H488      1.0  0.40275  0.21624  0.90110  1.0000
  C   C293      1.0  0.64169  0.06408  0.84035  1.0000
  H   H489      1.0  0.38701  0.40176  0.85590  1.0000
  N   N19       1.0  0.39749  0.18545  0.85854  1.0000
  N   N20       1.0  0.69314  0.22332  0.67278  1.0000
  S   S86       1.0  0.63758  0.32438  0.66228  1.0000
  H   H490      1.0  0.65857  0.05218  0.85430  1.0000
  C   C294      1.0  0.64626  0.19885  0.65880  1.0000
  N   N21       1.0  0.47302  0.97116  0.01256  1.0000
  H   H491      1.0  0.69378  0.25240  0.71931  1.0000
  C   C295      1.0  0.38072  0.41339  0.88218  1.0000
  H   H492      1.0  0.61650  0.02642  0.76441  1.0000
  H   H493      1.0  0.36770  0.11112  0.74470  1.0000
  H   H494      1.0  0.63714  0.09196  0.71899  1.0000
  H   H495      1.0  0.46980  0.03787  0.00648  1.0000
  C   C296      1.0  0.42873  0.18240  0.84993  1.0000
  C   C297      1.0  0.63710  0.02207  0.77893  1.0000
  C   C298      1.0  0.63794  0.08801  0.86658  1.0000
  H   H496      1.0  0.40187  0.20456  0.77817  1.0000
  H   H497      1.0  0.52224  0.44699  0.98274  1.0000
  H   H498      1.0  0.59092  0.40409  0.89433  1.0000
  H   H499      1.0  0.43822  0.00393  0.68825  1.0000
  H   H500      1.0  0.45339  0.03706  0.81307  1.0000
  H   H501      1.0  0.36793  0.21345  0.88156  1.0000
  H   H502      1.0  0.41791  0.23422  0.83289  1.0000
  H   H503      1.0  0.57652  0.35732  0.94174  1.0000
  N   N22       1.0  0.48994  0.03631  0.74244  1.0000
  C   C299      1.0  0.50628  0.02679  0.77853  1.0000
  C   C300      1.0  0.46880  0.05561  0.75758  1.0000
  C   C301      1.0  0.51094  0.04870  0.71441  1.0000
  C   C302      1.0  0.47588  0.01372  0.72278  1.0000
  C   C303      1.0  0.53208  0.00958  0.76969  1.0000
  C   C304      1.0  0.44508  0.04487  0.78452  1.0000
  C   C305      1.0  0.45458  0.01916  0.68861  1.0000
  H   H504      1.0  0.51439  0.04307  0.79663  1.0000
  H   H505      1.0  0.49238  0.01570  0.79894  1.0000
  H   H506      1.0  0.47988  0.07096  0.77466  1.0000
  H   H507      1.0  0.52729  0.05937  0.73184  1.0000
  H   H508      1.0  0.64567  0.28024  0.74719  1.0000
  H   H509      1.0  0.49200  0.00076  0.70967  1.0000
  H   H510      1.0  0.46505  0.00144  0.74525  1.0000
  H   H511      1.0  0.52622  0.99239  0.75238  1.0000
  H   H512      1.0  0.39927  0.17308  0.92076  1.0000
  C   C306      1.0  0.39064  0.21188  0.87325  1.0000
  C   C307      1.0  0.44918  0.18652  0.88562  1.0000
  H   H513      1.0  0.43232  0.03019  0.76893  1.0000
  C   C308      1.0  0.55339  0.36057  0.94441  1.0000
  H   H514      1.0  0.65157  0.35381  0.73408  1.0000
  N   N23       1.0  0.57619  0.27268  0.78275  1.0000
  C   C309      1.0  0.56132  0.27139  0.74254  1.0000
  C   C310      1.0  0.60484  0.28466  0.77610  1.0000
  C   C311      1.0  0.55858  0.28937  0.80991  1.0000
  C   C312      1.0  0.57831  0.24591  0.79886  1.0000
  C   C313      1.0  0.52985  0.26311  0.74327  1.0000
  C   C314      1.0  0.62485  0.27033  0.74753  1.0000
  C   C315      1.0  0.57359  0.30163  0.84627  1.0000
  C   C316      1.0  0.59570  0.24177  0.83756  1.0000
  H   H515      1.0  0.56206  0.29022  0.72723  1.0000
  H   H516      1.0  0.57217  0.25784  0.72206  1.0000
  H   H517      1.0  0.61672  0.28739  0.80448  1.0000
  H   H518      1.0  0.60222  0.30422  0.76407  1.0000
  H   H519      1.0  0.54945  0.30569  0.79272  1.0000
  H   H520      1.0  0.54014  0.27863  0.82167  1.0000
  H   H521      1.0  0.55689  0.23836  0.80567  1.0000
  H   H522      1.0  0.58625  0.23236  0.77578  1.0000
  H   H523      1.0  0.52152  0.26307  0.71205  1.0000
  H   H524      1.0  0.52717  0.24351  0.75498  1.0000
  H   H525      1.0  0.51633  0.27646  0.76050  1.0000
  H   H526      1.0  0.36310  0.43039  0.63043  1.0000
  H   H527      1.0  0.37664  0.18319  0.75676  1.0000
  H   H528      1.0  0.62867  0.25053  0.75762  1.0000
  C   C317      1.0  0.61150  0.36010  0.76401  1.0000
  H   H529      1.0  0.58855  0.31674  0.83661  1.0000
  H   H530      1.0  0.58475  0.28773  0.86546  1.0000
  H   H531      1.0  0.58230  0.24455  0.86453  1.0000
  H   H532      1.0  0.61491  0.25365  0.83984  1.0000
  H   H533      1.0  0.53190  0.44462  0.84928  1.0000
  H   H534      1.0  0.67592  0.16953  0.82707  1.0000
  C   C318      1.0  0.39320  0.18511  0.78032  1.0000
  H   H535      1.0  0.49029  0.35167  0.02526  1.0000
  H   H536      1.0  0.44256  0.03703  0.69227  1.0000
  C   C319      1.0  0.54384  0.42868  0.86329  1.0000
  Fe  Fe43      1.0  0.47031  0.96168  0.86593  1.0000
  H   H537      1.0  0.46053  0.43723  0.97887  1.0000
  C   C320      1.0  0.44546  0.96488  0.99141  1.0000
  H   H538      1.0  0.51992  0.38391  0.91992  1.0000
  H   H539      1.0  0.42698  0.96925  0.01098  1.0000
  H   H540      1.0  0.49091  0.97301  0.95305  1.0000
  C   C321      1.0  0.49713  0.96669  0.98375  1.0000
  H   H541      1.0  0.45731  0.27337  0.69633  1.0000
  H   H542      1.0  0.54322  0.96582  0.98958  1.0000
  H   H543      1.0  0.54972  0.37977  0.88829  1.0000
  N   N24       1.0  0.55475  0.40944  0.93328  1.0000
  H   H544      1.0  0.46540  0.01922  0.65907  1.0000
  H   H545      1.0  0.42638  0.41729  0.82978  1.0000
  H   H546      1.0  0.39185  0.30589  0.65435  1.0000
  H   H547      1.0  0.44892  0.20651  0.89629  1.0000
  C   C322      1.0  0.54352  0.38390  0.91977  1.0000
  N   N25       1.0  0.37928  0.44121  0.87103  1.0000
  H   H548      1.0  0.60113  0.43996  0.96628  1.0000
  H   H549      1.0  0.66421  0.27606  0.62231  1.0000
  H   H550      1.0  0.36185  0.05434  0.76368  1.0000
  H   H551      1.0  0.42587  0.30145  0.73401  1.0000
  H   H552      1.0  0.37688  0.05164  0.82438  1.0000
  C   C323      1.0  0.37812  0.23877  0.71255  1.0000
  H   H553      1.0  0.42846  0.25926  0.66968  1.0000
  H   H554      1.0  0.66234  0.10809  0.80135  1.0000
  H   H555      1.0  0.61694  0.27067  0.71616  1.0000
  H   H556      1.0  0.36838  0.43104  0.80995  1.0000
  H   H557      1.0  0.67106  0.19736  0.71211  1.0000
  C   C324      1.0  0.48375  0.37035  0.01515  1.0000
  H   H558      1.0  0.67201  0.27530  0.67442  1.0000
  H   H559      1.0  0.43292  0.16295  0.83807  1.0000
  H   H560      1.0  0.52798  0.98806  0.02331  1.0000
  H   H561      1.0  0.36994  0.23855  0.74360  1.0000
  C   C325      1.0  0.37810  0.31626  0.77396  1.0000
  H   H562      1.0  0.68761  0.18629  0.60882  1.0000
  C   C326      1.0  0.47091  0.99843  0.02647  1.0000
  C   C327      1.0  0.65790  0.04471  0.77749  1.0000
  H   H563      1.0  0.38300  0.43515  0.95633  1.0000
  H   H564      1.0  0.42317  0.44673  0.88930  1.0000
  H   H565      1.0  0.53007  0.99503  0.97052  1.0000
  H   H566      1.0  0.61920  0.96003  0.63451  1.0000
  C   C328      1.0  0.37287  0.26452  0.69156  1.0000
  H   H567      1.0  0.53537  0.41100  0.84982  1.0000
  H   H568      1.0  0.44627  0.44582  0.82518  1.0000
  H   H569      1.0  0.37640  0.98647  0.78889  1.0000
  H   H570      1.0  0.38091  0.23271  0.81778  1.0000
  H   H571      1.0  0.39806  0.40977  0.90418  1.0000
  H   H572      1.0  0.66397  0.04794  0.74566  1.0000
  H   H573      1.0  0.39429  0.32688  0.69553  1.0000
  H   H574      1.0  0.54154  0.43885  0.02693  1.0000
  C   C329      1.0  0.60163  0.43496  0.93404  1.0000
  C   C330      1.0  0.37001  0.29200  0.75072  1.0000
  H   H575      1.0  0.37349  0.27594  0.77190  1.0000
  C   C331      1.0  0.40915  0.45032  0.86303  1.0000
  C   C332      1.0  0.69321  0.14497  0.73607  1.0000
  H   H576      1.0  0.36460  0.31771  0.80109  1.0000
  C   C333      1.0  0.36234  0.44525  0.83301  1.0000
  C   C334      1.0  0.36342  0.03871  0.84225  1.0000
  H   H577      1.0  0.36450  0.04589  0.87357  1.0000
  Fe  Fe44      1.0  0.46106  0.84857  0.22780  1.0000
  S   S87       1.0  0.45206  0.84382  0.16193  1.0000
  S   S88       1.0  0.43096  0.85736  0.27867  1.0000
  Fe  Fe45      1.0  0.47533  0.80680  0.16858  1.0000
  S   S89       1.0  0.45677  0.77103  0.14307  1.0000
  S   S90       1.0  0.48081  0.81013  0.23468  1.0000
  S   S91       1.0  0.56854  0.68753  0.20034  1.0000
  Fe  Fe46      1.0  0.59396  0.61997  0.17036  1.0000
  S   S92       1.0  0.59915  0.63516  0.23257  1.0000
  S   S93       1.0  0.60820  0.57959  0.16237  1.0000
  Fe  Fe47      1.0  0.55517  0.64982  0.22481  1.0000
  S   S94       1.0  0.52394  0.64585  0.27463  1.0000
  S   S95       1.0  0.54849  0.63152  0.16494  1.0000
  S   S96       1.0  0.50411  0.51441  0.10132  1.0000
  C   C335      1.0  0.57980  0.56130  0.14425  1.0000
  C   C336      1.0  0.53381  0.53206  0.11678  1.0000
  C   C337      1.0  0.53825  0.55659  0.10164  1.0000
  C   C338      1.0  0.56113  0.57127  0.11555  1.0000
  H   H578      1.0  0.52385  0.56437  0.07946  1.0000
  H   H579      1.0  0.56446  0.59023  0.10381  1.0000
  H   H580      1.0  0.51645  0.57322  0.17658  1.0000
  C   C339      1.0  0.45928  0.65950  0.19820  1.0000
  C   C340      1.0  0.48648  0.65776  0.21489  1.0000
  C   C341      1.0  0.48998  0.64984  0.25465  1.0000
  C   C342      1.0  0.46625  0.64461  0.27821  1.0000
  H   H581      1.0  0.63957  0.53458  0.16866  1.0000
  H   H582      1.0  0.45667  0.66529  0.16721  1.0000
  H   H583      1.0  0.50465  0.66264  0.19686  1.0000
  H   H584      1.0  0.46893  0.63843  0.30897  1.0000
  S   S97       1.0  0.66605  0.88740  0.28183  1.0000
  H   H585      1.0  0.46512  0.77373  0.35036  1.0000
  C   C343      1.0  0.48160  0.74800  0.12858  1.0000
  C   C344      1.0  0.52961  0.73127  0.12740  1.0000
  C   C345      1.0  0.51033  0.75031  0.13873  1.0000
  H   H586      1.0  0.55178  0.73292  0.13546  1.0000
  H   H587      1.0  0.51765  0.76647  0.15589  1.0000
  C   C346      1.0  0.39405  0.85725  0.27099  1.0000
  H   H588      1.0  0.56188  0.82802  0.07201  1.0000
  C   C347      1.0  0.68240  0.66013  0.18914  1.0000
  C   C348      1.0  0.44843  0.52564  0.18368  1.0000
  C   C349      1.0  0.49272  0.73395  0.23438  1.0000
  H   H589      1.0  0.66272  0.78268  0.32692  1.0000
  H   H590      1.0  0.39581  0.86533  0.20774  1.0000
  H   H591      1.0  0.49940  0.76014  0.35724  1.0000
  Fe  Fe48      1.0  0.52218  0.82917  0.22084  1.0000
  S   S98       1.0  0.51830  0.82240  0.15462  1.0000
  S   S99       1.0  0.55946  0.81534  0.25788  1.0000
  Fe  Fe49      1.0  0.49574  0.86010  0.15287  1.0000
  S   S100      1.0  0.50843  0.88853  0.10487  1.0000
  S   S101      1.0  0.50303  0.86823  0.21876  1.0000
  Fe  Fe50      1.0  0.56563  0.66821  0.14060  1.0000
  S   S102      1.0  0.54427  0.68721  0.08838  1.0000
  Fe  Fe51      1.0  0.61240  0.67118  0.20234  1.0000
  S   S103      1.0  0.64839  0.69279  0.23060  1.0000
  S   S104      1.0  0.61083  0.65492  0.13996  1.0000
  C   C350      1.0  0.57556  0.53667  0.15900  1.0000
  C   C351      1.0  0.55262  0.52207  0.14530  1.0000
  H   H592      1.0  0.58944  0.52913  0.18194  1.0000
  H   H593      1.0  0.54945  0.50316  0.15711  1.0000
  H   H594      1.0  0.64873  0.84090  0.32184  1.0000
  H   H595      1.0  0.40922  0.59717  0.22673  1.0000
  H   H596      1.0  0.44426  0.56612  0.14120  1.0000
  H   H597      1.0  0.69111  0.48572  0.12587  1.0000
  C   C352      1.0  0.38494  0.79026  0.16622  1.0000
  C   C353      1.0  0.49777  0.88417  0.05454  1.0000
  H   H598      1.0  0.44611  0.73572  0.23223  1.0000
  C   C354      1.0  0.45262  0.58356  0.22205  1.0000
  H   H599      1.0  0.66370  0.65477  0.17275  1.0000
  S   S105      1.0  0.36987  0.65760  0.31009  1.0000
  C   C355      1.0  0.46330  0.72182  0.22715  1.0000
  C   C356      1.0  0.47232  0.72694  0.10653  1.0000
  C   C357      1.0  0.49169  0.70835  0.09419  1.0000
  C   C358      1.0  0.52029  0.71036  0.10488  1.0000
  H   H600      1.0  0.45012  0.72502  0.09878  1.0000
  H   H601      1.0  0.48444  0.69220  0.07683  1.0000
  C   C359      1.0  0.58816  0.83627  0.26563  1.0000
  C   C360      1.0  0.37620  0.85323  0.30395  1.0000
  H   H602      1.0  0.45946  0.70477  0.24578  1.0000
  C   C361      1.0  0.63590  0.86783  0.27670  1.0000
  C   C362      1.0  0.63278  0.84579  0.29974  1.0000
  C   C363      1.0  0.60905  0.82997  0.29405  1.0000
  H   H603      1.0  0.38532  0.84921  0.33311  1.0000
  H   H604      1.0  0.60684  0.81289  0.31185  1.0000
  C   C364      1.0  0.65894  0.64418  0.31576  1.0000
  C   C365      1.0  0.68365  0.58931  0.21862  1.0000
  H   H605      1.0  0.63131  0.77755  0.17314  1.0000
  H   H606      1.0  0.54448  0.71523  0.33483  1.0000
  H   H607      1.0  0.50984  0.72072  0.35884  1.0000
  H   H608      1.0  0.63643  0.53305  0.23463  1.0000
  H   H609      1.0  0.49264  0.53336  0.18931  1.0000
  H   H610      1.0  0.68648  0.57642  0.37196  1.0000
  H   H611      1.0  0.62448  0.80461  0.20628  1.0000
  H   H612      1.0  0.44579  0.61336  0.15502  1.0000
  H   H613      1.0  0.46247  0.73504  0.31223  1.0000
  H   H614      1.0  0.57105  0.75801  0.25894  1.0000
  H   H615      1.0  0.52153  0.68985  0.34617  1.0000
  C   C366      1.0  0.66315  0.61537  0.32293  1.0000
  H   H616      1.0  0.49933  0.94418  0.10193  1.0000
  H   H617      1.0  0.48285  0.61343  0.14033  1.0000
  H   H618      1.0  0.62372  0.50056  0.23764  1.0000
  C   C367      1.0  0.39482  0.78625  0.20992  1.0000
  N   N26       1.0  0.47211  0.57008  0.19332  1.0000
  C   C368      1.0  0.65586  0.52754  0.11055  1.0000
  H   H619      1.0  0.64651  0.59533  0.25465  1.0000
  H   H620      1.0  0.50197  0.60145  0.19753  1.0000
  H   H621      1.0  0.48329  0.82130  0.04595  1.0000
  H   H622      1.0  0.53533  0.75688  0.30974  1.0000
  H   H623      1.0  0.37206  0.93818  0.30031  1.0000
  H   H624      1.0  0.64674  0.65235  0.34111  1.0000
  H   H625      1.0  0.67370  0.83390  0.22107  1.0000
  C   C369      1.0  0.46464  0.57501  0.14994  1.0000
  C   C370      1.0  0.48589  0.80045  0.04833  1.0000
  H   H626      1.0  0.51882  0.55363  0.24547  1.0000
  H   H627      1.0  0.46157  0.71585  0.19526  1.0000
  S   S106      1.0  0.50419  0.47827  0.20211  1.0000
  C   C371      1.0  0.51557  0.57434  0.24095  1.0000
  H   H628      1.0  0.59930  0.77986  0.20086  1.0000
  H   H629      1.0  0.44073  0.79880  0.06008  1.0000
  H   H630      1.0  0.63694  0.75725  0.32022  1.0000
  N   N27       1.0  0.66535  0.50084  0.17440  1.0000
  C   C372      1.0  0.48487  0.76820  0.33455  1.0000
  H   H631      1.0  0.67625  0.54041  0.16472  1.0000
  H   H632      1.0  0.66414  0.56498  0.30424  1.0000
  H   H633      1.0  0.48836  0.69918  0.29587  1.0000
  C   C373      1.0  0.39295  0.91726  0.34687  1.0000
  C   C374      1.0  0.38323  0.72912  0.20510  1.0000
  H   H634      1.0  0.48052  0.56584  0.12994  1.0000
  C   C375      1.0  0.50787  0.71096  0.29421  1.0000
  H   H635      1.0  0.46431  0.76156  0.27954  1.0000
  H   H636      1.0  0.50816  0.72196  0.21764  1.0000
  C   C376      1.0  0.64069  0.48293  0.16726  1.0000
  H   H637      1.0  0.56094  0.72563  0.26506  1.0000
  H   H638      1.0  0.62020  0.49346  0.16644  1.0000
  H   H639      1.0  0.54894  0.74396  0.22176  1.0000
  H   H640      1.0  0.63673  0.51697  0.10076  1.0000
  H   H641      1.0  0.49244  0.75274  0.21892  1.0000
  C   C377      1.0  0.61477  0.87434  0.24875  1.0000
  H   H642      1.0  0.45748  0.57800  0.25353  1.0000
  C   C378      1.0  0.52170  0.71001  0.33599  1.0000
  N   N28       1.0  0.50157  0.73711  0.27771  1.0000
  H   H643      1.0  0.52253  0.70079  0.27362  1.0000
  H   H644      1.0  0.64635  0.64802  0.28832  1.0000
  H   H645      1.0  0.57493  0.86364  0.22126  1.0000
  H   H646      1.0  0.38905  0.71648  0.23058  1.0000
  C   C379      1.0  0.59095  0.85860  0.24319  1.0000
  C   C380      1.0  0.52756  0.75384  0.27861  1.0000
  H   H647      1.0  0.52219  0.77307  0.26688  1.0000
  H   H648      1.0  0.49426  0.78606  0.32259  1.0000
  N   N29       1.0  0.66684  0.77030  0.24369  1.0000
  C   C381      1.0  0.67406  0.75442  0.28015  1.0000
  C   C382      1.0  0.68113  0.75808  0.20815  1.0000
  C   C383      1.0  0.63508  0.76922  0.23823  1.0000
  C   C384      1.0  0.67689  0.79713  0.25105  1.0000
  H   H649      1.0  0.40038  0.80549  0.22162  1.0000
  C   C385      1.0  0.64170  0.46557  0.12991  1.0000
  Fe  Fe52      1.0  0.50237  0.47762  0.13527  1.0000
  H   H650      1.0  0.62406  0.77733  0.26471  1.0000
  H   H651      1.0  0.66879  0.73408  0.27495  1.0000
  H   H652      1.0  0.38251  0.77194  0.15006  1.0000
  C   C386      1.0  0.68132  0.81439  0.21389  1.0000
  H   H653      1.0  0.67276  0.73853  0.20331  1.0000
  H   H654      1.0  0.62794  0.74903  0.23580  1.0000
  C   C387      1.0  0.68103  0.67869  0.21899  1.0000
  H   H655      1.0  0.66208  0.80708  0.27139  1.0000
  H   H656      1.0  0.66604  0.62320  0.24307  1.0000
  N   N30       1.0  0.37385  0.77323  0.23717  1.0000
  H   H657      1.0  0.41540  0.77595  0.20922  1.0000
  H   H658      1.0  0.64173  0.60638  0.32227  1.0000
  H   H659      1.0  0.66984  0.75142  0.34487  1.0000
  H   H660      1.0  0.67016  0.80852  0.18629  1.0000
  H   H661      1.0  0.62084  0.45595  0.12648  1.0000
  H   H662      1.0  0.68268  0.56839  0.22214  1.0000
  C   C388      1.0  0.66891  0.50425  0.21918  1.0000
  C   C389      1.0  0.43900  0.64657  0.26160  1.0000
  H   H663      1.0  0.40801  0.93347  0.34534  1.0000
  H   H664      1.0  0.45097  0.52330  0.15077  1.0000
  H   H665      1.0  0.40435  0.90100  0.33294  1.0000
  H   H666      1.0  0.61698  0.89149  0.23106  1.0000
  H   H667      1.0  0.67922  0.65475  0.31407  1.0000
  H   H668      1.0  0.63867  0.46939  0.19253  1.0000
  H   H669      1.0  0.53693  0.58329  0.24180  1.0000
  H   H670      1.0  0.46059  0.86225  0.06844  1.0000
  H   H671      1.0  0.41353  0.57698  0.18539  1.0000
  C   C390      1.0  0.47734  0.74961  0.30015  1.0000
  H   H672      1.0  0.50352  0.58257  0.26631  1.0000
  C   C391      1.0  0.43552  0.65381  0.22149  1.0000
  H   H673      1.0  0.40275  0.73713  0.19190  1.0000
  H   H674      1.0  0.67245  0.59385  0.19007  1.0000
  C   C392      1.0  0.38218  0.86212  0.23328  1.0000
  C   C393      1.0  0.46234  0.60325  0.13767  1.0000
  S   S107      1.0  0.40192  0.65445  0.19928  1.0000
  C   C394      1.0  0.55331  0.74441  0.25448  1.0000
  H   H675      1.0  0.41284  0.56354  0.23548  1.0000
  C   C395      1.0  0.64230  0.51318  0.24226  1.0000
  C   C396      1.0  0.65978  0.76222  0.31993  1.0000
  H   H676      1.0  0.47319  0.53800  0.23434  1.0000
  H   H677      1.0  0.68578  0.87825  0.52760  1.0000
  H   H678      1.0  0.64715  0.51287  0.27491  1.0000
  H   H679      1.0  0.38946  0.91199  0.37850  1.0000
  H   H680      1.0  0.45601  0.60437  0.10558  1.0000
  H   H681      1.0  0.67008  0.61327  0.35445  1.0000
  C   C397      1.0  0.62245  0.78373  0.20225  1.0000
  H   H682      1.0  0.65250  0.54768  0.10139  1.0000
  H   H683      1.0  0.50966  0.75372  0.04764  1.0000
  C   C398      1.0  0.50169  0.58037  0.20002  1.0000
  C   C399      1.0  0.47275  0.54181  0.20146  1.0000
  H   H684      1.0  0.44928  0.50624  0.19689  1.0000
  C   C400      1.0  0.38883  0.76557  0.27528  1.0000
  H   H685      1.0  0.40687  0.75268  0.26858  1.0000
  C   C401      1.0  0.65943  0.52659  0.15635  1.0000
  H   H686      1.0  0.45668  0.60433  0.22183  1.0000
  H   H687      1.0  0.42719  0.53325  0.19023  1.0000
  C   C402      1.0  0.42040  0.57965  0.21679  1.0000
  H   H688      1.0  0.49065  0.79667  0.08055  1.0000
  H   H689      1.0  0.42090  0.64135  0.27935  1.0000
  H   H690      1.0  0.40138  0.80130  0.14997  1.0000
  H   H691      1.0  0.67617  0.48612  0.23336  1.0000
  H   H692      1.0  0.38408  0.80047  0.31147  1.0000
  H   H693      1.0  0.67627  0.76807  0.17975  1.0000
  H   H694      1.0  0.68556  0.51856  0.22615  1.0000
  C   C403      1.0  0.66846  0.60319  0.25324  1.0000
  N   N31       1.0  0.68270  0.60207  0.29396  1.0000
  H   H695      1.0  0.64596  0.47597  0.10175  1.0000
  H   H696      1.0  0.53866  0.78716  0.07286  1.0000
  H   H697      1.0  0.41721  0.79864  0.28422  1.0000
  H   H698      1.0  0.52501  0.83499  0.07009  1.0000
  C   C404      1.0  0.68533  0.57437  0.30534  1.0000
  H   H699      1.0  0.67491  0.52063  0.09459  1.0000
  H   H700      1.0  0.41142  0.77953  0.32774  1.0000
  C   C405      1.0  0.69246  0.48943  0.15858  1.0000
  C   C406      1.0  0.40095  0.78757  0.30066  1.0000
  Fe  Fe53      1.0  0.36628  0.65269  0.24350  1.0000
  H   H701      1.0  0.39037  0.45250  0.30311  1.0000
  H   H702      1.0  0.45556  0.76849  0.04964  1.0000
  S   S108      1.0  0.46496  0.45117  0.13268  1.0000
  H   H703      1.0  0.37377  0.71732  0.18084  1.0000
  C   C407      1.0  0.36591  0.92297  0.32190  1.0000
  S   S109      1.0  0.43595  0.45307  0.24733  1.0000
  C   C408      1.0  0.54255  0.82619  0.05308  1.0000
  H   H704      1.0  0.62315  0.45740  0.28272  1.0000
  H   H705      1.0  0.37469  0.75413  0.29484  1.0000
  H   H706      1.0  0.36500  0.80135  0.16435  1.0000
  C   C409      1.0  0.53735  0.79773  0.04384  1.0000
  C   C410      1.0  0.45633  0.78883  0.04072  1.0000
  C   C411      1.0  0.47329  0.87049  0.04481  1.0000
  H   H707      1.0  0.36706  0.51291  0.27908  1.0000
  H   H708      1.0  0.47544  0.93368  0.03951  1.0000
  Fe  Fe54      1.0  0.44967  0.92537  0.80050  1.0000
  H   H709      1.0  0.36740  0.46416  0.81960  1.0000
  S   S110      1.0  0.43869  0.92992  0.86551  1.0000
  C   C412      1.0  0.60637  0.88409  0.62859  1.0000
  C   C413      1.0  0.38381  0.93049  0.75388  1.0000
  H   H710      1.0  0.58600  0.94765  0.65073  1.0000
  H   H711      1.0  0.57131  0.85656  0.62764  1.0000
  H   H712      1.0  0.62684  0.88428  0.61195  1.0000
  H   H713      1.0  0.61739  0.86434  0.70671  1.0000
  C   C414      1.0  0.38273  0.45505  0.94528  1.0000
  H   H714      1.0  0.57796  0.87896  0.74090  1.0000
  H   H715      1.0  0.54643  0.83739  0.02542  1.0000
  H   H716      1.0  0.54449  0.88702  0.71980  1.0000
  S   S111      1.0  0.41990  0.92314  0.74690  1.0000
  H   H717      1.0  0.64369  0.92015  0.64576  1.0000
  C   C415      1.0  0.37179  0.93033  0.79210  1.0000
  C   C416      1.0  0.46524  0.86739  0.00441  1.0000
  H   H718      1.0  0.44645  0.85651  0.99704  1.0000
  Fe  Fe55      1.0  0.47682  0.90518  0.87753  1.0000
  S   S112      1.0  0.48559  0.89802  0.81173  1.0000
  S   S113      1.0  0.47106  0.87351  0.92317  1.0000
  C   C417      1.0  0.63675  0.94287  0.77299  1.0000
  C   C418      1.0  0.62317  0.92265  0.66158  1.0000
  H   H719      1.0  0.47810  0.77976  0.95391  1.0000
  H   H720      1.0  0.53071  0.80301  0.96673  1.0000
  C   C419      1.0  0.59484  0.85665  0.62875  1.0000
  H   H721      1.0  0.62889  0.89341  0.72647  1.0000
  C   C420      1.0  0.62707  0.88268  0.69790  1.0000
  C   C421      1.0  0.44188  0.93716  0.97677  1.0000
  H   H722      1.0  0.59188  0.89484  0.60837  1.0000
  C   C422      1.0  0.48607  0.79948  0.95254  1.0000
  C   C423      1.0  0.64420  0.91997  0.79153  1.0000
  C   C424      1.0  0.62306  0.90545  0.81037  1.0000
  C   C425      1.0  0.59446  0.91318  0.80883  1.0000
  Fe  Fe56      1.0  0.51366  0.93255  0.81646  1.0000
  C   C426      1.0  0.36673  0.93636  0.72049  1.0000
  H   H723      1.0  0.62870  0.88775  0.82496  1.0000
  H   H724      1.0  0.57815  0.90146  0.82213  1.0000
  C   C427      1.0  0.48115  0.87856  0.97356  1.0000
  C   C428      1.0  0.50539  0.89259  0.98333  1.0000
  C   C429      1.0  0.53221  0.75083  0.99179  1.0000
  H   H725      1.0  0.51807  0.90086  0.95971  1.0000
  H   H726      1.0  0.56524  0.86284  0.69623  1.0000
  S   S114      1.0  0.67905  0.90794  0.78764  1.0000
  H   H727      1.0  0.50891  0.82634  0.98752  1.0000
  H   H728      1.0  0.60299  0.84649  0.60192  1.0000
  C   C430      1.0  0.58698  0.93538  0.78817  1.0000
  C   C431      1.0  0.51373  0.89527  0.02368  1.0000
  H   H729      1.0  0.55322  0.75166  0.00677  1.0000
  N   N32       1.0  0.60888  0.89732  0.66854  1.0000
  H   H730      1.0  0.53274  0.90585  0.03100  1.0000
  C   C432      1.0  0.51013  0.80541  0.98255  1.0000
  H   H731      1.0  0.60224  0.84512  0.65443  1.0000
  C   C433      1.0  0.65743  0.87645  0.68403  1.0000
  H   H732      1.0  0.49418  0.80184  0.92150  1.0000
  H   H733      1.0  0.56440  0.90754  0.66243  1.0000
  H   H734      1.0  0.58082  0.91937  0.70659  1.0000
  C   C434      1.0  0.57998  0.90250  0.68634  1.0000
  H   H735      1.0  0.46815  0.81300  0.95644  1.0000
  H   H736      1.0  0.67053  0.89381  0.68101  1.0000
  C   C435      1.0  0.56649  0.88130  0.71196  1.0000
  H   H737      1.0  0.55978  0.45329  0.98592  1.0000
  S   S115      1.0  0.55141  0.94360  0.77847  1.0000
  H   H738      1.0  0.65773  0.86548  0.65565  1.0000
  H   H739      1.0  0.38468  0.92568  0.81795  1.0000
  C   C436      1.0  0.60825  0.95034  0.77082  1.0000
  H   H740      1.0  0.52736  0.73027  0.98789  1.0000
  H   H741      1.0  0.66798  0.86464  0.70739  1.0000
  C   C437      1.0  0.60639  0.94233  0.63656  1.0000
  H   H742      1.0  0.62825  0.93191  0.69077  1.0000
  H   H743      1.0  0.53331  0.75937  0.96143  1.0000
  N   N33       1.0  0.51000  0.79151  0.02217  1.0000
  H   H744      1.0  0.60275  0.93578  0.60535  1.0000
  H   H745      1.0  0.55606  0.79157  0.02615  1.0000
  S   S116      1.0  0.50779  0.93764  0.88305  1.0000
  H   H746      1.0  0.40955  0.47133  0.85829  1.0000
  H   H747      1.0  0.43903  0.92358  0.00192  1.0000
  C   C438      1.0  0.50876  0.76297  0.01759  1.0000
  H   H748      1.0  0.36822  0.47801  0.89546  1.0000
  H   H749      1.0  0.40466  0.46263  0.94451  1.0000
  H   H750      1.0  0.45962  0.93092  0.95743  1.0000
  H   H751      1.0  0.42232  0.93585  0.95821  1.0000
  H   H752      1.0  0.36374  0.86899  0.73670  1.0000
  H   H753      1.0  0.44892  0.79104  0.00950  1.0000
  H   H754      1.0  0.37602  0.93668  0.69087  1.0000
  H   H755      1.0  0.50143  0.94597  0.98091  1.0000
  C   C439      1.0  0.36759  0.45755  0.90430  1.0000
  H   H756      1.0  0.37109  0.46653  0.96784  1.0000
  H   H757      1.0  0.48839  0.75649  0.00454  1.0000
  H   H758      1.0  0.59314  0.45080  0.91562  1.0000
  S   S117      1.0  0.68715  0.94935  0.69218  1.0000
  H   H759      1.0  0.36193  0.45955  0.65722  1.0000
  S   S118      1.0  0.69490  0.90897  0.59757  1.0000
  N   N34       1.0  0.92504  0.36876  0.13419  1.0000
  H   H760      1.0  0.88890  0.32354  0.14227  1.0000
  H   H761      1.0  0.85380  0.96146  0.32062  1.0000
  Fe  Fe57      1.0  0.72952  0.42090  0.25225  1.0000
  C   C440      1.0  0.70932  0.36934  0.35690  1.0000
  H   H762      1.0  0.74925  0.96960  0.37625  1.0000
  C   C441      1.0  0.87967  0.44666  0.16969  1.0000
  H   H763      1.0  0.95168  0.33582  0.12450  1.0000
  Fe  Fe58      1.0  0.76924  0.42157  0.32405  1.0000
  S   S119      1.0  0.77160  0.40223  0.26378  1.0000
  S   S120      1.0  0.78134  0.39691  0.37728  1.0000
  H   H764      1.0  0.71829  0.33897  0.31324  1.0000
  H   H765      1.0  0.91088  0.40439  0.04758  1.0000
  C   C442      1.0  0.92225  0.37444  0.08994  1.0000
  C   C443      1.0  0.89935  0.37656  0.15823  1.0000
  H   H766      1.0  0.96963  0.37900  0.13118  1.0000
  C   C444      1.0  0.86997  0.37370  0.13786  1.0000
  C   C445      1.0  0.73107  0.39601  0.49461  1.0000
  S   S121      1.0  0.99649  0.39042  0.05081  1.0000
  C   C446      1.0  0.76086  0.39647  0.42140  1.0000
  C   C447      1.0  0.76442  0.37638  0.44873  1.0000
  H   H767      1.0  0.00054  0.00062  0.04486  1.0000
  C   C448      1.0  0.95050  0.38333  0.14955  1.0000
  H   H768      1.0  0.94035  0.38180  0.21449  1.0000
  H   H769      1.0  0.97497  0.39284  0.20303  1.0000
  C   C449      1.0  0.90865  0.32204  0.12450  1.0000
  C   C450      1.0  0.74176  0.41599  0.43025  1.0000
  H   H770      1.0  0.71720  0.38912  0.36129  1.0000
  C   C451      1.0  0.74946  0.37604  0.48515  1.0000
  C   C452      1.0  0.87316  0.44129  0.24106  1.0000
  C   C453      1.0  0.82527  0.99366  0.32615  1.0000
  H   H771      1.0  0.79633  0.95612  0.39103  1.0000
  C   C454      1.0  0.83395  0.96622  0.33703  1.0000
  H   H772      1.0  0.75252  0.36058  0.50620  1.0000
  H   H773      1.0  0.77899  0.36110  0.44184  1.0000
  Fe  Fe59      1.0  0.79166  0.43857  0.24257  1.0000
  C   C455      1.0  0.82184  0.43351  0.47594  1.0000
  Fe  Fe60      1.0  0.00538  0.42502  0.08920  1.0000
  C   C456      1.0  0.92091  0.44580  0.21356  1.0000
  H   H774      1.0  0.96805  0.35980  0.19882  1.0000
  Fe  Fe61      1.0  0.98819  0.44841  0.16838  1.0000
  H   H775      1.0  0.96312  0.97374  0.11305  1.0000
  H   H776      1.0  0.84274  0.39122  0.50363  1.0000
  H   H777      1.0  0.90100  0.39697  0.16654  1.0000
  C   C457      1.0  0.72701  0.41580  0.46685  1.0000
  S   S122      1.0  0.72562  0.43754  0.31384  1.0000
  H   H778      1.0  0.93972  0.41241  0.07952  1.0000
  C   C458      1.0  0.91886  0.40276  0.07889  1.0000
  S   S123      1.0  0.01893  0.41709  0.15281  1.0000
  H   H779      1.0  0.96297  0.00496  0.09476  1.0000
  H   H780      1.0  0.89868  0.36608  0.18727  1.0000
  H   H781      1.0  0.91716  0.00247  0.11735  1.0000
  H   H782      1.0  0.86291  0.39214  0.12490  1.0000
  H   H783      1.0  0.94713  0.40422  0.14669  1.0000
  H   H784      1.0  0.81543  0.00333  0.35225  1.0000
  H   H785      1.0  0.94120  0.36726  0.07348  1.0000
  H   H786      1.0  0.93430  0.33608  0.17185  1.0000
  C   C459      1.0  0.95852  0.37884  0.19401  1.0000
  C   C460      1.0  0.93134  0.34083  0.13960  1.0000
  H   H787      1.0  0.84326  0.44020  0.48475  1.0000
  H   H788      1.0  0.85936  0.43871  0.26660  1.0000
  C   C461      1.0  0.01351  0.96816  0.07834  1.0000
  N   N35       1.0  0.96346  0.97594  0.04829  1.0000
  C   C462      1.0  0.92187  0.98651  0.09655  1.0000
  H   H789      1.0  0.82346  0.41656  0.45614  1.0000
  C   C463      1.0  0.90278  0.44253  0.24651  1.0000
  C   C464      1.0  0.76330  0.96713  0.34983  1.0000
  C   C465      1.0  0.82554  0.38723  0.52546  1.0000
  S   S124      1.0  0.82471  0.44223  0.19357  1.0000
  H   H790      1.0  0.01134  0.97870  0.10700  1.0000
  H   H791      1.0  0.90421  0.36431  0.07596  1.0000
  H   H792      1.0  0.73894  0.43160  0.40943  1.0000
  H   H793      1.0  0.91666  0.30235  0.12894  1.0000
  H   H794      1.0  0.84446  0.00450  0.31716  1.0000
  C   C466      1.0  0.72188  0.35965  0.31723  1.0000
  S   S125      1.0  0.95801  0.44660  0.22126  1.0000
  H   H795      1.0  0.78699  0.96166  0.28194  1.0000
  H   H796      1.0  0.81188  0.44869  0.45740  1.0000
  H   H797      1.0  0.83659  0.96020  0.25518  1.0000
  H   H798      1.0  0.71983  0.35773  0.38045  1.0000
  H   H799      1.0  0.90394  0.41292  0.09881  1.0000
  H   H800      1.0  0.86835  0.35849  0.11514  1.0000
  H   H801      1.0  0.84101  0.96710  0.36888  1.0000
  H   H802      1.0  0.90418  0.32402  0.09200  1.0000
  H   H803      1.0  0.71429  0.37048  0.29078  1.0000
  H   H804      1.0  0.84245  0.34937  0.53487  1.0000
  H   H805      1.0  0.77038  0.98627  0.34055  1.0000
  H   H806      1.0  0.81088  0.99490  0.30000  1.0000
  H   H807      1.0  0.87081  0.44814  0.13978  1.0000
  C   C467      1.0  0.95405  0.98571  0.08858  1.0000
  C   C468      1.0  0.80281  0.42810  0.51253  1.0000
  H   H808      1.0  0.74997  0.95850  0.32587  1.0000
  H   H809      1.0  0.85403  0.36925  0.16131  1.0000
  H   H810      1.0  0.74525  0.36225  0.31841  1.0000
  H   H811      1.0  0.71282  0.43131  0.47406  1.0000
  H   H812      1.0  0.78290  0.41967  0.50064  1.0000
  H   H813      1.0  0.70306  0.35932  0.43991  1.0000
  C   C469      1.0  0.86157  0.44326  0.20250  1.0000
  C   C470      1.0  0.90916  0.44814  0.17518  1.0000
  H   H814      1.0  0.90888  0.99034  0.06959  1.0000
  H   H815      1.0  0.91466  0.96851  0.11073  1.0000
  H   H816      1.0  0.79659  0.44703  0.52464  1.0000
  C   C471      1.0  0.99509  0.98008  0.04486  1.0000
  H   H817      1.0  0.91167  0.44076  0.27636  1.0000
  H   H818      1.0  0.80802  0.37836  0.50787  1.0000
  H   H819      1.0  0.94149  0.02724  0.04226  1.0000
  H   H820      1.0  0.77521  0.39364  0.55854  1.0000
  Fe  Fe62      1.0  0.78899  0.12803  0.67721  1.0000
  S   S126      1.0  0.78420  0.11091  0.73846  1.0000
  S   S127      1.0  0.77852  0.10298  0.62474  1.0000
  Fe  Fe63      1.0  0.81203  0.17747  0.71014  1.0000
  S   S128      1.0  0.81004  0.16390  0.77372  1.0000
  S   S129      1.0  0.82662  0.21765  0.70112  1.0000
  Fe  Fe64      1.0  0.82725  0.12725  0.74952  1.0000
  S   S130      1.0  0.85944  0.10359  0.78298  1.0000
  Fe  Fe65      1.0  0.76728  0.14903  0.75599  1.0000
  H   H821      1.0  0.90277  0.39558  0.76320  1.0000
  S   S131      1.0  0.83327  0.14226  0.68716  1.0000
  S   S132      1.0  0.76813  0.16486  0.69370  1.0000
  H   H822      1.0  0.71172  0.18579  0.67902  1.0000
  S   S133      1.0  0.97664  0.09333  0.69375  1.0000
  S   S134      1.0  0.99556  0.14210  0.77472  1.0000
  Fe  Fe66      1.0  0.93962  0.35315  0.74601  1.0000
  S   S135      1.0  0.90770  0.35653  0.69544  1.0000
  S   S136      1.0  0.93141  0.34271  0.81011  1.0000
  Fe  Fe67      1.0  0.71874  0.36578  0.58704  1.0000
  S   S137      1.0  0.70609  0.37269  0.65134  1.0000
  C   C472      1.0  0.84541  0.95739  0.80673  1.0000
  Fe  Fe68      1.0  0.73231  0.31036  0.60286  1.0000
  S   S138      1.0  0.72053  0.31246  0.66771  1.0000
  H   H823      1.0  0.96086  0.44008  0.93621  1.0000
  H   H824      1.0  0.73330  0.20634  0.73349  1.0000
  H   H825      1.0  0.00799  0.42000  0.82064  1.0000
  Fe  Fe69      1.0  0.74482  0.34927  0.66660  1.0000
  S   S139      1.0  0.77459  0.35770  0.71861  1.0000
  C   C473      1.0  0.70942  0.19261  0.61561  1.0000
  S   S140      1.0  0.75923  0.34546  0.60274  1.0000
  C   C474      1.0  0.81147  0.35405  0.71174  1.0000
  H   H826      1.0  0.93252  0.29105  0.63600  1.0000
  H   H827      1.0  0.82260  0.04384  0.64983  1.0000
  C   C475      1.0  0.87088  0.35329  0.70255  1.0000
  C   C476      1.0  0.85901  0.35078  0.74071  1.0000
  C   C477      1.0  0.82935  0.35157  0.74532  1.0000
  H   H828      1.0  0.87264  0.34914  0.76673  1.0000
  H   H829      1.0  0.82018  0.35043  0.77496  1.0000
  H   H830      1.0  0.91764  0.42677  0.71592  1.0000
  H   H831      1.0  0.83796  0.40839  0.84397  1.0000
  C   C478      1.0  0.02732  0.24611  0.75656  1.0000
  H   H832      1.0  0.71142  0.13890  0.71899  1.0000
  C   C479      1.0  0.89135  0.09850  0.75717  1.0000
  C   C480      1.0  0.91585  0.09225  0.77885  1.0000
  C   C481      1.0  0.94212  0.09088  0.75942  1.0000
  C   C482      1.0  0.94371  0.09444  0.71790  1.0000
  C   C483      1.0  0.91896  0.09901  0.69582  1.0000
  C   C484      1.0  0.89284  0.10125  0.71550  1.0000
  H   H833      1.0  0.91477  0.08951  0.81099  1.0000
  H   H834      1.0  0.96113  0.08700  0.77659  1.0000
  H   H835      1.0  0.92009  0.10156  0.66365  1.0000
  H   H836      1.0  0.87394  0.10505  0.69832  1.0000
  C   C485      1.0  0.80531  0.23319  0.66558  1.0000
  C   C486      1.0  0.80052  0.25939  0.66893  1.0000
  C   C487      1.0  0.78261  0.27179  0.64151  1.0000
  C   C488      1.0  0.77004  0.25813  0.61009  1.0000
  H   H837      1.0  0.82226  0.36011  0.57623  1.0000
  C   C489      1.0  0.79293  0.21956  0.63402  1.0000
  H   H838      1.0  0.81010  0.27001  0.69326  1.0000
  H   H839      1.0  0.77866  0.29197  0.64462  1.0000
  C   C490      1.0  0.00916  0.07912  0.94014  1.0000
  H   H840      1.0  0.79697  0.19939  0.63093  1.0000
  C   C491      1.0  0.72678  0.04039  0.68330  1.0000
  C   C492      1.0  0.72268  0.06582  0.69400  1.0000
  C   C493      1.0  0.73753  0.08511  0.67436  1.0000
  C   C494      1.0  0.75640  0.07911  0.64364  1.0000
  C   C495      1.0  0.75941  0.05378  0.63124  1.0000
  C   C496      1.0  0.74462  0.03434  0.65124  1.0000
  N   N36       1.0  0.81536  0.41144  0.54508  1.0000
  H   H841      1.0  0.73477  0.10468  0.68345  1.0000
  H   H842      1.0  0.77390  0.04914  0.60726  1.0000
  H   H843      1.0  0.74741  0.01473  0.64235  1.0000
  S   S141      1.0  0.96763  0.38602  0.76212  1.0000
  H   H844      1.0  0.84805  0.06850  0.65784  1.0000
  H   H845      1.0  0.84523  0.98153  0.70259  1.0000
  H   H846      1.0  0.97725  0.43499  0.00670  1.0000
  H   H847      1.0  0.88491  0.42346  0.85966  1.0000
  H   H848      1.0  0.71623  0.20705  0.59330  1.0000
  H   H849      1.0  0.90681  0.31594  0.63402  1.0000
  H   H850      1.0  0.99148  0.35541  0.98539  1.0000
  H   H851      1.0  0.79355  0.01624  0.68489  1.0000
  C   C497      1.0  0.93760  0.99870  0.75147  1.0000
  H   H852      1.0  0.98553  0.02464  0.86949  1.0000
  H   H853      1.0  0.82548  0.42084  0.78224  1.0000
  C   C498      1.0  0.99332  0.25742  0.80801  1.0000
  H   H854      1.0  0.76580  0.01589  0.76307  1.0000
  C   C499      1.0  0.99233  0.03965  0.88916  1.0000
  C   C500      1.0  0.83070  0.05758  0.67228  1.0000
  S   S142      1.0  0.96927  0.27891  0.82959  1.0000
  C   C501      1.0  0.79776  0.04520  0.74807  1.0000
  H   H855      1.0  0.78495  0.05259  0.72249  1.0000
  H   H856      1.0  0.91593  0.99609  0.73874  1.0000
  H   H857      1.0  0.78615  0.02730  0.80582  1.0000
  H   H858      1.0  0.80645  0.06234  0.76335  1.0000
  Fe  Fe70      1.0  0.96277  0.37335  0.82594  1.0000
  H   H859      1.0  0.80987  0.35679  0.64756  1.0000
  N   N37       1.0  0.90383  0.26090  0.69391  1.0000
  C   C502      1.0  0.89741  0.28761  0.67964  1.0000
  C   C503      1.0  0.88747  0.25696  0.73223  1.0000
  C   C504      1.0  0.89297  0.24277  0.66228  1.0000
  C   C505      1.0  0.93549  0.25822  0.69964  1.0000
  C   C506      1.0  0.90953  0.29512  0.63834  1.0000
  C   C507      1.0  0.89402  0.27607  0.76625  1.0000
  C   C508      1.0  0.89687  0.21412  0.67036  1.0000
  C   C509      1.0  0.94564  0.23727  0.72899  1.0000
  H   H860      1.0  0.87404  0.29099  0.67842  1.0000
  H   H861      1.0  0.90596  0.30188  0.70114  1.0000
  H   H862      1.0  0.89058  0.23767  0.74480  1.0000
  H   H863      1.0  0.86424  0.25817  0.72620  1.0000
  H   H864      1.0  0.86995  0.24617  0.65663  1.0000
  H   H865      1.0  0.90372  0.24602  0.63314  1.0000
  H   H866      1.0  0.94612  0.25491  0.67033  1.0000
  H   H867      1.0  0.94447  0.27633  0.71163  1.0000
  H   H868      1.0  0.89775  0.28587  0.61343  1.0000
  H   H869      1.0  0.88516  0.26877  0.79485  1.0000
  H   H870      1.0  0.91705  0.27907  0.77087  1.0000
  H   H871      1.0  0.88369  0.29472  0.76045  1.0000
  H   H872      1.0  0.91945  0.20847  0.66789  1.0000
  H   H873      1.0  0.88518  0.20331  0.64688  1.0000
  H   H874      1.0  0.88793  0.20791  0.69940  1.0000
  H   H875      1.0  0.96705  0.23070  0.71974  1.0000
  H   H876      1.0  0.93206  0.22026  0.73060  1.0000
  H   H877      1.0  0.94854  0.24520  0.75950  1.0000
  H   H878      1.0  0.92873  0.03899  0.76588  1.0000
  N   N38       1.0  0.92323  0.16589  0.85095  1.0000
  H   H879      1.0  0.87047  0.14708  0.87621  1.0000
  C   C510      1.0  0.95378  0.17380  0.85542  1.0000
  C   C511      1.0  0.91953  0.15308  0.81079  1.0000
  C   C512      1.0  0.90273  0.18779  0.85565  1.0000
  H   H880      1.0  0.70783  0.25175  0.63097  1.0000
  C   C513      1.0  0.96269  0.18305  0.89759  1.0000
  C   C514      1.0  0.92399  0.16958  0.77321  1.0000
  C   C515      1.0  0.91269  0.21428  0.84106  1.0000
  H   H881      1.0  0.70918  0.10196  0.81915  1.0000
  N   N39       1.0  0.88576  0.42821  0.79480  1.0000
  H   H882      1.0  0.95946  0.18879  0.83364  1.0000
  H   H883      1.0  0.96807  0.15767  0.84801  1.0000
  H   H884      1.0  0.93427  0.13661  0.80855  1.0000
  H   H885      1.0  0.89777  0.14529  0.80733  1.0000
  H   H886      1.0  0.79886  0.39304  0.59904  1.0000
  H   H887      1.0  0.89673  0.19041  0.88769  1.0000
  S   S143      1.0  0.71042  0.01685  0.71225  1.0000
  H   H888      1.0  0.72924  0.23377  0.76404  1.0000
  H   H889      1.0  0.87141  0.41886  0.61114  1.0000
  H   H890      1.0  0.97278  0.02657  0.67176  1.0000
  H   H891      1.0  0.94720  0.19647  0.91076  1.0000
  H   H892      1.0  0.96575  0.16665  0.91822  1.0000
  H   H893      1.0  0.94463  0.17961  0.77309  1.0000
  H   H894      1.0  0.90617  0.18310  0.76902  1.0000
  H   H895      1.0  0.92383  0.15693  0.74645  1.0000
  H   H896      1.0  0.92928  0.22240  0.86094  1.0000
  H   H897      1.0  0.89448  0.22766  0.84200  1.0000
  H   H898      1.0  0.92066  0.21431  0.80997  1.0000
  H   H899      1.0  0.86655  0.40102  0.75383  1.0000
  H   H900      1.0  0.85439  0.00376  0.75670  1.0000
  C   C516      1.0  0.82999  0.99162  0.68289  1.0000
  H   H901      1.0  0.84222  0.39798  0.61634  1.0000
  Fe  Fe71      1.0  0.99241  0.97133  0.90206  1.0000
  C   C517      1.0  0.85301  0.35478  0.66895  1.0000
  C   C518      1.0  0.77632  0.03265  0.77676  1.0000
  N   N40       1.0  0.82136  0.02837  0.73320  1.0000
  H   H902      1.0  0.01172  0.19475  0.81447  1.0000
  C   C519      1.0  0.88794  0.13332  0.88113  1.0000
  C   C520      1.0  0.94969  0.98991  0.01375  1.0000
  H   H903      1.0  0.88240  0.18354  0.83984  1.0000
  C   C521      1.0  0.95460  0.97912  0.68955  1.0000
  C   C522      1.0  0.77658  0.42826  0.59274  1.0000
  S   S144      1.0  0.97626  0.32644  0.73779  1.0000
  Fe  Fe72      1.0  0.97029  0.31826  0.80334  1.0000
  H   H904      1.0  0.81377  0.07144  0.67942  1.0000
  H   H905      1.0  0.98178  0.22742  0.84824  1.0000
  N   N41       1.0  0.95952  0.00067  0.71871  1.0000
  H   H906      1.0  0.96294  0.04172  0.71670  1.0000
  H   H907      1.0  0.95617  0.02497  0.79682  1.0000
  C   C523      1.0  0.83661  0.01573  0.76765  1.0000
  H   H908      1.0  0.75930  0.04660  0.78349  1.0000
  H   H909      1.0  0.72354  0.17587  0.61150  1.0000
  H   H910      1.0  0.01000  0.28371  0.76452  1.0000
  C   C524      1.0  0.99024  0.06504  0.87634  1.0000
  H   H911      1.0  0.76624  0.22156  0.58143  1.0000
  H   H912      1.0  0.91995  0.01700  0.80431  1.0000
  H   H913      1.0  0.86766  0.04477  0.78704  1.0000
  Fe  Fe73      1.0  0.00891  0.10931  0.73634  1.0000
  H   H914      1.0  0.93170  0.97755  0.68172  1.0000
  S   S145      1.0  0.89778  0.96833  0.83730  1.0000
  S   S146      1.0  0.97983  0.97691  0.83812  1.0000
  H   H915      1.0  0.93175  0.42867  0.79777  1.0000
  H   H916      1.0  0.94121  0.98139  0.76996  1.0000
  H   H917      1.0  0.96528  0.98271  0.66038  1.0000
  Fe  Fe74      1.0  0.72310  0.97628  0.70155  1.0000
  H   H918      1.0  0.93967  0.02699  0.98873  1.0000
  C   C525      1.0  0.95144  0.01924  0.01498  1.0000
  H   H919      1.0  0.73546  0.20927  0.66051  1.0000
  H   H920      1.0  0.80390  0.95158  0.78073  1.0000
  H   H921      1.0  0.70852  0.07061  0.71814  1.0000
  H   H922      1.0  0.83397  0.04668  0.81287  1.0000
  H   H923      1.0  0.85035  0.06016  0.72968  1.0000
  C   C526      1.0  0.84973  0.03363  0.79938  1.0000
  H   H924      1.0  0.84163  0.00288  0.66019  1.0000
  C   C527      1.0  0.88355  0.41185  0.83190  1.0000
  C   C528      1.0  0.96705  0.40064  0.92074  1.0000
  H   H925      1.0  0.71316  0.07357  0.78917  1.0000
  C   C529      1.0  0.91734  0.14618  0.88289  1.0000
  H   H926      1.0  0.79601  0.99432  0.72492  1.0000
  H   H927      1.0  0.95918  0.98361  0.98493  1.0000
  C   C530      1.0  0.84223  0.04452  0.71045  1.0000
  H   H928      1.0  0.86215  0.35616  0.63935  1.0000
  H   H929      1.0  0.86111  0.03314  0.70196  1.0000
  C   C531      1.0  0.82342  0.35506  0.67349  1.0000
  C   C532      1.0  0.98489  0.37393  0.97466  1.0000
  C   C533      1.0  0.97589  0.37681  0.93466  1.0000
  H   H930      1.0  0.97551  0.36055  0.91476  1.0000
  C   C534      1.0  0.96754  0.42157  0.94687  1.0000
  H   H931      1.0  0.92925  0.04956  0.66120  1.0000
  H   H932      1.0  0.85897  0.42439  0.54567  1.0000
  H   H933      1.0  0.76227  0.43761  0.57068  1.0000
  C   C535      1.0  0.71305  0.20263  0.65882  1.0000
  H   H934      1.0  0.79165  0.44235  0.60528  1.0000
  C   C536      1.0  0.77561  0.23210  0.60599  1.0000
  C   C537      1.0  0.80874  0.00795  0.70682  1.0000
  H   H935      1.0  0.82220  0.00245  0.78354  1.0000
  H   H936      1.0  0.99117  0.98183  0.75596  1.0000
  H   H937      1.0  0.85860  0.02188  0.82418  1.0000
  C   C538      1.0  0.00358  0.03391  0.92701  1.0000
  C   C539      1.0  0.92793  0.03130  0.67789  1.0000
  H   H938      1.0  0.83746  0.96812  0.83200  1.0000
  H   H939      1.0  0.91139  0.03369  0.70103  1.0000
  H   H940      1.0  0.81803  0.97674  0.66627  1.0000
  H   H941      1.0  0.92141  0.01655  0.65598  1.0000
  C   C540      1.0  0.93593  0.02136  0.78090  1.0000
  H   H942      1.0  0.01583  0.09436  0.95986  1.0000
  C   C541      1.0  0.01112  0.21407  0.80332  1.0000
  C   C542      1.0  0.99881  0.08478  0.90179  1.0000
  C   C543      1.0  0.83961  0.42561  0.56462  1.0000
  H   H943      1.0  0.01784  0.39285  0.87727  1.0000
  H   H944      1.0  0.98355  0.19277  0.89569  1.0000
  S   S147      1.0  0.73051  0.15595  0.79730  1.0000
  C   C544      1.0  0.85630  0.39607  0.83659  1.0000
  C   C545      1.0  0.83758  0.36645  0.55324  1.0000
  C   C546      1.0  0.98864  0.99918  0.73731  1.0000
  C   C547      1.0  0.97684  0.41874  0.98676  1.0000
  S   S148      1.0  0.00871  0.00230  0.94283  1.0000
  C   C548      1.0  0.99423  0.23242  0.82235  1.0000
  H   H945      1.0  0.88388  0.12341  0.91000  1.0000
  H   H946      1.0  0.76284  0.42148  0.61759  1.0000
  C   C549      1.0  0.98543  0.39487  0.00077  1.0000
  H   H947      1.0  0.91893  0.15471  0.91337  1.0000
  C   C550      1.0  0.95716  0.02559  0.69668  1.0000
  C   C551      1.0  0.89434  0.42417  0.71852  1.0000
  Fe  Fe75      1.0  0.00394  0.35849  0.75944  1.0000
  H   H948      1.0  0.93359  0.13071  0.88203  1.0000
  S   S149      1.0  0.71436  0.39777  0.54170  1.0000
  H   H949      1.0  0.72681  0.24788  0.69483  1.0000
  S   S150      1.0  0.02687  0.08612  0.78663  1.0000
  H   H950      1.0  0.99199  0.01500  0.75893  1.0000
  H   H951      1.0  0.88728  0.11845  0.85755  1.0000
  S   S151      1.0  0.95559  0.40494  0.87081  1.0000
  C   C552      1.0  0.79175  0.40521  0.57390  1.0000
  C   C553      1.0  0.88691  0.41106  0.75857  1.0000
  H   H952      1.0  0.90169  0.39828  0.83338  1.0000
  H   H953      1.0  0.85790  0.37244  0.56711  1.0000
  H   H954      1.0  0.88774  0.41174  0.69319  1.0000
  C   C554      1.0  0.01020  0.26437  0.77542  1.0000
  H   H955      1.0  0.83913  0.43103  0.63012  1.0000
  S   S152      1.0  0.00100  0.34807  0.82461  1.0000
  H   H956      1.0  0.98179  0.06935  0.84691  1.0000
  H   H957      1.0  0.97342  0.02634  0.01204  1.0000
  C   C555      1.0  0.70780  0.23755  0.70640  1.0000
  C   C556      1.0  0.01189  0.05373  0.95251  1.0000
  H   H958      1.0  0.85158  0.38413  0.81014  1.0000
  C   C557      1.0  0.69682  0.15430  0.77503  1.0000
  H   H959      1.0  0.85907  0.38285  0.86235  1.0000
  H   H960      1.0  0.00304  0.97257  0.01568  1.0000
  S   S153      1.0  0.75049  0.95788  0.65465  1.0000
  C   C558      1.0  0.71796  0.22127  0.74235  1.0000
  S   S154      1.0  0.74655  0.27321  0.57680  1.0000
  H   H961      1.0  0.92687  0.98535  0.01066  1.0000
  Fe  Fe76      1.0  0.01652  0.12015  0.82422  1.0000
  C   C559      1.0  0.69904  0.08367  0.81046  1.0000
  C   C560      1.0  0.84800  0.41755  0.60779  1.0000
  S   S155      1.0  0.99757  0.11650  0.88561  1.0000
  Fe  Fe77      1.0  0.94161  0.95329  0.85227  1.0000
  H   H962      1.0  0.83742  0.43719  0.73805  1.0000
  C   C561      1.0  0.96385  0.95251  0.70414  1.0000
  H   H963      1.0  0.88366  0.44281  0.71488  1.0000
  H   H964      1.0  0.02112  0.02064  0.70433  1.0000
  H   H965      1.0  0.02066  0.04946  0.98179  1.0000
  H   H966      1.0  0.69778  0.07236  0.83833  1.0000
  C   C562      1.0  0.01390  0.00064  0.70799  1.0000
  S   S156      1.0  0.74179  0.95501  0.75378  1.0000
  H   H967      1.0  0.92028  0.45007  0.86205  1.0000
  C   C563      1.0  0.87466  0.95322  0.80308  1.0000
  C   C564      1.0  0.83431  0.43893  0.77090  1.0000
  H   H968      1.0  0.70009  0.21249  0.75882  1.0000
  C   C565      1.0  0.86183  0.44731  0.79260  1.0000
  C   C566      1.0  0.02748  0.22086  0.77012  1.0000
  H   H969      1.0  0.00912  0.99271  0.67801  1.0000
  C   C567      1.0  0.91365  0.44231  0.79730  1.0000
  H   H970      1.0  0.83446  0.44627  0.56657  1.0000
  H   H971      1.0  0.98729  0.95069  0.70443  1.0000
  S   S157      1.0  0.95257  0.95061  0.91767  1.0000
  Fe  Fe78      1.0  0.96351  0.85955  0.24559  1.0000
  S   S158      1.0  0.95478  0.85266  0.18015  1.0000
  S   S159      1.0  0.93182  0.87040  0.29316  1.0000
  H   H972      1.0  0.88256  0.86146  0.34087  1.0000
  S   S160      1.0  0.96039  0.77831  0.16916  1.0000
  S   S161      1.0  0.98302  0.82136  0.25585  1.0000
  Fe  Fe79      1.0  0.74688  0.87632  0.38253  1.0000
  S   S162      1.0  0.74189  0.89711  0.32402  1.0000
  S   S163      1.0  0.76288  0.89994  0.43480  1.0000
  Fe  Fe80      1.0  0.73630  0.82526  0.34325  1.0000
  S   S164      1.0  0.73107  0.84224  0.28212  1.0000
  S   S165      1.0  0.72952  0.78293  0.34518  1.0000
  Fe  Fe81      1.0  0.76864  0.86604  0.29828  1.0000
  S   S166      1.0  0.80126  0.87387  0.25045  1.0000
  H   H973      1.0  0.95962  0.50304  0.23746  1.0000
  C   C568      1.0  0.73144  0.67313  0.23186  1.0000
  S   S167      1.0  0.77631  0.84673  0.35716  1.0000
  H   H974      1.0  0.84408  0.91737  0.32025  1.0000
  Fe  Fe82      1.0  0.83178  0.67782  0.29339  1.0000
  S   S168      1.0  0.83249  0.67396  0.22644  1.0000
  S   S169      1.0  0.83976  0.71673  0.31928  1.0000
  Fe  Fe83      1.0  0.82831  0.62083  0.30680  1.0000
  S   S170      1.0  0.82952  0.61237  0.24125  1.0000
  S   S171      1.0  0.82642  0.58729  0.34821  1.0000
  Fe  Fe84      1.0  0.86292  0.64218  0.23814  1.0000
  S   S172      1.0  0.90022  0.63771  0.19757  1.0000
  Fe  Fe85      1.0  0.79887  0.64456  0.23597  1.0000
  H   H975      1.0  0.86095  0.78297  0.16799  1.0000
  S   S173      1.0  0.86486  0.64793  0.30456  1.0000
  S   S174      1.0  0.79492  0.65111  0.30223  1.0000
  H   H976      1.0  0.79819  0.49880  0.18983  1.0000
  Fe  Fe86      1.0  0.97780  0.81581  0.19017  1.0000
  H   H977      1.0  0.83727  0.57904  0.16982  1.0000
  H   H978      1.0  0.83121  0.86177  0.32461  1.0000
  H   H979      1.0  0.93725  0.57102  0.27729  1.0000
  H   H980      1.0  0.01181  0.51557  0.22714  1.0000
  C   C569      1.0  0.94131  0.56643  0.24527  1.0000
  H   H981      1.0  0.71841  0.52411  0.14962  1.0000
  S   S175      1.0  0.73240  0.51094  0.28803  1.0000
  C   C570      1.0  0.73245  0.65421  0.20231  1.0000
  C   C571      1.0  0.82001  0.74944  0.19760  1.0000
  Fe  Fe87      1.0  0.99850  0.86874  0.17099  1.0000
  H   H982      1.0  0.85062  0.87920  0.20185  1.0000
  H   H983      1.0  0.77539  0.51977  0.21676  1.0000
  C   C572      1.0  0.85901  0.51148  0.23624  1.0000
  C   C573      1.0  0.93252  0.63737  0.22333  1.0000
  C   C574      1.0  0.95704  0.64504  0.20336  1.0000
  C   C575      1.0  0.98315  0.64478  0.22332  1.0000
  C   C576      1.0  0.98508  0.63577  0.26267  1.0000
  C   C577      1.0  0.96046  0.62849  0.28296  1.0000
  C   C578      1.0  0.93412  0.62947  0.26336  1.0000
  H   H984      1.0  0.95579  0.65162  0.17261  1.0000
  H   H985      1.0  0.00166  0.65182  0.20823  1.0000
  H   H986      1.0  0.96182  0.62171  0.31357  1.0000
  H   H987      1.0  0.91530  0.62315  0.27873  1.0000
  C   C579      1.0  0.80013  0.56612  0.33187  1.0000
  C   C580      1.0  0.79767  0.54209  0.34968  1.0000
  C   C581      1.0  0.77713  0.52484  0.33588  1.0000
  C   C582      1.0  0.75877  0.53182  0.30474  1.0000
  C   C583      1.0  0.76130  0.55576  0.28684  1.0000
  C   C584      1.0  0.78191  0.57291  0.30044  1.0000
  H   H988      1.0  0.81177  0.53679  0.37397  1.0000
  H   H989      1.0  0.77516  0.50635  0.34986  1.0000
  H   H990      1.0  0.74764  0.56092  0.26203  1.0000
  H   H991      1.0  0.78353  0.59147  0.28672  1.0000
  C   C585      1.0  0.74204  0.90376  0.47809  1.0000
  C   C586      1.0  0.75030  0.92180  0.50688  1.0000
  H   H992      1.0  0.72112  0.57394  0.34815  1.0000
  C   C587      1.0  0.00002  0.80955  0.07682  1.0000
  C   C588      1.0  0.71850  0.88830  0.48542  1.0000
  C   C589      1.0  0.88634  0.81254  0.19341  1.0000
  C   C590      1.0  0.71966  0.50534  0.16467  1.0000
  S   S176      1.0  0.01147  0.89599  0.12180  1.0000
  C   C591      1.0  0.76023  0.76459  0.33823  1.0000
  C   C592      1.0  0.75786  0.73969  0.32355  1.0000
  C   C593      1.0  0.78220  0.72480  0.31772  1.0000
  C   C594      1.0  0.80890  0.73455  0.32764  1.0000
  C   C595      1.0  0.81125  0.75932  0.34276  1.0000
  C   C596      1.0  0.78699  0.77443  0.34757  1.0000
  H   H993      1.0  0.73723  0.73188  0.31655  1.0000
  H   H994      1.0  0.78026  0.70580  0.30572  1.0000
  H   H995      1.0  0.83185  0.76684  0.35073  1.0000
  H   H996      1.0  0.78895  0.79340  0.35961  1.0000
  H   H997      1.0  0.01629  0.72296  0.27068  1.0000
  H   H998      1.0  0.87345  0.58849  0.17203  1.0000
  H   H999      1.0  0.88365  0.49406  0.12971  1.0000
  C   C597      1.0  0.98116  0.73226  0.14479  1.0000
  C   C598      1.0  0.97592  0.87653  0.06330  1.0000
  H   H1000     1.0  0.95969  0.72795  0.13549  1.0000
  C   C599      1.0  0.89570  0.86942  0.28033  1.0000
  C   C600      1.0  0.87559  0.86505  0.31042  1.0000
  C   C601      1.0  0.84651  0.86529  0.30127  1.0000
  C   C602      1.0  0.83743  0.87085  0.26228  1.0000
  C   C603      1.0  0.98726  0.75550  0.16343  1.0000
  H   H1001     1.0  0.86339  0.56361  0.13873  1.0000
  H   H1002     1.0  0.89859  0.50923  0.17254  1.0000
  C   C604      1.0  0.88665  0.87396  0.24100  1.0000
  C   C605      1.0  0.00017  0.89084  0.07205  1.0000
  H   H1003     1.0  0.86264  0.50697  0.30088  1.0000
  H   H1004     1.0  0.81493  0.54850  0.23461  1.0000
  S   S177      1.0  0.00494  0.52199  0.07762  1.0000
  C   C606      1.0  0.85172  0.51475  0.16362  1.0000
  H   H1005     1.0  0.83454  0.74783  0.17169  1.0000
  C   C607      1.0  0.86560  0.55287  0.20325  1.0000
  C   C608      1.0  0.78568  0.84183  0.52932  1.0000
  H   H1006     1.0  0.88862  0.52711  0.12794  1.0000
  H   H1007     1.0  0.84220  0.49540  0.16541  1.0000
  H   H1008     1.0  0.80054  0.75976  0.18847  1.0000
  C   C609      1.0  0.01535  0.90216  0.04064  1.0000
  H   H1009     1.0  0.99953  0.82940  0.08827  1.0000
  H   H1010     1.0  0.01980  0.77837  0.19106  1.0000
  C   C610      1.0  0.71140  0.61457  0.29094  1.0000
  H   H1011     1.0  0.70592  0.59561  0.21496  1.0000
  H   H1012     1.0  0.80748  0.83398  0.53004  1.0000
  H   H1013     1.0  0.77773  0.93078  0.36830  1.0000
  C   C611      1.0  0.83638  0.91603  0.38316  1.0000
  H   H1014     1.0  0.74741  0.61439  0.33263  1.0000
  H   H1015     1.0  0.72035  0.74090  0.23227  1.0000
  C   C612      1.0  0.82545  0.92045  0.33996  1.0000
  Fe  Fe88      1.0  0.00896  0.48218  0.10115  1.0000
  H   H1016     1.0  0.78574  0.92834  0.28570  1.0000
  C   C613      1.0  0.00309  0.71502  0.13636  1.0000
  H   H1017     1.0  0.00873  0.94785  0.08351  1.0000
  C   C614      1.0  0.99690  0.52884  0.24229  1.0000
  H   H1018     1.0  0.99685  0.74844  0.32443  1.0000
  S   S178      1.0  0.70717  0.85304  0.37399  1.0000
  H   H1019     1.0  0.81030  0.90471  0.33319  1.0000
  H   H1020     1.0  0.72921  0.64398  0.33045  1.0000
  Fe  Fe89      1.0  0.70467  0.87146  0.31320  1.0000
  H   H1021     1.0  0.95478  0.80665  0.08728  1.0000
  S   S179      1.0  0.97292  0.45453  0.10541  1.0000
  H   H1022     1.0  0.96322  0.93769  0.07340  1.0000
  H   H1023     1.0  0.84458  0.89625  0.38542  1.0000
  H   H1024     1.0  0.71198  0.87436  0.46337  1.0000
  H   H1025     1.0  0.00384  0.79755  0.10384  1.0000
  H   H1026     1.0  0.81941  0.91779  0.40589  1.0000
  N   N42       1.0  0.95480  0.71990  0.28118  1.0000
  C   C615      1.0  0.97867  0.70290  0.29505  1.0000
  C   C616      1.0  0.93203  0.71949  0.31286  1.0000
  C   C617      1.0  0.96478  0.74687  0.27556  1.0000
  C   C618      1.0  0.94400  0.71004  0.24153  1.0000
  C   C619      1.0  0.00611  0.70396  0.27009  1.0000
  C   C620      1.0  0.91441  0.69487  0.31512  1.0000
  H   H1027     1.0  0.73775  0.49499  0.15097  1.0000
  C   C621      1.0  0.91803  0.72395  0.22357  1.0000
  H   H1028     1.0  0.98465  0.70687  0.32676  1.0000
  H   H1029     1.0  0.97180  0.68269  0.29523  1.0000
  H   H1030     1.0  0.91698  0.73562  0.30926  1.0000
  H   H1031     1.0  0.94135  0.72235  0.34327  1.0000
  H   H1032     1.0  0.98016  0.74828  0.25042  1.0000
  H   H1033     1.0  0.94689  0.75937  0.26615  1.0000
  H   H1034     1.0  0.96081  0.71115  0.21833  1.0000
  H   H1035     1.0  0.93909  0.68937  0.24306  1.0000
  C   C622      1.0  0.97827  0.75919  0.31312  1.0000
  H   H1036     1.0  0.00275  0.69789  0.23860  1.0000
  H   H1037     1.0  0.70427  0.81649  0.20735  1.0000
  H   H1038     1.0  0.90074  0.69263  0.28821  1.0000
  H   H1039     1.0  0.92781  0.67772  0.31898  1.0000
  H   H1040     1.0  0.90001  0.69594  0.34138  1.0000
  H   H1041     1.0  0.02607  0.54660  0.17710  1.0000
  S   S180      1.0  0.02085  0.83112  0.17542  1.0000
  C   C623      1.0  0.01543  0.56088  0.19664  1.0000
  H   H1042     1.0  0.92487  0.73873  0.20191  1.0000
  H   H1043     1.0  0.90433  0.73299  0.24623  1.0000
  H   H1044     1.0  0.90438  0.70996  0.20758  1.0000
  H   H1045     1.0  0.94896  0.57465  0.16121  1.0000
  C   C624      1.0  0.85929  0.57171  0.16876  1.0000
  H   H1046     1.0  0.80929  0.54584  0.18245  1.0000
  H   H1047     1.0  0.83981  0.52496  0.13961  1.0000
  C   C625      1.0  0.79746  0.51252  0.21504  1.0000
  C   C626      1.0  0.97157  0.53936  0.17925  1.0000
  H   H1048     1.0  0.83551  0.92574  0.25750  1.0000
  C   C627      1.0  0.81770  0.53525  0.20884  1.0000
  H   H1049     1.0  0.80161  0.50242  0.24365  1.0000
  C   C628      1.0  0.85755  0.87492  0.23210  1.0000
  H   H1050     1.0  0.86203  0.56365  0.23149  1.0000
  N   N43       1.0  0.84853  0.52861  0.20300  1.0000
  H   H1051     1.0  0.70880  0.63345  0.15775  1.0000
  H   H1052     1.0  0.88868  0.54872  0.20280  1.0000
  H   H1053     1.0  0.90205  0.87759  0.21775  1.0000
  H   H1054     1.0  0.96257  0.76166  0.33749  1.0000
  H   H1055     1.0  0.87504  0.76450  0.29640  1.0000
  C   C629      1.0  0.88254  0.51145  0.14852  1.0000
  H   H1056     1.0  0.88463  0.77224  0.20546  1.0000
  H   H1057     1.0  0.84851  0.49254  0.23473  1.0000
  C   C630      1.0  0.01504  0.76086  0.17555  1.0000
  S   S181      1.0  0.01811  0.63302  0.28630  1.0000
  H   H1058     1.0  0.81142  0.94251  0.22630  1.0000
  H   H1059     1.0  0.98618  0.77839  0.30537  1.0000
  H   H1060     1.0  0.01745  0.57589  0.08248  1.0000
  Fe  Fe90      1.0  0.74877  0.47089  0.28759  1.0000
  H   H1061     1.0  0.78013  0.84513  0.49725  1.0000
  H   H1062     1.0  0.85192  0.74856  0.24329  1.0000
  H   H1063     1.0  0.88197  0.50730  0.23300  1.0000
  H   H1064     1.0  0.81336  0.72981  0.20570  1.0000
  H   H1065     1.0  0.89984  0.78377  0.26791  1.0000
  H   H1066     1.0  0.86796  0.53902  0.28501  1.0000
  Fe  Fe91      1.0  0.02456  0.83965  0.24114  1.0000
  H   H1067     1.0  0.98394  0.57536  0.26478  1.0000
  H   H1068     1.0  0.95237  0.52911  0.18899  1.0000
  H   H1069     1.0  0.92794  0.57975  0.22750  1.0000
  H   H1070     1.0  0.88731  0.79421  0.31548  1.0000
  C   C631      1.0  0.88097  0.78413  0.28755  1.0000
  C   C632      1.0  0.85520  0.52167  0.27930  1.0000
  H   H1071     1.0  0.70993  0.63183  0.27179  1.0000
  H   H1072     1.0  0.72512  0.50777  0.19679  1.0000
  H   H1073     1.0  0.98294  0.49671  0.27779  1.0000
  H   H1074     1.0  0.83272  0.52546  0.28652  1.0000
  H   H1075     1.0  0.81915  0.76106  0.25946  1.0000
  H   H1076     1.0  0.76835  0.93394  0.50118  1.0000
  H   H1077     1.0  0.90264  0.80965  0.16986  1.0000
  H   H1078     1.0  0.79855  0.81450  0.26843  1.0000
  C   C633      1.0  0.85572  0.79838  0.26845  1.0000
  C   C634      1.0  0.83451  0.76170  0.23437  1.0000
  H   H1079     1.0  0.89798  0.81794  0.22110  1.0000
  N   N44       1.0  0.84553  0.78837  0.22856  1.0000
  C   C635      1.0  0.86926  0.78768  0.19837  1.0000
  H   H1080     1.0  0.86160  0.81879  0.26611  1.0000
  H   H1081     1.0  0.83846  0.79777  0.29104  1.0000
  C   C636      1.0  0.82252  0.80577  0.21308  1.0000
  H   H1082     1.0  0.87283  0.82860  0.18341  1.0000
  S   S182      1.0  0.76319  0.63657  0.19358  1.0000
  C   C637      1.0  0.79495  0.80659  0.23800  1.0000
  H   H1083     1.0  0.81664  0.80092  0.18164  1.0000
  H   H1084     1.0  0.83022  0.82574  0.21164  1.0000
  H   H1085     1.0  0.77968  0.81960  0.22293  1.0000
  H   H1086     1.0  0.78438  0.78782  0.24038  1.0000
  H   H1087     1.0  0.99852  0.69754  0.12040  1.0000
  C   C638      1.0  0.70803  0.64802  0.18067  1.0000
  H   H1088     1.0  0.00520  0.75729  0.07738  1.0000
  H   H1089     1.0  0.72656  0.60201  0.27493  1.0000
  H   H1090     1.0  0.72393  0.77418  0.21945  1.0000
  C   C639      1.0  0.72595  0.62303  0.33053  1.0000
  H   H1091     1.0  0.96011  0.52336  0.28197  1.0000
  H   H1092     1.0  0.71480  0.61792  0.35839  1.0000
  S   S183      1.0  0.00567  0.87875  0.23617  1.0000
  H   H1093     1.0  0.93349  0.54695  0.24015  1.0000
  H   H1094     1.0  0.75034  0.67797  0.24867  1.0000
  H   H1095     1.0  0.91127  0.94675  0.05059  1.0000
  H   H1096     1.0  0.97415  0.58890  0.21825  1.0000
  C   C640      1.0  0.71375  0.75597  0.21088  1.0000
  H   H1097     1.0  0.97943  0.56706  0.13069  1.0000
  C   C641      1.0  0.97307  0.51244  0.26034  1.0000
  H   H1098     1.0  0.96722  0.78344  0.05275  1.0000
  N   N45       1.0  0.98844  0.54999  0.21399  1.0000
  C   C642      1.0  0.97306  0.57091  0.23590  1.0000
  H   H1099     1.0  0.98420  0.52470  0.16307  1.0000
  N   N46       1.0  0.81173  0.94590  0.33170  1.0000
  C   C643      1.0  0.70373  0.89051  0.52183  1.0000
  H   H1100     1.0  0.94775  0.54926  0.12547  1.0000
  C   C644      1.0  0.96150  0.55900  0.14782  1.0000
  H   H1101     1.0  0.96395  0.86792  0.08736  1.0000
  H   H1102     1.0  0.00860  0.53659  0.26863  1.0000
  H   H1103     1.0  0.02150  0.69046  0.28359  1.0000
  H   H1104     1.0  0.72219  0.75032  0.18111  1.0000
  S   S184      1.0  0.02188  0.47853  0.16553  1.0000
  C   C645      1.0  0.70563  0.68537  0.24025  1.0000
  C   C646      1.0  0.96970  0.80356  0.06202  1.0000
  C   C647      1.0  0.82258  0.94327  0.25571  1.0000
  H   H1105     1.0  0.79791  0.88090  0.53595  1.0000
  H   H1106     1.0  0.01087  0.57759  0.17713  1.0000
  C   C648      1.0  0.78797  0.94934  0.36161  1.0000
  C   C649      1.0  0.80026  0.94491  0.28934  1.0000
  H   H1107     1.0  0.85428  0.92881  0.39082  1.0000
  H   H1108     1.0  0.70468  0.69952  0.26374  1.0000
  C   C650      1.0  0.95823  0.94762  0.04470  1.0000
  N   N47       1.0  0.02347  0.80633  0.04657  1.0000
  S   S185      1.0  0.79249  0.45686  0.30345  1.0000
  H   H1109     1.0  0.69754  0.79678  0.26734  1.0000
  H   H1110     1.0  0.69720  0.75487  0.28631  1.0000
  H   H1111     1.0  0.69880  0.56398  0.28356  1.0000
  S   S186      1.0  0.74959  0.45528  0.22541  1.0000
  C   C651      1.0  0.69852  0.56828  0.34660  1.0000
  C   C652      1.0  0.02406  0.75781  0.05776  1.0000
  H   H1112     1.0  0.02425  0.73960  0.04082  1.0000
  H   H1113     1.0  0.69620  0.47046  0.17277  1.0000
  H   H1114     1.0  0.69832  0.54729  0.35082  1.0000
  H   H1115     1.0  0.92272  0.45088  0.14963  1.0000
  H   H1116     1.0  0.94809  0.86268  0.01651  1.0000
  Fe  Fe92      1.0  0.97665  0.91545  0.90141  1.0000
  H   H1117     1.0  0.92420  0.94300  0.99978  1.0000
  H   H1118     1.0  0.90731  0.93565  0.76770  1.0000
  S   S187      1.0  0.73388  0.90367  0.69897  1.0000
  H   H1119     1.0  0.82369  0.83793  0.59470  1.0000
  S   S188      1.0  0.96257  0.91633  0.83658  1.0000
  C   C653      1.0  0.96691  0.87367  0.02325  1.0000
  S   S189      1.0  0.02720  0.93757  0.76942  1.0000
  S   S190      1.0  0.81342  0.92385  0.70644  1.0000
  Fe  Fe93      1.0  0.76672  0.93436  0.70655  1.0000
  C   C654      1.0  0.78365  0.86737  0.55185  1.0000
  Fe  Fe94      1.0  0.70717  0.92668  0.74127  1.0000
  C   C655      1.0  0.71246  0.90810  0.55105  1.0000
  H   H1120     1.0  0.95552  0.94785  0.73431  1.0000
  H   H1121     1.0  0.76287  0.89840  0.60802  1.0000
  C   C656      1.0  0.01959  0.82574  0.01374  1.0000
  H   H1122     1.0  0.80551  0.92964  0.61918  1.0000
  H   H1123     1.0  0.89964  0.47420  0.83619  1.0000
  C   C657      1.0  0.91737  0.46049  0.83341  1.0000
  H   H1124     1.0  0.83508  0.86821  0.57916  1.0000
  H   H1125     1.0  0.82550  0.90865  0.58944  1.0000
  C   C658      1.0  0.88480  0.93905  0.77066  1.0000
  H   H1126     1.0  0.74204  0.93794  0.56532  1.0000
  H   H1127     1.0  0.87369  0.91899  0.71630  1.0000
  H   H1128     1.0  0.82126  0.85381  0.66739  1.0000
  H   H1129     1.0  0.73197  0.86853  0.62443  1.0000
  C   C659      1.0  0.83649  0.93439  0.74483  1.0000
  H   H1130     1.0  0.86873  0.46500  0.77696  1.0000
  H   H1131     1.0  0.73318  0.84873  0.57998  1.0000
  S   S191      1.0  0.97045  0.88138  0.94205  1.0000
  C   C660      1.0  0.73986  0.85041  0.61178  1.0000
  H   H1132     1.0  0.92720  0.91773  0.03485  1.0000
  H   H1133     1.0  0.77778  0.82764  0.60910  1.0000
  C   C661      1.0  0.73551  0.92402  0.54325  1.0000
  C   C662      1.0  0.78520  0.89251  0.61334  1.0000
  H   H1134     1.0  0.77044  0.82758  0.54088  1.0000
  C   C663      1.0  0.83388  0.86298  0.64342  1.0000
  C   C664      1.0  0.98184  0.88541  0.99194  1.0000
  H   H1135     1.0  0.72893  0.83496  0.62840  1.0000
  C   C665      1.0  0.02283  0.78023  0.02795  1.0000
  N   N48       1.0  0.79054  0.86650  0.59598  1.0000
  H   H1136     1.0  0.78694  0.89251  0.64663  1.0000
  S   S192      1.0  0.01781  0.93592  0.89062  1.0000
  Fe  Fe95      1.0  0.71591  0.92851  0.65042  1.0000
  H   H1137     1.0  0.96277  0.81639  0.03751  1.0000
  C   C666      1.0  0.80352  0.91438  0.59632  1.0000
  H   H1138     1.0  0.99897  0.82299  0.99805  1.0000
  C   C667      1.0  0.00615  0.89958  0.00073  1.0000
  Fe  Fe96      1.0  0.00203  0.93989  0.82711  1.0000
  C   C668      1.0  0.77216  0.84748  0.61765  1.0000
  C   C669      1.0  0.86573  0.92970  0.74157  1.0000
  H   H1139     1.0  0.85548  0.85459  0.64463  1.0000
  H   H1140     1.0  0.83624  0.88353  0.65027  1.0000
  H   H1141     1.0  0.77593  0.84850  0.65060  1.0000
  C   C670      1.0  0.82108  0.85857  0.60127  1.0000
  H   H1142     1.0  0.93709  0.47173  0.82914  1.0000
  C   C671      1.0  0.82637  0.94808  0.77770  1.0000
  H   H1143     1.0  0.91688  0.45442  0.77033  1.0000
  H   H1144     1.0  0.79385  0.92251  0.56879  1.0000
  C   C672      1.0  0.92835  0.93878  0.03191  1.0000
  H   H1145     1.0  0.97260  0.93920  0.02189  1.0000
  H   H1146     1.0  0.01797  0.90841  0.97670  1.0000
  H   H1147     1.0  0.85576  0.45359  0.82333  1.0000
  H   H1148     1.0  0.95571  0.93785  0.68304  1.0000
  H   H1149     1.0  0.76203  0.87502  0.54678  1.0000
  H   H1150     1.0  0.01796  0.84532  0.02605  1.0000
  H   H1151     1.0  0.00367  0.77776  0.00873  1.0000
  H   H1152     1.0  0.81780  0.45373  0.77536  1.0000
