data_image0
_chemical_formula_structural       H2SFeS2FeSFeCSHFeHCFeSHFeSHS2C6H4C2H6CHSH9SH2NCH2CH2CHCH2C2FeC2H3CH2C3H4C3H3SH3C3H3CH3CHFeS2C2FeCSCH2SFeS2FeS2FeSFeS3FeS2FeS2FeSFeS3FeS2FeS2FeHFeS3FeS2FeS2FeSFeS3CFe2SFeS2FeS2FeSFeS2FeS2C3H2C6H4C6H4C6H5NH8C6H4C6H4C6H4C6H6FeS2H3SHC6H4C6H3C6H5NHC6H5C2HFeHC6H4CNC8H20CH2NHC2HCHC2HNCH2CNH3CH2CH6NC8H22SH3NC6H12NC8H20NC8H10CH9NC8H20CNC8H19SC3H4SCSHS2HCHCH7C2Fe3HC4HCH7CHSHCHCSC3NC2H3CH11CH2SH3CH3C3H3C2H2NC2H3CH2SH2CH5CH8C3HCH7CHC2HC2H2C2H3CH3CH3NH2CH4C2HSH3CHCH2CSCH3CH7CHC2SCH5CHCH2CH4C2NH3FeH2NHCH2NCHSHCH2C2H2SC2HCSH2FeC2H5C3H2NH3CH4FeHSH3CH2SC2H2C2HC2HCS2HSFeC2H3CFe2SHSHC5H3FeCSH4C3H2FeH2SCSH2CH2SH2CSNCH4C2FeHCH2C2H8SH2CFeCH2C2SHCH3CNCH2SCHSNH2CFeCH3C2HC2H3C2H3CH7CHSHFeH2FeC2SH3SFeS2FeS2FeSFeS3FeS2FeS2FeSFeS3HSC3HFeSHCH5CSHSH2FeS2FeS2FeSFeS3FeS2FeS2FeSFeS3FeS2FeS2FeSFeS3FeSFeS2FeSFeS2H2C6H4SHCH2C6H4C6H4C6H4CH5CHC6H5NHC6H4CH9C6H4C3H2CH2CHC3H2CH3C2H2C7H4C6H4FeH4CHNHC7H4CSC2H6CFeC3H3C2H5SH2C5H8NC6H22SH2NH2CH3CH2C2H8C2HC2HNC2HC3HSH9CHSHCHC2H5CHFeC3H9CH3NC9H7C3H3SH2FeH3CHCH4NCH6CH2C3H3CHC3HCH6CH4CSH4CSHNH2SN2C2HFeH2C5HCH2CHCH5CHCHCH7C2HNH8CSC2HCSC2HCH4NH2CHCH3CH3SNCH4CHSH2CHC2HC2FeCHC2SNCHCHCH2C2H2CHFeCHNH3CH3CH2CHSC2HCH4CHCH2SC3HCH2NH5SH6CH12FeHCHC2H3NH3CHSH2C2H3CH2CH3CH2CHCFeH4C4H2C5H8C2H2CH2CSCH2CHCH4CH9CH2CH4SHCHFeS2FeS2FeSFeS3HCFeSFeS2FeSFeS3FeS2FeS2FeSFeS3HFeS2FeS2FeSFeS3FeS2FeS2FeSFeS3FeS2FeS2FeSFeS3C4HC2H4C6H4C3H2C6H7CH4CHC6H4C6H6C4H2C6H10CHC8H3C6H4C6H4CH4C4HCH2C6H4NC7H16C2H2CH2NC8H20NC6H16CNC7H29NH2CH9NC2HCH6CH4SH3CHCHNHC2H3CHCH2CH7C2NCHC4H2C2H8CHCHSCH15CHC4HCH4CH5C2HCHNCHCH4C3NH3C2H5NH4NC3HSC2H6C3HCHCHC2H3SHCH4SH6CH2CH3NCH2CH3CHC2H4CH3C2H3CHC3HCH5NHCH3CHSHC2H2CHCH3CH5C2HC4H2C3H2CH3CHCHFeH2C2H4CNH4CHCH4CH10CH2CH4CHC2H2C3HCSCHCFeS2FeS2FeSFeS2FeS2FeS2FeSFeS3FeS2FeS2FeSFeS3FeS2FeS2FeSFeS3FeS2FeS2FeSFeS3FeCS5C3FeCFeSH2CH2CH4CHCH3C5H3C6H4C6H4C6H2CHC6H4C6H4C6H4C6H4C6H4C6H7C3FeCH3SC6H6CHC3H3C6H4NC8H25SH8C2HCH2SFeCHNC2HCH7C2HNH3CH4NC8H19CHFeH2SFeH2SC3H3Fe2CH2CFeCH3S3CH2CSH3CH2FeHCHSFeHCHCH4C2H5CNH3CH2NCHSC2H2CHC4HSH2NCHNC2H4CHCH3CSCH3CHSH4NCHC2H5C2NC2H2C2H8CH14C2H2CH5CH4CH3C3H3CH14CH4CH4SH6C5H8SHC2H3C3HNCHCH3CNC2HCHCHCH3NH2NHCHSH6NHSC2HFeH3CH6CFeSC2HNHFeSCHSFeH3CH2C2H3CH5CH3CHC3H9C2HC3HSH5C3HNH6C2H2CH6CH5C3HCHCHCH5C2H4CSFeH2CHCH6CH2C4HC3HCHCHC3H2S2HS2H2CH2FeS2FeS2FeSFeS3HFeS2FeS2FeSFeS3H3CHCSCH3CH2SH2CFeS2FeS2FeSFeS3FeS2FeS2FeSFeS3FeS2FeSHFeSFeS3FeS2FeS2FeS2C6H5C7H4C6H4C6H9C6H4CH8C6H5C2HC7H4C6H2CH3C3H3C7H4C6H4C6H4CHC4H4C6H2NC5H13CH2CH2CSH3CH2SC3H6CH6C2HCHCFeCH4FeHCHCH7CHCH5SCNC5H10NC8H19NC8H28SH9CH3CH4NHC2H2CHFeH4CHSHFeH2C2HSH3NSHCH3CH2CNC6H12FeCH7CH2C3H6NC2HNH2CH3C2HC2H6CH3CH5C3FeHCH2NCSHCH2CSFeHSHCH3CNH2CHFeH2C2H3CH2C2HSH2CHCHCSH4CH2C2H5CHCH5C2HCHNC2SCH4CH2CH2C2H2CH2NH2SH3CH3C2SCSHC2H2FeH4CHNFeC2HC2HCHNSH5C2H5CH2CH2CSH2CHCH2SHC3H3CSHCH7C2HCSCH2CNHSH4CH3CH3CH3NHSFeH2NHCH2CH2C2H3FeSHSHFeSH3SHSH3CHC2H2FeS2FeS2FeSFeS3FeS2FeS2FeSFeS4HFeHSCH6SFe2SH2CSH3SH11FeCH3C6H4C6H2SHC6H4C6H4C6H9C3HC7H4SCHC2HCH2C3H2CHC6H5C4HC5HC3H3C2H3CH6C3HNC3HCH4CH2NCH7SHNCH2SH6CHFeC2H5C2HCH2CH2NH4CH4CH2CH2CH2CH4NH2SCH5NC7FeH21CH3CH2CH5C2NH2CH3FeH2CH2CH2CHS3CH3C2HNFeHCHCHCHNFeHC2H2SCFeH2SH2SH2FeHS2FeHSHSHSFeSHFeCHC2HC2SHFeCH2SC3H2C3SH2CH2C2H2FeC3HC3HC2H3CHSH3CFeHCSHC5H3C2H5C2NCH3NHSH2CH2CFeHCH4CH5CH4CH2CH2C4H4C2H3CH3NH5C2HNC2H5SH4CFeS2FeS2FeSFeS3CH2SH2FeS2FeS2Fe2S3FeS2FeS2FeSFeS3FeS2FeS2FeSFeS3C2HFeS2FeS2FeSFeS3FeS2FeS2FeSFeS3C6H5C5H5C4H3C6H6C2HCH3C6H4C6H4C3H2C6H4C2HC2HC2HC7H4C6H4C6H4CH3C2H4C2HCHC6H4NC4HC2HNH6CH5CHNC8H20NC8H23NH5CH3CHCHCH5CH5NC6HCH18CHNC8H20NC4H4CH8NC6H14SNH5NHCHCH5C2HC4H5CH10C2HC2H5CH3CH2CHCH5CH10C2H2CH2CHC4H3CH2CH4SHCH3CH3CHCH2C2HNH5CHCHCH5CH4CSNSHCHCHC2H5CHC3HC2H3NH5CH3C2HCH2C2HC2HNCHC2H4C5H8CHCHC2H2CH2CHCHCH2CH3CH4CH2CH6CH2C2HFeH2NHCH3SFeSFeS3HCHC5HCSC3HFeHC2HCH2SC4HC2H2C4H2CH4SHFeSH3NH2CSCHFeHC3SH4CHCSCH4CHSFeH3CH2CSH2SH4C2H6FeH4CHC2HCH2
_chemical_formula_sum              "H2880 S480 Fe240 C1680 N120"
_cell_length_a       108.359
_cell_length_b       108.582
_cell_length_c       38.2075
_cell_angle_alpha    78.9183
_cell_angle_beta     78.9297
_cell_angle_gamma    102.047

_space_group_name_H-M_alt    "P 1"
_space_group_IT_number       1

loop_
  _space_group_symop_operation_xyz
  'x, y, z'

loop_
  _atom_site_type_symbol
  _atom_site_label
  _atom_site_symmetry_multiplicity
  _atom_site_fract_x
  _atom_site_fract_y
  _atom_site_fract_z
  _atom_site_occupancy
  H   H1        1.0  0.06611  0.45187  0.75624  1.0000
  H   H2        1.0  0.12210  0.48711  0.54701  1.0000
  S   S1        1.0  0.01989  0.47895  0.69247  1.0000
  Fe  Fe1       1.0  0.01467  0.46781  0.79998  1.0000
  S   S2        1.0  0.01589  0.45414  0.76238  1.0000
  S   S3        1.0  0.00834  0.46203  0.86289  1.0000
  Fe  Fe2       1.0  0.03268  0.47052  0.72530  1.0000
  S   S4        1.0  0.05179  0.46642  0.70038  1.0000
  Fe  Fe3       1.0  0.00297  0.46371  0.73224  1.0000
  C   C1        1.0  0.07037  0.49068  0.67321  1.0000
  S   S5        1.0  0.03215  0.48326  0.76511  1.0000
  H   H3        1.0  0.99899  0.48178  0.98056  1.0000
  Fe  Fe4       1.0  0.04034  0.48111  0.11237  1.0000
  H   H4        1.0  0.04176  0.42255  0.84836  1.0000
  C   C2        1.0  0.07774  0.47124  0.67144  1.0000
  Fe  Fe5       1.0  0.01082  0.47054  0.11875  1.0000
  S   S6        1.0  0.01209  0.48035  0.05997  1.0000
  H   H5        1.0  0.13374  0.48593  0.12562  1.0000
  Fe  Fe6       1.0  0.03031  0.47361  0.04575  1.0000
  S   S7        1.0  0.03768  0.46907  0.99052  1.0000
  H   H6        1.0  0.10276  0.48566  0.09258  1.0000
  S   S8        1.0  0.02830  0.46254  0.10438  1.0000
  S   S9        1.0  0.02276  0.48835  0.12985  1.0000
  C   C3        1.0  0.01664  0.46495  0.89757  1.0000
  C   C4        1.0  0.02999  0.47072  0.88949  1.0000
  C   C5        1.0  0.03629  0.47194  0.91822  1.0000
  C   C6        1.0  0.02925  0.46786  0.95526  1.0000
  C   C7        1.0  0.01583  0.46246  0.96325  1.0000
  C   C8        1.0  0.00960  0.46091  0.93457  1.0000
  H   H7        1.0  0.03547  0.47402  0.86120  1.0000
  H   H8        1.0  0.04668  0.47611  0.91175  1.0000
  H   H9        1.0  0.01030  0.45915  0.99158  1.0000
  H   H10       1.0  0.99927  0.45641  0.94116  1.0000
  C   C9        1.0  0.05586  0.45531  0.82406  1.0000
  C   C10       1.0  0.02085  0.43358  0.84506  1.0000
  H   H11       1.0  0.10592  0.48278  0.57448  1.0000
  H   H12       1.0  0.05915  0.43871  0.73894  1.0000
  H   H13       1.0  0.01171  0.43622  0.85566  1.0000
  H   H14       1.0  0.09507  0.48686  0.13791  1.0000
  H   H15       1.0  0.09809  0.47401  0.64815  1.0000
  H   H16       1.0  0.04941  0.46634  0.77816  1.0000
  C   C11       1.0  0.05599  0.46785  0.79652  1.0000
  H   H17       1.0  0.03076  0.45363  0.82114  1.0000
  S   S10       1.0  0.00077  0.47624  0.77262  1.0000
  H   H18       1.0  0.06517  0.43532  0.77931  1.0000
  H   H19       1.0  0.04046  0.43067  0.78991  1.0000
  H   H20       1.0  0.06782  0.48932  0.57126  1.0000
  H   H21       1.0  0.05317  0.47507  0.81137  1.0000
  H   H22       1.0  0.02115  0.42498  0.86555  1.0000
  H   H23       1.0  0.12791  0.48019  0.06524  1.0000
  H   H24       1.0  0.03571  0.43138  0.90414  1.0000
  H   H25       1.0  0.05816  0.43109  0.84085  1.0000
  H   H26       1.0  0.04821  0.42313  0.90614  1.0000
  S   S11       1.0  0.05454  0.48060  0.15043  1.0000
  H   H27       1.0  0.08832  0.48971  0.57971  1.0000
  H   H28       1.0  0.06578  0.45368  0.81812  1.0000
  N   N1        1.0  0.04568  0.44330  0.82532  1.0000
  C   C12       1.0  0.11174  0.48553  0.54571  1.0000
  H   H29       1.0  0.02008  0.43097  0.81875  1.0000
  H   H30       1.0  0.10956  0.47728  0.53281  1.0000
  C   C13       1.0  0.00224  0.49212  0.96503  1.0000
  H   H31       1.0  0.05462  0.45760  0.85150  1.0000
  H   H32       1.0  0.06593  0.47235  0.77864  1.0000
  C   C14       1.0  0.08929  0.48625  0.51181  1.0000
  H   H33       1.0  0.09044  0.47458  0.47150  1.0000
  C   C15       1.0  0.04802  0.43184  0.85007  1.0000
  H   H34       1.0  0.06824  0.48004  0.20808  1.0000
  H   H35       1.0  0.07919  0.48655  0.51036  1.0000
  C   C16       1.0  0.13063  0.48979  0.07172  1.0000
  C   C17       1.0  0.09045  0.47878  0.65507  1.0000
  Fe  Fe7       1.0  0.01831  0.49056  0.73491  1.0000
  C   C18       1.0  0.03249  0.44529  0.83978  1.0000
  C   C19       1.0  0.06007  0.44171  0.76475  1.0000
  H   H36       1.0  0.01868  0.48843  0.93087  1.0000
  H   H37       1.0  0.03188  0.44809  0.86642  1.0000
  H   H38       1.0  0.04182  0.44704  0.77080  1.0000
  C   C20       1.0  0.09584  0.48403  0.47474  1.0000
  H   H39       1.0  0.07576  0.46078  0.67688  1.0000
  H   H40       1.0  0.05250  0.44040  0.89587  1.0000
  C   C21       1.0  0.06758  0.47704  0.68064  1.0000
  C   C22       1.0  0.04635  0.44062  0.78773  1.0000
  C   C23       1.0  0.04594  0.43189  0.89120  1.0000
  H   H41       1.0  0.11765  0.47932  0.12507  1.0000
  H   H42       1.0  0.08809  0.47740  0.53379  1.0000
  H   H43       1.0  0.10605  0.48356  0.47303  1.0000
  H   H44       1.0  0.09549  0.49161  0.45115  1.0000
  C   C24       1.0  0.09338  0.49234  0.64713  1.0000
  C   C25       1.0  0.12573  0.48829  0.11346  1.0000
  C   C26       1.0  0.07181  0.48968  0.19007  1.0000
  H   H45       1.0  0.10862  0.48785  0.17495  1.0000
  H   H46       1.0  0.12985  0.48462  0.18527  1.0000
  H   H47       1.0  0.99653  0.49322  0.94398  1.0000
  S   S12       1.0  0.04385  0.49126  0.05275  1.0000
  H   H48       1.0  0.14138  0.49361  0.06293  1.0000
  H   H49       1.0  0.12208  0.49182  0.21833  1.0000
  H   H50       1.0  0.00969  0.49318  0.88332  1.0000
  C   C27       1.0  0.09994  0.49237  0.10928  1.0000
  C   C28       1.0  0.12687  0.49356  0.18873  1.0000
  C   C29       1.0  0.06659  0.49278  0.15940  1.0000
  H   H51       1.0  0.02169  0.49309  0.97079  1.0000
  H   H52       1.0  0.03706  0.49515  0.23231  1.0000
  H   H53       1.0  0.06260  0.49529  0.68007  1.0000
  C   C30       1.0  0.01696  0.49542  0.94774  1.0000
  H   H54       1.0  0.02539  0.49600  0.20600  1.0000
  H   H55       1.0  0.12625  0.49623  0.05463  1.0000
  H   H56       1.0  0.09258  0.49642  0.09769  1.0000
  C   C31       1.0  0.11708  0.49651  0.16585  1.0000
  H   H57       1.0  0.08549  0.49631  0.22136  1.0000
  Fe  Fe8       1.0  0.23222  0.59083  0.07943  1.0000
  S   S13       1.0  0.21716  0.57874  0.13192  1.0000
  S   S14       1.0  0.22722  0.59867  0.02638  1.0000
  C   C32       1.0  0.00477  0.55185  0.19124  1.0000
  C   C33       1.0  0.02687  0.60276  0.95389  1.0000
  Fe  Fe9       1.0  0.23751  0.61270  0.71141  1.0000
  C   C34       1.0  0.05999  0.62687  0.90167  1.0000
  S   S15       1.0  0.23016  0.69944  0.18074  1.0000
  C   C35       1.0  0.01330  0.59324  0.13598  1.0000
  H   H58       1.0  0.02156  0.58929  0.12613  1.0000
  H   H59       1.0  0.01565  0.53002  0.22229  1.0000
  S   S16       1.0  0.23120  0.68204  0.80432  1.0000
  Fe  Fe10      1.0  0.14417  0.53774  0.20290  1.0000
  S   S17       1.0  0.12887  0.51956  0.23615  1.0000
  S   S18       1.0  0.16161  0.53938  0.15657  1.0000
  Fe  Fe11      1.0  0.12759  0.55500  0.22904  1.0000
  S   S19       1.0  0.11094  0.53857  0.26346  1.0000
  S   S20       1.0  0.12645  0.57563  0.21639  1.0000
  Fe  Fe12      1.0  0.12698  0.53052  0.28144  1.0000
  S   S21       1.0  0.12496  0.52123  0.34230  1.0000
  Fe  Fe13      1.0  0.11387  0.52892  0.21614  1.0000
  S   S22       1.0  0.09908  0.52342  0.18180  1.0000
  S   S23       1.0  0.14348  0.54774  0.24919  1.0000
  S   S24       1.0  0.12940  0.54634  0.18081  1.0000
  Fe  Fe14      1.0  0.13008  0.63897  0.27483  1.0000
  S   S25       1.0  0.13487  0.62559  0.31995  1.0000
  S   S26       1.0  0.10958  0.63381  0.26476  1.0000
  Fe  Fe15      1.0  0.15649  0.65901  0.26207  1.0000
  S   S27       1.0  0.16295  0.64699  0.30659  1.0000
  S   S28       1.0  0.16838  0.67841  0.22418  1.0000
  Fe  Fe16      1.0  0.15476  0.63064  0.28260  1.0000
  S   S29       1.0  0.16426  0.61451  0.27532  1.0000
  Fe  Fe17      1.0  0.14244  0.64309  0.34043  1.0000
  S   S30       1.0  0.13474  0.64144  0.40186  1.0000
  S   S31       1.0  0.14963  0.64287  0.23586  1.0000
  S   S32       1.0  0.13640  0.65637  0.29748  1.0000
  Fe  Fe18      1.0  0.12431  0.55015  0.59998  1.0000
  S   S33       1.0  0.12922  0.53446  0.63789  1.0000
  S   S34       1.0  0.11490  0.56419  0.62404  1.0000
  Fe  Fe19      1.0  0.13503  0.54207  0.53054  1.0000
  S   S35       1.0  0.14122  0.52595  0.56364  1.0000
  S   S36       1.0  0.13888  0.54946  0.46804  1.0000
  Fe  Fe20      1.0  0.12145  0.52185  0.60273  1.0000
  H   H60       1.0  0.99666  0.56568  0.05076  1.0000
  Fe  Fe21      1.0  0.14846  0.54016  0.59626  1.0000
  S   S37       1.0  0.16718  0.54089  0.61701  1.0000
  S   S38       1.0  0.11501  0.53723  0.56790  1.0000
  S   S39       1.0  0.14385  0.55657  0.55989  1.0000
  Fe  Fe22      1.0  0.16014  0.65049  0.66816  1.0000
  S   S40       1.0  0.16805  0.64296  0.61993  1.0000
  S   S41       1.0  0.17102  0.65727  0.70995  1.0000
  Fe  Fe23      1.0  0.13162  0.63692  0.66953  1.0000
  S   S42       1.0  0.13755  0.62852  0.62133  1.0000
  S   S43       1.0  0.11222  0.63127  0.71196  1.0000
  Fe  Fe24      1.0  0.15339  0.62421  0.64795  1.0000
  S   S44       1.0  0.15925  0.60548  0.65334  1.0000
  Fe  Fe25      1.0  0.15175  0.64799  0.59576  1.0000
  S   S45       1.0  0.15871  0.65618  0.53337  1.0000
  S   S46       1.0  0.14656  0.63101  0.69749  1.0000
  S   S47       1.0  0.14470  0.65707  0.64250  1.0000
  C   C36       1.0  0.03019  0.60530  0.98591  1.0000
  Fe  Fe26      1.0  0.03809  0.57655  0.17136  1.0000
  Fe  Fe27      1.0  0.02856  0.58004  0.85218  1.0000
  S   S48       1.0  0.02350  0.58892  0.79988  1.0000
  Fe  Fe28      1.0  0.03597  0.55871  0.81980  1.0000
  S   S49       1.0  0.03166  0.56591  0.76551  1.0000
  S   S50       1.0  0.04392  0.54119  0.82563  1.0000
  Fe  Fe29      1.0  0.04203  0.58539  0.77047  1.0000
  S   S51       1.0  0.05584  0.59855  0.71803  1.0000
  S   S52       1.0  0.04776  0.57798  0.82226  1.0000
  Fe  Fe30      1.0  0.04793  0.59163  0.09162  1.0000
  S   S53       1.0  0.04061  0.60199  0.04518  1.0000
  Fe  Fe31      1.0  0.05831  0.56909  0.11892  1.0000
  S   S54       1.0  0.05749  0.57272  0.17487  1.0000
  S   S55       1.0  0.06642  0.55305  0.10349  1.0000
  Fe  Fe32      1.0  0.06654  0.59362  0.14495  1.0000
  S   S56       1.0  0.08640  0.60293  0.15456  1.0000
  S   S57       1.0  0.06823  0.58953  0.08857  1.0000
  C   C37       1.0  0.03714  0.58499  0.95824  1.0000
  C   C38       1.0  0.04033  0.58743  0.99116  1.0000
  C   C39       1.0  0.03690  0.59772  0.00494  1.0000
  H   H61       1.0  0.03990  0.57718  0.94750  1.0000
  H   H62       1.0  0.04552  0.58149  0.00555  1.0000
  C   C40       1.0  0.03671  0.52806  0.06050  1.0000
  C   C41       1.0  0.03733  0.54130  0.05571  1.0000
  C   C42       1.0  0.04708  0.54938  0.06645  1.0000
  C   C43       1.0  0.05618  0.54419  0.08180  1.0000
  C   C44       1.0  0.05613  0.53125  0.08383  1.0000
  C   C45       1.0  0.04622  0.52312  0.07417  1.0000
  H   H63       1.0  0.03012  0.54524  0.04460  1.0000
  H   H64       1.0  0.04753  0.55957  0.06290  1.0000
  H   H65       1.0  0.06332  0.52734  0.09495  1.0000
  H   H66       1.0  0.16109  0.53655  0.44600  1.0000
  C   C46       1.0  0.02496  0.51914  0.75192  1.0000
  C   C47       1.0  0.03664  0.51713  0.75940  1.0000
  C   C48       1.0  0.04231  0.52353  0.78323  1.0000
  C   C49       1.0  0.03627  0.53192  0.79945  1.0000
  C   C50       1.0  0.02441  0.53360  0.79278  1.0000
  C   C51       1.0  0.01886  0.52738  0.76862  1.0000
  H   H67       1.0  0.15956  0.69474  0.40961  1.0000
  H   H68       1.0  0.05151  0.52224  0.78825  1.0000
  H   H69       1.0  0.01947  0.53974  0.80617  1.0000
  H   H70       1.0  0.00978  0.52885  0.76313  1.0000
  C   C52       1.0  0.09776  0.62033  0.71100  1.0000
  C   C53       1.0  0.09018  0.61162  0.74396  1.0000
  C   C54       1.0  0.07753  0.60444  0.74611  1.0000
  C   C55       1.0  0.07223  0.60615  0.71545  1.0000
  C   C56       1.0  0.08001  0.61439  0.68205  1.0000
  C   C57       1.0  0.09276  0.62142  0.67974  1.0000
  H   H71       1.0  0.09404  0.61070  0.76816  1.0000
  H   H72       1.0  0.07176  0.59789  0.77174  1.0000
  H   H73       1.0  0.07601  0.61572  0.65813  1.0000
  H   H74       1.0  0.09842  0.62824  0.65437  1.0000
  H   H75       1.0  0.01263  0.59877  0.06429  1.0000
  N   N2        1.0  0.18202  0.55113  0.49466  1.0000
  H   H76       1.0  0.05019  0.63236  0.77984  1.0000
  H   H77       1.0  0.07076  0.59906  0.89343  1.0000
  H   H78       1.0  0.20267  0.56319  0.40731  1.0000
  H   H79       1.0  0.20340  0.67141  0.14417  1.0000
  H   H80       1.0  0.16895  0.71283  0.28073  1.0000
  H   H81       1.0  0.04847  0.63150  0.86359  1.0000
  H   H82       1.0  0.08719  0.63238  0.77997  1.0000
  H   H83       1.0  0.08537  0.50882  0.65012  1.0000
  C   C58       1.0  0.12673  0.57478  0.63706  1.0000
  C   C59       1.0  0.13938  0.57322  0.63220  1.0000
  C   C60       1.0  0.14933  0.58264  0.63756  1.0000
  C   C61       1.0  0.14656  0.59340  0.64914  1.0000
  C   C62       1.0  0.13375  0.59457  0.65634  1.0000
  C   C63       1.0  0.12384  0.58531  0.64995  1.0000
  H   H84       1.0  0.14159  0.56485  0.62384  1.0000
  H   H85       1.0  0.15921  0.58167  0.63216  1.0000
  H   H86       1.0  0.13148  0.60267  0.66649  1.0000
  H   H87       1.0  0.11403  0.58649  0.65421  1.0000
  C   C64       1.0  0.14182  0.64513  0.43816  1.0000
  C   C65       1.0  0.15523  0.64985  0.43334  1.0000
  C   C66       1.0  0.16025  0.65308  0.46282  1.0000
  C   C67       1.0  0.15200  0.65121  0.49778  1.0000
  C   C68       1.0  0.13865  0.64609  0.50286  1.0000
  C   C69       1.0  0.13360  0.64319  0.47314  1.0000
  H   H88       1.0  0.16170  0.65110  0.40688  1.0000
  H   H89       1.0  0.17060  0.65705  0.45858  1.0000
  H   H90       1.0  0.13216  0.64478  0.52939  1.0000
  H   H91       1.0  0.12321  0.63956  0.47720  1.0000
  C   C70       1.0  0.10334  0.62522  0.23383  1.0000
  C   C71       1.0  0.11133  0.62100  0.20785  1.0000
  C   C72       1.0  0.10595  0.61433  0.18378  1.0000
  C   C73       1.0  0.09250  0.61154  0.18566  1.0000
  C   C74       1.0  0.08448  0.61561  0.21200  1.0000
  C   C75       1.0  0.08989  0.62246  0.23576  1.0000
  H   H92       1.0  0.12168  0.62307  0.20586  1.0000
  H   H93       1.0  0.11232  0.61146  0.16323  1.0000
  H   H94       1.0  0.07415  0.61363  0.21380  1.0000
  H   H95       1.0  0.08360  0.62569  0.25568  1.0000
  C   C76       1.0  0.12895  0.52932  0.37674  1.0000
  C   C77       1.0  0.12796  0.52188  0.41220  1.0000
  C   C78       1.0  0.13090  0.52786  0.44042  1.0000
  C   C79       1.0  0.13481  0.54139  0.43363  1.0000
  C   C80       1.0  0.13590  0.54883  0.39812  1.0000
  C   C81       1.0  0.13297  0.54286  0.36988  1.0000
  H   H96       1.0  0.12505  0.51141  0.41768  1.0000
  H   H97       1.0  0.13038  0.52202  0.46719  1.0000
  H   H98       1.0  0.13905  0.55930  0.39232  1.0000
  H   H99       1.0  0.13388  0.54873  0.34276  1.0000
  H   H100      1.0  0.21824  0.63973  0.09790  1.0000
  H   H101      1.0  0.00674  0.56487  0.11195  1.0000
  Fe  Fe33      1.0  0.01353  0.56853  0.79913  1.0000
  S   S58       1.0  0.04692  0.59790  0.14521  1.0000
  S   S59       1.0  0.02612  0.59097  0.89750  1.0000
  H   H102      1.0  0.23378  0.64185  0.15776  1.0000
  H   H103      1.0  0.06054  0.61350  0.79129  1.0000
  H   H104      1.0  0.11100  0.56513  0.35371  1.0000
  S   S60       1.0  0.01714  0.55995  0.85384  1.0000
  H   H105      1.0  0.22564  0.61939  0.85007  1.0000
  C   C82       1.0  0.13715  0.58616  0.23287  1.0000
  C   C83       1.0  0.13836  0.59947  0.22196  1.0000
  C   C84       1.0  0.14670  0.60813  0.23504  1.0000
  C   C85       1.0  0.15396  0.60357  0.25881  1.0000
  C   C86       1.0  0.15282  0.59025  0.26962  1.0000
  C   C87       1.0  0.14428  0.58152  0.25698  1.0000
  H   H106      1.0  0.13284  0.60311  0.20338  1.0000
  H   H107      1.0  0.14765  0.61837  0.22608  1.0000
  H   H108      1.0  0.15831  0.58666  0.28835  1.0000
  H   H109      1.0  0.14314  0.57125  0.26634  1.0000
  C   C88       1.0  0.20777  0.68721  0.71331  1.0000
  C   C89       1.0  0.20265  0.68869  0.68198  1.0000
  C   C90       1.0  0.19161  0.67952  0.67997  1.0000
  C   C91       1.0  0.18534  0.66891  0.70975  1.0000
  C   C92       1.0  0.19049  0.66741  0.74104  1.0000
  C   C93       1.0  0.20175  0.67637  0.74259  1.0000
  H   H110      1.0  0.18778  0.68084  0.65574  1.0000
  H   H111      1.0  0.18577  0.65920  0.76416  1.0000
  H   H112      1.0  0.20565  0.67500  0.76664  1.0000
  C   C94       1.0  0.18562  0.68339  0.21086  1.0000
  C   C95       1.0  0.19330  0.67779  0.23146  1.0000
  C   C96       1.0  0.20690  0.68287  0.22199  1.0000
  C   C97       1.0  0.21303  0.69325  0.19106  1.0000
  C   C98       1.0  0.20539  0.69853  0.16975  1.0000
  C   C99       1.0  0.19175  0.69375  0.17996  1.0000
  H   H113      1.0  0.18874  0.66980  0.25524  1.0000
  H   H114      1.0  0.21273  0.67875  0.23871  1.0000
  H   H115      1.0  0.20996  0.70654  0.14596  1.0000
  H   H116      1.0  0.18590  0.69816  0.16389  1.0000
  H   H117      1.0  0.16795  0.52744  0.47729  1.0000
  N   N3        1.0  0.02303  0.50912  0.92536  1.0000
  H   H118      1.0  0.23012  0.70307  0.01183  1.0000
  C   C100      1.0  0.19713  0.57104  0.65052  1.0000
  C   C101      1.0  0.18908  0.57519  0.62821  1.0000
  C   C102      1.0  0.17975  0.56618  0.61814  1.0000
  C   C103      1.0  0.17844  0.55282  0.62983  1.0000
  C   C104      1.0  0.18654  0.54869  0.65191  1.0000
  C   C105      1.0  0.19570  0.55768  0.66252  1.0000
  H   H119      1.0  0.17370  0.56958  0.60102  1.0000
  H   H120      1.0  0.18571  0.53841  0.66105  1.0000
  H   H121      1.0  0.20178  0.55427  0.67959  1.0000
  H   H122      1.0  0.03481  0.51297  0.25322  1.0000
  H   H123      1.0  0.20217  0.54190  0.52646  1.0000
  C   C106      1.0  0.23661  0.66031  0.88595  1.0000
  C   C107      1.0  0.02998  0.53235  0.93437  1.0000
  H   H124      1.0  0.13724  0.51401  0.08151  1.0000
  Fe  Fe34      1.0  0.23325  0.69925  0.75854  1.0000
  H   H125      1.0  0.22985  0.66250  0.01733  1.0000
  C   C108      1.0  0.20191  0.56759  0.13768  1.0000
  C   C109      1.0  0.19382  0.56245  0.17332  1.0000
  C   C110      1.0  0.18137  0.55410  0.17932  1.0000
  C   C111      1.0  0.17694  0.55052  0.14977  1.0000
  C   C112      1.0  0.18509  0.55551  0.11412  1.0000
  C   C113      1.0  0.19744  0.56413  0.10800  1.0000
  H   H126      1.0  0.19721  0.56495  0.19652  1.0000
  H   H127      1.0  0.17531  0.55018  0.20695  1.0000
  H   H128      1.0  0.18183  0.55270  0.09109  1.0000
  H   H129      1.0  0.20356  0.56797  0.08043  1.0000
  C   C114      1.0  0.21310  0.67497  0.12469  1.0000
  N   N4        1.0  0.18265  0.59742  0.15836  1.0000
  C   C115      1.0  0.19281  0.59692  0.18035  1.0000
  C   C116      1.0  0.18890  0.59738  0.11953  1.0000
  C   C117      1.0  0.17151  0.58544  0.17533  1.0000
  C   C118      1.0  0.17814  0.60955  0.16050  1.0000
  C   C119      1.0  0.18803  0.59517  0.22226  1.0000
  C   C120      1.0  0.20087  0.60873  0.09931  1.0000
  C   C121      1.0  0.16297  0.58052  0.15035  1.0000
  C   C122      1.0  0.16839  0.61263  0.13775  1.0000
  H   H130      1.0  0.19744  0.58888  0.17642  1.0000
  H   H131      1.0  0.20086  0.60592  0.17067  1.0000
  H   H132      1.0  0.18196  0.59726  0.10169  1.0000
  H   H133      1.0  0.19201  0.58826  0.11930  1.0000
  H   H134      1.0  0.17514  0.57702  0.18651  1.0000
  H   H135      1.0  0.16489  0.58690  0.19931  1.0000
  H   H136      1.0  0.17319  0.60900  0.18930  1.0000
  H   H137      1.0  0.18645  0.61828  0.15400  1.0000
  H   H138      1.0  0.18034  0.58606  0.23547  1.0000
  H   H139      1.0  0.19632  0.59454  0.23511  1.0000
  H   H140      1.0  0.18458  0.60354  0.22907  1.0000
  H   H141      1.0  0.20939  0.60802  0.11100  1.0000
  H   H142      1.0  0.20381  0.60819  0.07024  1.0000
  H   H143      1.0  0.19880  0.61832  0.09881  1.0000
  H   H144      1.0  0.16838  0.57629  0.12998  1.0000
  H   H145      1.0  0.15899  0.58807  0.13614  1.0000
  H   H146      1.0  0.15455  0.57255  0.16757  1.0000
  H   H147      1.0  0.15828  0.60732  0.15291  1.0000
  H   H148      1.0  0.17046  0.61067  0.11021  1.0000
  H   H149      1.0  0.16908  0.62321  0.13240  1.0000
  C   C123      1.0  0.15660  0.69264  0.30147  1.0000
  H   H150      1.0  0.15314  0.68464  0.28844  1.0000
  H   H151      1.0  0.01390  0.59972  0.62479  1.0000
  N   N5        1.0  0.16307  0.68797  0.33136  1.0000
  H   H152      1.0  0.15950  0.70456  0.35105  1.0000
  C   C124      1.0  0.16696  0.69887  0.34957  1.0000
  C   C125      1.0  0.04850  0.53319  0.20177  1.0000
  H   H153      1.0  0.01125  0.51899  0.95689  1.0000
  C   C126      1.0  0.21739  0.61800  0.93425  1.0000
  H   H154      1.0  0.15867  0.70756  0.25224  1.0000
  C   C127      1.0  0.02711  0.53691  0.25741  1.0000
  C   C128      1.0  0.24559  0.62806  0.91749  1.0000
  H   H155      1.0  0.21956  0.68211  0.13454  1.0000
  N   N6        1.0  0.12214  0.49989  0.12464  1.0000
  C   C129      1.0  0.15352  0.67615  0.35764  1.0000
  H   H156      1.0  0.17181  0.67666  0.29791  1.0000
  H   H157      1.0  0.17211  0.53575  0.54356  1.0000
  C   C130      1.0  0.17480  0.68406  0.31326  1.0000
  N   N7        1.0  0.99859  0.58155  0.10001  1.0000
  H   H158      1.0  0.20125  0.57485  0.43456  1.0000
  H   H159      1.0  0.00646  0.51322  0.90550  1.0000
  H   H160      1.0  0.02629  0.52786  0.27787  1.0000
  C   C131      1.0  0.24104  0.72316  0.92623  1.0000
  H   H161      1.0  0.15158  0.66810  0.34369  1.0000
  H   H162      1.0  0.02525  0.50279  0.85372  1.0000
  C   C132      1.0  0.05898  0.52661  0.18718  1.0000
  H   H163      1.0  0.17622  0.70581  0.33260  1.0000
  H   H164      1.0  0.07260  0.50461  0.53758  1.0000
  H   H165      1.0  0.01280  0.55432  0.16736  1.0000
  H   H166      1.0  0.05268  0.62869  0.92347  1.0000
  H   H167      1.0  0.06325  0.61852  0.91501  1.0000
  H   H168      1.0  0.06824  0.63564  0.89190  1.0000
  N   N8        1.0  0.13990  0.60644  0.52476  1.0000
  C   C133      1.0  0.14645  0.61278  0.55067  1.0000
  C   C134      1.0  0.12638  0.60853  0.53066  1.0000
  C   C135      1.0  0.14766  0.61326  0.48608  1.0000
  C   C136      1.0  0.13986  0.59228  0.53344  1.0000
  C   C137      1.0  0.16095  0.61311  0.54706  1.0000
  C   C138      1.0  0.11727  0.60186  0.56897  1.0000
  C   C139      1.0  0.14113  0.61127  0.45438  1.0000
  C   C140      1.0  0.13140  0.58316  0.51577  1.0000
  H   H169      1.0  0.14576  0.62304  0.54726  1.0000
  H   H170      1.0  0.14154  0.60779  0.57977  1.0000
  H   H171      1.0  0.12114  0.60530  0.51056  1.0000
  H   H172      1.0  0.12690  0.61909  0.52587  1.0000
  H   H173      1.0  0.15048  0.62395  0.48312  1.0000
  H   H174      1.0  0.15695  0.61035  0.47991  1.0000
  H   H175      1.0  0.14990  0.59113  0.52538  1.0000
  H   H176      1.0  0.13695  0.58806  0.56364  1.0000
  H   H177      1.0  0.16712  0.61905  0.51999  1.0000
  H   H178      1.0  0.16437  0.61782  0.56809  1.0000
  H   H179      1.0  0.16256  0.60324  0.55261  1.0000
  H   H180      1.0  0.11619  0.59124  0.57605  1.0000
  H   H181      1.0  0.12048  0.60618  0.59078  1.0000
  H   H182      1.0  0.10742  0.60334  0.56902  1.0000
  H   H183      1.0  0.13834  0.60101  0.45327  1.0000
  H   H184      1.0  0.14822  0.61655  0.42790  1.0000
  H   H185      1.0  0.13270  0.61559  0.45497  1.0000
  H   H186      1.0  0.13757  0.58071  0.49265  1.0000
  H   H187      1.0  0.12368  0.58687  0.50570  1.0000
  H   H188      1.0  0.12625  0.57394  0.53657  1.0000
  H   H189      1.0  0.04576  0.51294  0.07867  1.0000
  H   H190      1.0  0.06362  0.64246  0.81025  1.0000
  S   S61       1.0  0.22116  0.69952  0.71545  1.0000
  H   H191      1.0  0.14965  0.55608  0.79565  1.0000
  H   H192      1.0  0.99823  0.61271  0.05419  1.0000
  H   H193      1.0  0.18185  0.69242  0.29257  1.0000
  N   N9        1.0  0.15632  0.56905  0.74128  1.0000
  C   C141      1.0  0.14970  0.57923  0.75192  1.0000
  C   C142      1.0  0.16871  0.57613  0.71256  1.0000
  C   C143      1.0  0.14726  0.56033  0.72542  1.0000
  C   C144      1.0  0.13558  0.57419  0.77560  1.0000
  C   C145      1.0  0.17894  0.58523  0.72535  1.0000
  C   C146      1.0  0.15327  0.55244  0.70022  1.0000
  H   H194      1.0  0.14944  0.58636  0.72694  1.0000
  H   H195      1.0  0.16650  0.58199  0.68837  1.0000
  H   H196      1.0  0.13932  0.55334  0.74777  1.0000
  H   H197      1.0  0.14244  0.56633  0.70811  1.0000
  H   H198      1.0  0.13216  0.58256  0.78282  1.0000
  H   H199      1.0  0.13479  0.56725  0.80179  1.0000
  H   H200      1.0  0.17521  0.59281  0.73629  1.0000
  H   H201      1.0  0.18307  0.57973  0.74578  1.0000
  H   H202      1.0  0.18713  0.59041  0.70130  1.0000
  H   H203      1.0  0.14617  0.54299  0.70402  1.0000
  H   H204      1.0  0.16236  0.55016  0.70487  1.0000
  H   H205      1.0  0.15483  0.55743  0.67092  1.0000
  N   N10       1.0  0.10308  0.56977  0.13421  1.0000
  C   C147      1.0  0.09726  0.56965  0.17360  1.0000
  C   C148      1.0  0.11724  0.57702  0.12464  1.0000
  C   C149      1.0  0.10183  0.55588  0.13138  1.0000
  C   C150      1.0  0.09563  0.57648  0.11050  1.0000
  C   C151      1.0  0.08417  0.55952  0.19257  1.0000
  C   C152      1.0  0.12019  0.59092  0.13037  1.0000
  C   C153      1.0  0.11198  0.55329  0.10109  1.0000
  C   C154      1.0  0.09909  0.57672  0.06942  1.0000
  H   H206      1.0  0.10406  0.56772  0.19120  1.0000
  H   H207      1.0  0.09568  0.57932  0.17567  1.0000
  H   H208      1.0  0.12197  0.57783  0.09557  1.0000
  H   H209      1.0  0.12258  0.57153  0.14145  1.0000
  H   H210      1.0  0.10289  0.54992  0.15723  1.0000
  H   H211      1.0  0.09196  0.55145  0.12834  1.0000
  H   H212      1.0  0.08504  0.57201  0.12047  1.0000
  H   H213      1.0  0.09674  0.58668  0.11260  1.0000
  H   H214      1.0  0.07747  0.55847  0.17424  1.0000
  H   H215      1.0  0.08577  0.54985  0.20304  1.0000
  H   H216      1.0  0.07925  0.56249  0.21668  1.0000
  H   H217      1.0  0.11670  0.59107  0.15948  1.0000
  H   H218      1.0  0.13089  0.59499  0.12319  1.0000
  H   H219      1.0  0.11617  0.59753  0.11246  1.0000
  H   H220      1.0  0.12157  0.55446  0.10807  1.0000
  H   H221      1.0  0.11328  0.55950  0.07347  1.0000
  H   H222      1.0  0.10877  0.54304  0.09956  1.0000
  H   H223      1.0  0.10951  0.58135  0.05638  1.0000
  H   H224      1.0  0.09343  0.58255  0.05510  1.0000
  H   H225      1.0  0.09625  0.56683  0.06496  1.0000
  N   N11       1.0  0.19568  0.63040  0.68298  1.0000
  C   C155      1.0  0.20006  0.62934  0.64390  1.0000
  C   C156      1.0  0.19757  0.64464  0.68181  1.0000
  C   C157      1.0  0.18138  0.62373  0.69626  1.0000
  C   C158      1.0  0.20340  0.62397  0.70636  1.0000
  C   C159      1.0  0.19876  0.61545  0.63817  1.0000
  C   C160      1.0  0.21161  0.65317  0.66600  1.0000
  C   C161      1.0  0.17489  0.62297  0.73641  1.0000
  C   C162      1.0  0.20486  0.62861  0.74165  1.0000
  H   H226      1.0  0.19468  0.63425  0.62581  1.0000
  H   H227      1.0  0.21054  0.63438  0.63235  1.0000
  H   H228      1.0  0.19421  0.64628  0.70930  1.0000
  H   H229      1.0  0.19140  0.64887  0.66510  1.0000
  H   H230      1.0  0.17580  0.62847  0.67867  1.0000
  H   H231      1.0  0.17945  0.61352  0.69398  1.0000
  H   H232      1.0  0.19918  0.61328  0.71459  1.0000
  H   H233      1.0  0.21348  0.62549  0.68985  1.0000
  H   H234      1.0  0.18850  0.61017  0.64179  1.0000
  H   H235      1.0  0.21838  0.61251  0.91284  1.0000
  C   C163      1.0  0.24340  0.59031  0.91500  1.0000
  H   H236      1.0  0.21890  0.64859  0.67605  1.0000
  H   H237      1.0  0.21412  0.65557  0.63551  1.0000
  H   H238      1.0  0.21244  0.66253  0.67426  1.0000
  H   H239      1.0  0.17862  0.61660  0.75588  1.0000
  H   H240      1.0  0.16430  0.61852  0.74153  1.0000
  H   H241      1.0  0.17584  0.63265  0.74248  1.0000
  H   H242      1.0  0.20535  0.62028  0.76291  1.0000
  H   H243      1.0  0.19688  0.63244  0.75422  1.0000
  H   H244      1.0  0.21429  0.63588  0.73663  1.0000
  N   N12       1.0  0.07490  0.56254  0.70948  1.0000
  C   C164      1.0  0.08140  0.57127  0.73070  1.0000
  C   C165      1.0  0.08121  0.56853  0.66927  1.0000
  C   C166      1.0  0.07765  0.54947  0.72048  1.0000
  C   C167      1.0  0.06048  0.56148  0.71918  1.0000
  C   C168      1.0  0.07732  0.56650  0.77300  1.0000
  C   C169      1.0  0.08007  0.58243  0.65460  1.0000
  C   C170      1.0  0.07255  0.53907  0.70079  1.0000
  C   C171      1.0  0.05256  0.55728  0.69183  1.0000
  H   H245      1.0  0.09219  0.57307  0.72226  1.0000
  H   H246      1.0  0.07936  0.58097  0.72453  1.0000
  H   H247      1.0  0.07744  0.56261  0.65128  1.0000
  H   H248      1.0  0.09177  0.56889  0.66360  1.0000
  H   H249      1.0  0.08834  0.55058  0.71635  1.0000
  H   H250      1.0  0.07324  0.54496  0.75022  1.0000
  H   H251      1.0  0.05582  0.55461  0.74645  1.0000
  H   H252      1.0  0.05877  0.57101  0.72241  1.0000
  H   H253      1.0  0.06663  0.56396  0.78378  1.0000
  H   H254      1.0  0.08120  0.55816  0.78297  1.0000
  H   H255      1.0  0.08148  0.57445  0.78516  1.0000
  H   H256      1.0  0.07001  0.58342  0.66280  1.0000
  H   H257      1.0  0.08676  0.58968  0.66377  1.0000
  H   H258      1.0  0.08303  0.58498  0.62409  1.0000
  H   H259      1.0  0.07582  0.53026  0.71049  1.0000
  H   H260      1.0  0.07644  0.54209  0.67059  1.0000
  H   H261      1.0  0.06177  0.53599  0.70811  1.0000
  H   H262      1.0  0.04333  0.55004  0.70754  1.0000
  H   H263      1.0  0.05731  0.55272  0.67147  1.0000
  H   H264      1.0  0.04963  0.56566  0.67721  1.0000
  C   C172      1.0  0.03035  0.59271  0.93950  1.0000
  N   N13       1.0  0.10326  0.58771  0.31434  1.0000
  C   C173      1.0  0.10346  0.60175  0.31331  1.0000
  C   C174      1.0  0.10324  0.58604  0.27602  1.0000
  C   C175      1.0  0.11575  0.58565  0.32349  1.0000
  C   C176      1.0  0.09148  0.57911  0.34294  1.0000
  C   C177      1.0  0.10212  0.60569  0.35038  1.0000
  C   C178      1.0  0.09037  0.58589  0.26415  1.0000
  C   C179      1.0  0.11768  0.57180  0.32842  1.0000
  C   C180      1.0  0.08747  0.56464  0.34193  1.0000
  H   H265      1.0  0.11258  0.60830  0.29420  1.0000
  H   H266      1.0  0.09545  0.60456  0.30218  1.0000
  H   H267      1.0  0.10577  0.57701  0.27178  1.0000
  H   H268      1.0  0.11099  0.59388  0.25532  1.0000
  H   H269      1.0  0.12428  0.59222  0.30200  1.0000
  H   H270      1.0  0.11681  0.58831  0.34956  1.0000
  H   H271      1.0  0.09290  0.57930  0.37098  1.0000
  H   H272      1.0  0.08285  0.58307  0.34111  1.0000
  H   H273      1.0  0.09258  0.60062  0.36969  1.0000
  H   H274      1.0  0.11011  0.60437  0.36373  1.0000
  H   H275      1.0  0.10258  0.61624  0.34506  1.0000
  H   H276      1.0  0.09199  0.58561  0.23475  1.0000
  H   H277      1.0  0.08253  0.57718  0.27973  1.0000
  H   H278      1.0  0.08690  0.59465  0.26625  1.0000
  H   H279      1.0  0.12765  0.57213  0.33217  1.0000
  H   H280      1.0  0.11697  0.56772  0.30427  1.0000
  H   H281      1.0  0.08799  0.55832  0.36790  1.0000
  H   H282      1.0  0.09338  0.56200  0.31895  1.0000
  H   H283      1.0  0.07719  0.56198  0.34001  1.0000
  S   S62       1.0  0.23139  0.63618  0.01841  1.0000
  C   C181      1.0  0.08641  0.51140  0.17456  1.0000
  C   C182      1.0  0.00601  0.55755  0.22069  1.0000
  C   C183      1.0  0.03060  0.51303  0.22882  1.0000
  H   H284      1.0  0.22581  0.58832  0.95545  1.0000
  H   H285      1.0  0.21150  0.58518  0.91245  1.0000
  H   H286      1.0  0.17609  0.55556  0.74883  1.0000
  H   H287      1.0  0.16945  0.54798  0.79629  1.0000
  S   S63       1.0  0.21770  0.59937  0.73580  1.0000
  C   C184      1.0  0.22189  0.58671  0.90286  1.0000
  S   S64       1.0  0.03809  0.57072  0.11842  1.0000
  H   H288      1.0  0.15517  0.58500  0.76773  1.0000
  S   S65       1.0  0.21692  0.58445  0.83615  1.0000
  S   S66       1.0  0.20859  0.58296  0.66277  1.0000
  H   H289      1.0  0.19000  0.58547  0.61882  1.0000
  C   C185      1.0  0.22998  0.58855  0.92718  1.0000
  H   H290      1.0  0.21798  0.63686  0.90269  1.0000
  C   C186      1.0  0.22719  0.58676  0.86626  1.0000
  H   H291      1.0  0.22198  0.68776  0.97599  1.0000
  H   H292      1.0  0.17380  0.56941  0.70127  1.0000
  H   H293      1.0  0.12881  0.56977  0.76037  1.0000
  H   H294      1.0  0.21169  0.68032  0.09851  1.0000
  H   H295      1.0  0.03627  0.53675  0.14795  1.0000
  H   H296      1.0  0.02753  0.61326  0.99603  1.0000
  H   H297      1.0  0.13085  0.52197  0.15477  1.0000
  C   C187      1.0  0.15892  0.56153  0.77539  1.0000
  C   C188      1.0  0.08163  0.49890  0.19766  1.0000
  Fe  Fe35      1.0  0.23831  0.61798  0.03095  1.0000
  Fe  Fe36      1.0  0.22705  0.58919  0.77589  1.0000
  Fe  Fe37      1.0  0.22342  0.58673  0.69849  1.0000
  H   H298      1.0  0.07657  0.64060  0.83078  1.0000
  C   C189      1.0  0.22736  0.69761  0.96200  1.0000
  C   C190      1.0  0.00671  0.56861  0.05387  1.0000
  C   C191      1.0  0.16682  0.55149  0.77012  1.0000
  C   C192      1.0  0.16957  0.53710  0.45857  1.0000
  H   H299      1.0  0.16406  0.56824  0.78970  1.0000
  C   C193      1.0  0.18132  0.56190  0.51427  1.0000
  H   H300      1.0  0.04549  0.61487  0.88289  1.0000
  H   H301      1.0  0.19093  0.56604  0.51934  1.0000
  H   H302      1.0  0.02830  0.54434  0.20015  1.0000
  H   H303      1.0  0.08488  0.52405  0.12543  1.0000
  H   H304      1.0  0.16091  0.54283  0.76423  1.0000
  H   H305      1.0  0.01432  0.51146  0.18188  1.0000
  H   H306      1.0  0.02737  0.53830  0.95389  1.0000
  C   C194      1.0  0.21942  0.66399  0.11711  1.0000
  H   H307      1.0  0.07897  0.61999  0.85926  1.0000
  S   S67       1.0  0.22368  0.69071  0.89877  1.0000
  H   H308      1.0  0.14177  0.53126  0.11255  1.0000
  C   C195      1.0  0.05353  0.62377  0.87066  1.0000
  H   H309      1.0  0.08352  0.64727  0.76323  1.0000
  C   C196      1.0  0.07014  0.63596  0.81494  1.0000
  S   S68       1.0  0.23151  0.57533  0.74111  1.0000
  C   C197      1.0  0.04554  0.50763  0.93670  1.0000
  C   C198      1.0  0.07902  0.63687  0.77719  1.0000
  C   C199      1.0  0.23206  0.70625  0.98232  1.0000
  N   N14       1.0  0.06246  0.62250  0.83669  1.0000
  C   C200      1.0  0.07186  0.61471  0.84626  1.0000
  C   C201      1.0  0.06572  0.60084  0.87094  1.0000
  H   H310      1.0  0.05881  0.52518  0.15943  1.0000
  H   H311      1.0  0.02836  0.53688  0.90762  1.0000
  H   H312      1.0  0.20723  0.69704  0.65915  1.0000
  C   C202      1.0  0.22968  0.70167  0.92371  1.0000
  H   H313      1.0  0.13514  0.66986  0.39913  1.0000
  H   H314      1.0  0.20349  0.60968  0.65610  1.0000
  H   H315      1.0  0.06676  0.59351  0.85465  1.0000
  H   H316      1.0  0.07801  0.61353  0.82089  1.0000
  H   H317      1.0  0.07365  0.63267  0.75853  1.0000
  H   H318      1.0  0.05529  0.59896  0.88421  1.0000
  H   H319      1.0  0.21252  0.71327  0.86852  1.0000
  H   H320      1.0  0.05111  0.54328  0.18428  1.0000
  H   H321      1.0  0.99871  0.59958  0.59086  1.0000
  H   H322      1.0  0.13558  0.50180  0.18278  1.0000
  H   H323      1.0  0.18260  0.57818  0.46739  1.0000
  C   C203      1.0  0.07143  0.50524  0.13626  1.0000
  H   H324      1.0  0.17830  0.53903  0.43579  1.0000
  H   H325      1.0  0.99763  0.61377  0.60617  1.0000
  S   S69       1.0  0.23442  0.71326  0.79528  1.0000
  H   H326      1.0  0.02166  0.60879  0.93984  1.0000
  H   H327      1.0  0.03618  0.54426  0.25550  1.0000
  H   H328      1.0  0.17450  0.55804  0.54202  1.0000
  C   C204      1.0  0.05435  0.61571  0.81475  1.0000
  H   H329      1.0  0.04152  0.51099  0.74587  1.0000
  H   H330      1.0  0.04825  0.60605  0.83168  1.0000
  H   H331      1.0  0.04193  0.51979  0.88915  1.0000
  C   C205      1.0  0.08328  0.49835  0.65629  1.0000
  C   C206      1.0  0.03408  0.50194  0.21180  1.0000
  C   C207      1.0  0.13408  0.51114  0.11207  1.0000
  H   H332      1.0  0.01263  0.57616  0.02899  1.0000
  H   H333      1.0  0.03957  0.61698  0.78407  1.0000
  H   H334      1.0  0.20203  0.64291  0.15896  1.0000
  C   C208      1.0  0.13257  0.52353  0.12456  1.0000
  C   C209      1.0  0.04497  0.62296  0.79952  1.0000
  H   H335      1.0  0.17769  0.58094  0.51184  1.0000
  H   H336      1.0  0.20309  0.65434  0.18555  1.0000
  N   N15       1.0  0.23813  0.63641  0.89860  1.0000
  C   C210      1.0  0.00210  0.59386  0.07012  1.0000
  C   C211      1.0  0.03293  0.52664  0.16550  1.0000
  H   H337      1.0  0.01929  0.51968  0.13432  1.0000
  H   H338      1.0  0.06775  0.50763  0.11215  1.0000
  H   H339      1.0  0.22872  0.66867  0.09631  1.0000
  C   C212      1.0  0.20849  0.64769  0.17454  1.0000
  H   H340      1.0  0.01984  0.51003  0.23990  1.0000
  H   H341      1.0  0.05564  0.51375  0.92492  1.0000
  S   S70       1.0  0.02054  0.56881  0.22012  1.0000
  H   H342      1.0  0.24478  0.58850  0.82626  1.0000
  H   H343      1.0  0.19048  0.53128  0.56573  1.0000
  C   C213      1.0  0.22227  0.63576  0.12089  1.0000
  H   H344      1.0  0.99637  0.55840  0.27473  1.0000
  H   H345      1.0  0.01281  0.52786  0.16676  1.0000
  H   H346      1.0  0.04215  0.50491  0.18686  1.0000
  H   H347      1.0  0.21692  0.63308  0.20469  1.0000
  H   H348      1.0  0.21319  0.65826  0.10283  1.0000
  C   C214      1.0  0.01556  0.50314  0.86878  1.0000
  H   H349      1.0  0.20300  0.55764  0.47760  1.0000
  H   H350      1.0  0.03765  0.62442  0.82190  1.0000
  H   H351      1.0  0.09326  0.52432  0.52499  1.0000
  H   H352      1.0  0.19058  0.67536  0.32162  1.0000
  H   H353      1.0  0.22298  0.63671  0.94448  1.0000
  H   H354      1.0  0.00730  0.57473  0.70680  1.0000
  H   H355      1.0  0.23858  0.71761  0.87618  1.0000
  H   H356      1.0  0.17137  0.68584  0.39673  1.0000
  C   C215      1.0  0.20412  0.71735  0.86491  1.0000
  C   C216      1.0  0.16492  0.70442  0.27026  1.0000
  C   C217      1.0  0.23928  0.63598  0.85886  1.0000
  H   H357      1.0  0.15745  0.67212  0.38059  1.0000
  C   C218      1.0  0.18285  0.67854  0.33849  1.0000
  H   H358      1.0  0.02791  0.59038  0.70583  1.0000
  H   H359      1.0  0.16630  0.57059  0.49549  1.0000
  H   H360      1.0  0.20763  0.72802  0.86075  1.0000
  H   H361      1.0  0.18792  0.68609  0.35032  1.0000
  H   H362      1.0  0.19635  0.71376  0.89054  1.0000
  H   H363      1.0  0.20848  0.71794  0.80791  1.0000
  H   H364      1.0  0.19326  0.72105  0.82406  1.0000
  C   C219      1.0  0.01896  0.52104  0.16254  1.0000
  H   H365      1.0  0.19647  0.71853  0.76207  1.0000
  C   C220      1.0  0.19953  0.71445  0.83080  1.0000
  C   C221      1.0  0.19461  0.55445  0.46574  1.0000
  H   H366      1.0  0.10338  0.51054  0.46633  1.0000
  C   C222      1.0  0.16853  0.69501  0.38938  1.0000
  C   C223      1.0  0.08126  0.51446  0.14375  1.0000
  H   H367      1.0  0.17704  0.66988  0.36028  1.0000
  H   H368      1.0  0.14116  0.68715  0.38499  1.0000
  C   C224      1.0  0.22887  0.66301  0.17182  1.0000
  C   C225      1.0  0.17674  0.57347  0.49563  1.0000
  H   H369      1.0  0.17626  0.70273  0.39346  1.0000
  H   H370      1.0  0.20949  0.69344  0.84033  1.0000
  H   H371      1.0  0.20504  0.69911  0.78290  1.0000
  C   C226      1.0  0.19072  0.70842  0.76620  1.0000
  H   H372      1.0  0.23737  0.65940  0.70004  1.0000
  H   H373      1.0  0.01898  0.54102  0.26807  1.0000
  H   H374      1.0  0.01491  0.60325  0.11934  1.0000
  C   C227      1.0  0.02611  0.53458  0.21932  1.0000
  H   H375      1.0  0.99992  0.49800  0.98496  1.0000
  H   H376      1.0  0.19876  0.69255  0.88205  1.0000
  H   H377      1.0  0.19281  0.70597  0.73907  1.0000
  N   N16       1.0  0.19275  0.70054  0.83298  1.0000
  H   H378      1.0  0.18018  0.70783  0.77350  1.0000
  H   H379      1.0  0.17422  0.70509  0.83399  1.0000
  C   C228      1.0  0.19465  0.69865  0.79433  1.0000
  H   H380      1.0  0.01758  0.58248  0.66255  1.0000
  H   H381      1.0  0.01390  0.59396  0.72996  1.0000
  H   H382      1.0  0.06872  0.53298  0.18462  1.0000
  H   H383      1.0  0.17980  0.69366  0.90754  1.0000
  C   C229      1.0  0.17835  0.69779  0.84918  1.0000
  C   C230      1.0  0.19896  0.69130  0.85386  1.0000
  H   H384      1.0  0.20375  0.61608  0.60939  1.0000
  S   S71       1.0  0.02368  0.51752  0.05173  1.0000
  H   H385      1.0  0.09397  0.50658  0.56935  1.0000
  H   H386      1.0  0.19974  0.62940  0.21589  1.0000
  H   H387      1.0  0.01345  0.59394  0.16456  1.0000
  C   C231      1.0  0.22948  0.64652  0.13620  1.0000
  H   H388      1.0  0.99606  0.53975  0.68856  1.0000
  C   C232      1.0  0.14023  0.67814  0.37510  1.0000
  H   H389      1.0  0.13387  0.67814  0.35552  1.0000
  H   H390      1.0  0.17420  0.70795  0.89289  1.0000
  C   C233      1.0  0.17403  0.69794  0.88993  1.0000
  S   S72       1.0  0.10969  0.50080  0.62344  1.0000
  C   C234      1.0  0.10055  0.52319  0.50191  1.0000
  H   H391      1.0  0.12471  0.52731  0.11519  1.0000
  H   H392      1.0  0.18260  0.67367  0.87240  1.0000
  H   H393      1.0  0.17293  0.68846  0.84517  1.0000
  C   C235      1.0  0.19306  0.67673  0.85817  1.0000
  H   H394      1.0  0.19458  0.67397  0.83151  1.0000
  H   H395      1.0  0.18901  0.68889  0.79392  1.0000
  H   H396      1.0  0.16395  0.69175  0.90146  1.0000
  H   H397      1.0  0.14252  0.50838  0.12108  1.0000
  H   H398      1.0  0.18734  0.56587  0.42244  1.0000
  H   H399      1.0  0.10136  0.53109  0.47762  1.0000
  H   H400      1.0  0.19814  0.67109  0.87542  1.0000
  C   C236      1.0  0.09645  0.50999  0.49253  1.0000
  H   H401      1.0  0.10752  0.51065  0.12061  1.0000
  C   C237      1.0  0.19640  0.56525  0.43100  1.0000
  C   C238      1.0  0.17021  0.54799  0.47935  1.0000
  S   S73       1.0  0.01783  0.51139  0.72195  1.0000
  C   C239      1.0  0.07446  0.49924  0.56283  1.0000
  H   H402      1.0  0.18253  0.53090  0.50999  1.0000
  H   H403      1.0  0.23035  0.65645  0.19602  1.0000
  H   H404      1.0  0.22315  0.66925  0.18371  1.0000
  H   H405      1.0  0.16120  0.54522  0.50187  1.0000
  H   H406      1.0  0.16911  0.55652  0.46019  1.0000
  C   C240      1.0  0.18165  0.53912  0.52289  1.0000
  H   H407      1.0  0.14776  0.69562  0.31302  1.0000
  C   C241      1.0  0.23606  0.62251  0.85028  1.0000
  H   H408      1.0  0.20683  0.61671  0.94530  1.0000
  H   H409      1.0  0.19648  0.54569  0.45675  1.0000
  C   C242      1.0  0.03714  0.51024  0.90896  1.0000
  H   H410      1.0  0.01062  0.50676  0.84750  1.0000
  H   H411      1.0  0.17287  0.70193  0.25224  1.0000
  H   H412      1.0  0.03911  0.52128  0.15149  1.0000
  H   H413      1.0  0.22113  0.61364  0.95749  1.0000
  C   C243      1.0  0.19238  0.54045  0.54440  1.0000
  C   C244      1.0  0.02150  0.51830  0.95001  1.0000
  N   N17       1.0  0.09607  0.49824  0.52158  1.0000
  H   H414      1.0  0.24136  0.61757  0.92098  1.0000
  H   H415      1.0  0.19242  0.54826  0.55927  1.0000
  H   H416      1.0  0.04575  0.49726  0.94289  1.0000
  Fe  Fe38      1.0  0.24363  0.70913  0.12378  1.0000
  H   H417      1.0  0.22930  0.63055  0.10965  1.0000
  H   H418      1.0  0.24199  0.62301  0.82263  1.0000
  N   N18       1.0  0.22157  0.65528  0.15001  1.0000
  H   H419      1.0  0.02343  0.51461  0.97714  1.0000
  C   C245      1.0  0.01649  0.51247  0.89461  1.0000
  H   H420      1.0  0.23280  0.64132  0.84677  1.0000
  H   H421      1.0  0.21448  0.62850  0.14264  1.0000
  N   N19       1.0  0.03459  0.52652  0.20386  1.0000
  C   C246      1.0  0.22405  0.63263  0.91968  1.0000
  H   H422      1.0  0.02255  0.60368  0.68408  1.0000
  S   S74       1.0  0.24460  0.73018  0.98953  1.0000
  H   H423      1.0  0.20884  0.64196  0.23270  1.0000
  C   C247      1.0  0.23879  0.71909  0.96456  1.0000
  H   H424      1.0  0.04987  0.53409  0.22933  1.0000
  H   H425      1.0  0.00498  0.55010  0.73417  1.0000
  C   C248      1.0  0.20864  0.63754  0.20882  1.0000
  C   C249      1.0  0.23852  0.66118  0.02604  1.0000
  H   H426      1.0  0.01790  0.57892  0.08381  1.0000
  H   H427      1.0  0.07185  0.50451  0.58424  1.0000
  S   S75       1.0  0.23955  0.63416  0.69228  1.0000
  C   C250      1.0  0.00761  0.57335  0.08916  1.0000
  C   C251      1.0  0.23669  0.71441  0.90576  1.0000
  H   H428      1.0  0.23855  0.61484  0.86896  1.0000
  C   C252      1.0  0.01913  0.59375  0.70221  1.0000
  S   S76       1.0  0.24069  0.70092  0.07542  1.0000
  H   H429      1.0  0.02164  0.52226  0.87678  1.0000
  H   H430      1.0  0.11022  0.52471  0.50826  1.0000
  Fe  Fe39      1.0  0.23439  0.69627  0.83925  1.0000
  C   C253      1.0  0.00467  0.60028  0.64250  1.0000
  C   C254      1.0  0.01073  0.58414  0.68582  1.0000
  H   H431      1.0  0.00726  0.60902  0.65347  1.0000
  H   H432      1.0  0.05830  0.51730  0.20644  1.0000
  H   H433      1.0  0.04046  0.53286  0.93147  1.0000
  H   H434      1.0  0.23809  0.65226  0.11368  1.0000
  H   H435      1.0  0.00068  0.59165  0.04366  1.0000
  C   C255      1.0  0.24248  0.67164  0.15078  1.0000
  C   C256      1.0  0.24574  0.64389  0.71999  1.0000
  C   C257      1.0  0.24389  0.65025  0.89959  1.0000
  H   H436      1.0  0.22670  0.65846  0.90368  1.0000
  H   H437      1.0  0.11626  0.50013  0.49510  1.0000
  N   N20       1.0  0.99941  0.58822  0.67358  1.0000
  H   H438      1.0  0.11553  0.50898  0.07808  1.0000
  H   H439      1.0  0.08694  0.50934  0.48510  1.0000
  H   H440      1.0  0.99637  0.59907  0.71533  1.0000
  C   C258      1.0  0.11161  0.50363  0.10739  1.0000
  H   H441      1.0  0.03807  0.50315  0.89176  1.0000
  H   H442      1.0  0.11415  0.50609  0.53520  1.0000
  H   H443      1.0  0.11322  0.50438  0.17500  1.0000
  H   H444      1.0  0.24199  0.67010  0.88680  1.0000
  Fe  Fe40      1.0  0.02548  0.49723  0.07024  1.0000
  H   H445      1.0  0.24448  0.65084  0.92812  1.0000
  S   S77       1.0  0.24308  0.60088  0.67186  1.0000
  H   H446      1.0  0.24217  0.67869  0.12618  1.0000
  H   H447      1.0  0.99891  0.57518  0.15712  1.0000
  H   H448      1.0  0.00543  0.57962  0.60887  1.0000
  C   C259      1.0  0.10987  0.49813  0.52316  1.0000
  H   H449      1.0  0.00578  0.56604  0.64445  1.0000
  H   H450      1.0  0.04221  0.51011  0.96308  1.0000
  S   S78       1.0  0.24218  0.61053  0.08537  1.0000
  C   C260      1.0  0.99950  0.57175  0.63286  1.0000
  C   C261      1.0  0.08876  0.49860  0.55898  1.0000
  H   H451      1.0  0.24494  0.62921  0.94610  1.0000
  H   H452      1.0  0.01037  0.55975  0.05500  1.0000
  C   C262      1.0  0.00014  0.58434  0.13636  1.0000
  C   C263      1.0  0.24062  0.58866  0.85415  1.0000
  H   H453      1.0  0.23616  0.66088  0.85701  1.0000
  C   C264      1.0  0.24321  0.65611  0.71807  1.0000
  C   C265      1.0  0.24167  0.64920  0.02842  1.0000
  H   H454      1.0  0.24414  0.68070  0.03290  1.0000
  C   C266      1.0  0.46125  0.05137  0.88407  1.0000
  S   S79       1.0  0.49140  0.03462  0.04716  1.0000
  S   S80       1.0  0.45222  0.00460  0.76467  1.0000
  H   H455      1.0  0.47367  0.03966  0.79136  1.0000
  S   S81       1.0  0.48048  0.00754  0.71036  1.0000
  Fe  Fe41      1.0  0.47112  0.02024  0.74062  1.0000
  C   C267      1.0  0.48904  0.08459  0.57347  1.0000
  C   C268      1.0  0.49528  0.05839  0.68326  1.0000
  H   H456      1.0  0.49300  0.08389  0.75257  1.0000
  H   H457      1.0  0.49295  0.10821  0.50830  1.0000
  H   H458      1.0  0.47401  0.06938  0.85133  1.0000
  C   C269      1.0  0.47643  0.06708  0.69128  1.0000
  Fe  Fe42      1.0  0.48233  0.02976  0.10792  1.0000
  Fe  Fe43      1.0  0.47461  0.01929  0.04291  1.0000
  S   S82       1.0  0.46356  0.02287  0.99835  1.0000
  H   H459      1.0  0.45036  0.03349  0.80097  1.0000
  S   S83       1.0  0.46445  0.01562  0.10283  1.0000
  H   H460      1.0  0.48567  0.06077  0.76125  1.0000
  C   C270      1.0  0.48959  0.07806  0.78154  1.0000
  C   C271      1.0  0.45135  0.01326  0.91105  1.0000
  C   C272      1.0  0.45367  0.01921  0.93955  1.0000
  C   C273      1.0  0.46222  0.01574  0.96067  1.0000
  C   C274      1.0  0.46879  0.00644  0.95218  1.0000
  H   H461      1.0  0.48379  0.07075  0.15821  1.0000
  H   H462      1.0  0.49210  0.06064  0.84396  1.0000
  H   H463      1.0  0.44842  0.02624  0.94621  1.0000
  Fe  Fe44      1.0  0.48697  0.00159  0.76175  1.0000
  C   C275      1.0  0.48438  0.07966  0.67595  1.0000
  S   S84       1.0  0.47909  0.01544  0.79023  1.0000
  H   H464      1.0  0.45582  0.05653  0.90154  1.0000
  H   H465      1.0  0.47999  0.08778  0.67340  1.0000
  H   H466      1.0  0.42673  0.00661  0.10915  1.0000
  H   H467      1.0  0.46836  0.04815  0.89866  1.0000
  C   C276      1.0  0.48171  0.05634  0.69528  1.0000
  C   C277      1.0  0.46791  0.06067  0.84599  1.0000
  C   C278      1.0  0.48726  0.05235  0.83404  1.0000
  H   H468      1.0  0.44035  0.00510  0.05155  1.0000
  H   H469      1.0  0.46614  0.03461  0.83890  1.0000
  Fe  Fe45      1.0  0.46123  0.99912  0.81240  1.0000
  H   H470      1.0  0.48694  0.08423  0.50929  1.0000
  H   H471      1.0  0.47209  0.06963  0.60783  1.0000
  S   S85       1.0  0.48449  0.00322  0.05208  1.0000
  C   C279      1.0  0.46808  0.04274  0.81415  1.0000
  S   S86       1.0  0.48139  0.04671  0.13544  1.0000
  H   H472      1.0  0.44798  0.04520  0.82674  1.0000
  H   H473      1.0  0.46026  0.06415  0.83423  1.0000
  C   C280      1.0  0.45758  0.00372  0.90301  1.0000
  H   H474      1.0  0.46603  0.06569  0.70039  1.0000
  H   H475      1.0  0.45613  0.05022  0.77830  1.0000
  S   S87       1.0  0.47053  0.04093  0.71592  1.0000
  H   H476      1.0  0.45409  0.04274  0.88230  1.0000
  H   H477      1.0  0.47994  0.06490  0.56868  1.0000
  C   C281      1.0  0.45493  0.04317  0.80464  1.0000
  S   S88       1.0  0.49232  0.01396  0.12233  1.0000
  N   N21       1.0  0.47595  0.05519  0.81919  1.0000
  C   C282      1.0  0.48057  0.06491  0.78247  1.0000
  H   H478      1.0  0.48176  0.08948  0.56423  1.0000
  H   H479      1.0  0.48437  0.08376  0.79739  1.0000
  H   H480      1.0  0.44423  0.01562  0.89634  1.0000
  H   H481      1.0  0.47220  0.06725  0.77218  1.0000
  C   C283      1.0  0.48171  0.07019  0.59007  1.0000
  C   C284      1.0  0.42970  0.99745  0.10838  1.0000
  Fe  Fe46      1.0  0.47539  0.00027  0.11226  1.0000
  H   H482      1.0  0.49148  0.08877  0.59638  1.0000
  C   C285      1.0  0.46637  0.00037  0.92364  1.0000
  H   H483      1.0  0.49393  0.04049  0.79679  1.0000
  H   H484      1.0  0.48384  0.04399  0.85860  1.0000
  C   C286      1.0  0.49281  0.05487  0.15678  1.0000
  C   C287      1.0  0.49165  0.06677  0.16490  1.0000
  H   H485      1.0  0.47535  0.00361  0.96836  1.0000
  H   H486      1.0  0.49282  0.11132  0.55323  1.0000
  H   H487      1.0  0.48692  0.06518  0.60828  1.0000
  H   H488      1.0  0.43048  0.99922  0.99648  1.0000
  H   H489      1.0  0.42388  0.99718  0.05845  1.0000
  H   H490      1.0  0.43828  0.99806  0.12022  1.0000
  H   H491      1.0  0.49142  0.00051  0.20482  1.0000
  H   H492      1.0  0.44768  0.45090  0.32169  1.0000
  S   S89       1.0  0.48637  0.46862  0.76692  1.0000
  H   H493      1.0  0.42335  0.46991  0.24693  1.0000
  H   H494      1.0  0.44394  0.45684  0.77888  1.0000
  C   C288      1.0  0.48113  0.48411  0.92651  1.0000
  Fe  Fe47      1.0  0.47872  0.48761  0.10846  1.0000
  C   C289      1.0  0.45346  0.47044  0.82428  1.0000
  H   H495      1.0  0.45113  0.44954  0.82766  1.0000
  H   H496      1.0  0.44549  0.48112  0.20874  1.0000
  C   C290      1.0  0.45302  0.45609  0.29302  1.0000
  C   C291      1.0  0.44916  0.46716  0.76594  1.0000
  S   S90       1.0  0.48050  0.46707  0.11108  1.0000
  H   H497      1.0  0.46397  0.47404  0.29826  1.0000
  C   C292      1.0  0.48501  0.47879  0.89672  1.0000
  H   H498      1.0  0.46253  0.45360  0.28733  1.0000
  H   H499      1.0  0.47109  0.48842  0.20171  1.0000
  H   H500      1.0  0.45232  0.47598  0.84588  1.0000
  C   C293      1.0  0.48415  0.47999  0.96038  1.0000
  N   N22       1.0  0.44768  0.47548  0.79314  1.0000
  C   C294      1.0  0.43102  0.47398  0.26015  1.0000
  H   H501      1.0  0.48115  0.48417  0.98308  1.0000
  H   H502      1.0  0.43703  0.45336  0.85341  1.0000
  S   S91       1.0  0.48074  0.48399  0.85496  1.0000
  C   C295      1.0  0.49080  0.47028  0.96496  1.0000
  H   H503      1.0  0.45214  0.49364  0.75162  1.0000
  S   S92       1.0  0.47913  0.48884  0.67934  1.0000
  N   N23       1.0  0.45596  0.47907  0.25144  1.0000
  H   H504      1.0  0.45152  0.45414  0.86970  1.0000
  H   H505      1.0  0.46521  0.45859  0.22485  1.0000
  C   C296      1.0  0.44409  0.47064  0.73131  1.0000
  Fe  Fe48      1.0  0.49298  0.47519  0.05313  1.0000
  C   C297      1.0  0.46840  0.47956  0.22469  1.0000
  H   H506      1.0  0.46412  0.47190  0.81435  1.0000
  H   H507      1.0  0.46266  0.49506  0.63166  1.0000
  H   H508      1.0  0.49474  0.46497  0.87850  1.0000
  C   C298      1.0  0.44779  0.45601  0.84454  1.0000
  C   C299      1.0  0.46842  0.46826  0.20567  1.0000
  H   H509      1.0  0.43227  0.47686  0.83622  1.0000
  C   C300      1.0  0.45620  0.49270  0.25546  1.0000
  C   C301      1.0  0.45498  0.47082  0.28894  1.0000
  H   H510      1.0  0.46585  0.48914  0.76255  1.0000
  H   H511      1.0  0.42993  0.48377  0.26218  1.0000
  H   H512      1.0  0.42704  0.49262  0.79728  1.0000
  C   C302      1.0  0.44442  0.47460  0.23613  1.0000
  C   C303      1.0  0.49455  0.46486  0.93529  1.0000
  H   H513      1.0  0.43333  0.46852  0.73809  1.0000
  H   H514      1.0  0.44694  0.45204  0.27578  1.0000
  H   H515      1.0  0.44801  0.49273  0.27800  1.0000
  C   C304      1.0  0.43354  0.47466  0.80860  1.0000
  H   H516      1.0  0.42908  0.46754  0.28794  1.0000
  H   H517      1.0  0.42752  0.46457  0.81312  1.0000
  H   H518      1.0  0.44683  0.46446  0.71261  1.0000
  H   H519      1.0  0.44723  0.47228  0.31033  1.0000
  H   H520      1.0  0.44380  0.46489  0.23048  1.0000
  H   H521      1.0  0.47668  0.48032  0.23821  1.0000
  H   H522      1.0  0.47077  0.49545  0.28876  1.0000
  C   C305      1.0  0.42722  0.48393  0.78607  1.0000
  H   H523      1.0  0.46247  0.46869  0.18503  1.0000
  S   S93       1.0  0.45995  0.49263  0.13165  1.0000
  H   H524      1.0  0.47579  0.49147  0.92336  1.0000
  Fe  Fe49      1.0  0.49155  0.48656  0.72049  1.0000
  H   H525      1.0  0.47851  0.46923  0.19038  1.0000
  H   H526      1.0  0.45960  0.46730  0.75640  1.0000
  Fe  Fe50      1.0  0.49260  0.48256  0.80085  1.0000
  C   C306      1.0  0.49181  0.46921  0.90114  1.0000
  C   C307      1.0  0.45566  0.48916  0.77497  1.0000
  S   S94       1.0  0.48953  0.49506  0.04890  1.0000
  H   H527      1.0  0.41685  0.47896  0.78949  1.0000
  H   H528      1.0  0.44849  0.48079  0.71538  1.0000
  H   H529      1.0  0.43158  0.48704  0.75618  1.0000
  S   S95       1.0  0.49488  0.46483  0.00689  1.0000
  Fe  Fe51      1.0  0.44007  0.57315  0.23243  1.0000
  S   S96       1.0  0.41898  0.56744  0.26010  1.0000
  S   S97       1.0  0.45117  0.59404  0.21548  1.0000
  Fe  Fe52      1.0  0.44161  0.54539  0.23577  1.0000
  S   S98       1.0  0.42030  0.53722  0.26454  1.0000
  S   S99       1.0  0.45807  0.53566  0.22277  1.0000
  Fe  Fe53      1.0  0.41729  0.55373  0.22353  1.0000
  S   S100      1.0  0.40075  0.55262  0.19484  1.0000
  Fe  Fe54      1.0  0.42376  0.55177  0.29899  1.0000
  S   S101      1.0  0.41476  0.55125  0.35839  1.0000
  S   S102      1.0  0.43828  0.56069  0.19243  1.0000
  S   S103      1.0  0.44518  0.55868  0.27351  1.0000
  Fe  Fe55      1.0  0.43605  0.53662  0.62397  1.0000
  S   S104      1.0  0.44614  0.54340  0.56418  1.0000
  S   S105      1.0  0.44576  0.53043  0.66974  1.0000
  Fe  Fe56      1.0  0.41221  0.54647  0.61182  1.0000
  S   S106      1.0  0.42049  0.55417  0.55073  1.0000
  S   S107      1.0  0.39210  0.54626  0.64360  1.0000
  Fe  Fe57      1.0  0.42674  0.53566  0.55314  1.0000
  S   S108      1.0  0.42682  0.52509  0.50741  1.0000
  Fe  Fe58      1.0  0.43917  0.56126  0.56568  1.0000
  S   S109      1.0  0.45339  0.58009  0.53496  1.0000
  S   S110      1.0  0.41703  0.52714  0.61335  1.0000
  S   S111      1.0  0.43051  0.55532  0.62643  1.0000
  H   H530      1.0  0.44371  0.64207  0.03243  1.0000
  S   S112      1.0  0.25731  0.61657  0.99962  1.0000
  C   C308      1.0  0.45864  0.52506  0.19292  1.0000
  C   C309      1.0  0.47663  0.74539  0.23124  1.0000
  C   C310      1.0  0.42900  0.62529  0.06749  1.0000
  H   H531      1.0  0.41165  0.58811  0.99238  1.0000
  Fe  Fe59      1.0  0.26072  0.60763  0.05369  1.0000
  S   S113      1.0  0.28110  0.61811  0.05508  1.0000
  H   H532      1.0  0.43629  0.61982  0.07314  1.0000
  C   C311      1.0  0.47120  0.51288  0.15930  1.0000
  H   H533      1.0  0.30429  0.55829  0.81213  1.0000
  H   H534      1.0  0.28124  0.63067  0.70508  1.0000
  H   H535      1.0  0.38422  0.66913  0.93641  1.0000
  H   H536      1.0  0.28042  0.58993  0.88711  1.0000
  H   H537      1.0  0.26479  0.62862  0.67310  1.0000
  C   C312      1.0  0.25651  0.68590  0.93216  1.0000
  S   S114      1.0  0.27075  0.58659  0.70774  1.0000
  H   H538      1.0  0.43031  0.64785  0.99404  1.0000
  S   S115      1.0  0.25511  0.70335  0.74003  1.0000
  H   H539      1.0  0.42752  0.66924  0.04788  1.0000
  H   H540      1.0  0.41648  0.64913  0.88527  1.0000
  Fe  Fe60      1.0  0.34943  0.60965  0.07890  1.0000
  S   S116      1.0  0.36385  0.59812  0.06326  1.0000
  S   S117      1.0  0.32837  0.59778  0.09905  1.0000
  Fe  Fe61      1.0  0.37018  0.63522  0.05646  1.0000
  S   S118      1.0  0.38571  0.62571  0.03777  1.0000
  S   S119      1.0  0.37760  0.65700  0.04619  1.0000
  Fe  Fe62      1.0  0.37159  0.61441  0.01289  1.0000
  S   S120      1.0  0.37975  0.61235  0.95617  1.0000
  Fe  Fe63      1.0  0.37686  0.61027  0.08996  1.0000
  S   S121      1.0  0.39338  0.60675  0.11595  1.0000
  S   S122      1.0  0.35663  0.62532  0.02637  1.0000
  S   S123      1.0  0.36184  0.62045  0.11045  1.0000
  Fe  Fe64      1.0  0.36148  0.60013  0.72544  1.0000
  S   S124      1.0  0.35984  0.62083  0.71294  1.0000
  S   S125      1.0  0.37449  0.59620  0.67637  1.0000
  Fe  Fe65      1.0  0.34900  0.59639  0.80771  1.0000
  S   S126      1.0  0.34695  0.61668  0.79989  1.0000
  S   S127      1.0  0.34260  0.58551  0.86754  1.0000
  Fe  Fe66      1.0  0.33964  0.61281  0.75055  1.0000
  S   S128      1.0  0.32087  0.61881  0.74568  1.0000
  Fe  Fe67      1.0  0.36714  0.62256  0.76355  1.0000
  S   S129      1.0  0.38566  0.63465  0.77226  1.0000
  S   S130      1.0  0.34074  0.59203  0.76011  1.0000
  S   S131      1.0  0.36952  0.60221  0.77424  1.0000
  Fe  Fe68      1.0  0.45357  0.70754  0.07983  1.0000
  S   S132      1.0  0.43447  0.71281  0.09129  1.0000
  S   S133      1.0  0.46389  0.70786  0.02250  1.0000
  Fe  Fe69      1.0  0.45411  0.70030  0.16030  1.0000
  S   S134      1.0  0.43491  0.70485  0.17731  1.0000
  S   S135      1.0  0.46167  0.69316  0.20985  1.0000
  Fe  Fe70      1.0  0.42852  0.69442  0.13602  1.0000
  S   S136      1.0  0.41032  0.67782  0.15398  1.0000
  Fe  Fe71      1.0  0.44285  0.72287  0.13121  1.0000
  S   S137      1.0  0.25600  0.69979  0.82701  1.0000
  S   S138      1.0  0.44719  0.68863  0.12231  1.0000
  S   S139      1.0  0.46250  0.71895  0.11629  1.0000
  Fe  Fe72      1.0  0.45440  0.68812  0.79948  1.0000
  S   S140      1.0  0.45058  0.70331  0.75673  1.0000
  Fe  Fe73      1.0  0.43682  0.69423  0.86279  1.0000
  S   S141      1.0  0.43135  0.70975  0.82562  1.0000
  S   S142      1.0  0.42721  0.68837  0.92343  1.0000
  Fe  Fe74      1.0  0.42967  0.69595  0.78875  1.0000
  S   S143      1.0  0.41225  0.69345  0.76350  1.0000
  Fe  Fe75      1.0  0.45249  0.71608  0.79684  1.0000
  S   S144      1.0  0.43329  0.67994  0.82863  1.0000
  S   S145      1.0  0.45817  0.70145  0.83679  1.0000
  H   H541      1.0  0.46941  0.67908  0.26941  1.0000
  H   H542      1.0  0.40417  0.66898  0.84912  1.0000
  C   C313      1.0  0.45360  0.70117  0.99678  1.0000
  C   C314      1.0  0.44007  0.69774  0.00991  1.0000
  C   C315      1.0  0.43201  0.69347  0.98762  1.0000
  C   C316      1.0  0.43744  0.69250  0.95222  1.0000
  C   C317      1.0  0.45095  0.69526  0.93991  1.0000
  C   C318      1.0  0.45902  0.69967  0.96201  1.0000
  H   H543      1.0  0.43576  0.69855  0.03698  1.0000
  H   H544      1.0  0.42155  0.69121  0.99753  1.0000
  H   H545      1.0  0.45523  0.69407  0.91326  1.0000
  H   H546      1.0  0.46948  0.70206  0.95197  1.0000
  S   S146      1.0  0.24641  0.60366  0.75449  1.0000
  H   H547      1.0  0.40206  0.57891  0.71226  1.0000
  C   C319      1.0  0.47417  0.67694  0.24454  1.0000
  H   H548      1.0  0.46730  0.50996  0.26677  1.0000
  H   H549      1.0  0.32861  0.63251  0.97435  1.0000
  C   C320      1.0  0.39295  0.65131  0.76591  1.0000
  C   C321      1.0  0.38634  0.66097  0.75914  1.0000
  C   C322      1.0  0.39245  0.67399  0.75722  1.0000
  C   C323      1.0  0.40515  0.67737  0.76224  1.0000
  C   C324      1.0  0.41182  0.66775  0.76791  1.0000
  C   C325      1.0  0.40574  0.65480  0.76983  1.0000
  H   H550      1.0  0.37647  0.65837  0.75609  1.0000
  H   H551      1.0  0.38723  0.68139  0.75271  1.0000
  H   H552      1.0  0.42167  0.67025  0.77112  1.0000
  H   H553      1.0  0.41095  0.64741  0.77489  1.0000
  C   C326      1.0  0.38682  0.66272  0.07595  1.0000
  C   C327      1.0  0.39635  0.67461  0.06335  1.0000
  C   C328      1.0  0.40382  0.67929  0.08667  1.0000
  C   C329      1.0  0.40155  0.67226  0.12307  1.0000
  C   C330      1.0  0.39202  0.66041  0.13560  1.0000
  C   C331      1.0  0.38481  0.65556  0.11203  1.0000
  H   H554      1.0  0.39796  0.68019  0.03544  1.0000
  H   H555      1.0  0.41113  0.68845  0.07675  1.0000
  H   H556      1.0  0.39020  0.65491  0.16369  1.0000
  H   H557      1.0  0.37750  0.64642  0.12207  1.0000
  C   C332      1.0  0.36897  0.60489  0.93278  1.0000
  C   C333      1.0  0.35781  0.59495  0.95139  1.0000
  C   C334      1.0  0.34987  0.58877  0.93134  1.0000
  C   C335      1.0  0.35273  0.59290  0.89285  1.0000
  C   C336      1.0  0.36372  0.60302  0.87463  1.0000
  C   C337      1.0  0.37197  0.60873  0.89437  1.0000
  H   H558      1.0  0.35554  0.59178  0.98106  1.0000
  H   H559      1.0  0.34155  0.58076  0.94559  1.0000
  H   H560      1.0  0.36605  0.60637  0.84514  1.0000
  H   H561      1.0  0.38069  0.61616  0.87960  1.0000
  C   C338      1.0  0.39693  0.64273  0.87480  1.0000
  H   H562      1.0  0.41162  0.65387  0.97811  1.0000
  H   H563      1.0  0.35675  0.53453  0.63400  1.0000
  H   H564      1.0  0.37436  0.63704  0.92365  1.0000
  H   H565      1.0  0.39368  0.64041  0.85037  1.0000
  H   H566      1.0  0.31339  0.57462  0.80451  1.0000
  C   C339      1.0  0.37405  0.56286  0.08290  1.0000
  H   H567      1.0  0.26840  0.64521  0.65092  1.0000
  C   C340      1.0  0.28443  0.59525  0.72016  1.0000
  C   C341      1.0  0.28387  0.60572  0.73624  1.0000
  C   C342      1.0  0.29509  0.61278  0.74401  1.0000
  C   C343      1.0  0.30695  0.60928  0.73661  1.0000
  C   C344      1.0  0.30743  0.59856  0.72155  1.0000
  C   C345      1.0  0.29625  0.59166  0.71313  1.0000
  H   H568      1.0  0.27483  0.60847  0.74237  1.0000
  H   H569      1.0  0.29459  0.62100  0.75584  1.0000
  H   H570      1.0  0.31648  0.59577  0.71558  1.0000
  H   H571      1.0  0.29681  0.58355  0.70079  1.0000
  H   H572      1.0  0.29749  0.66741  0.58242  1.0000
  N   N24       1.0  0.39053  0.65252  0.88885  1.0000
  H   H573      1.0  0.28110  0.65832  0.59052  1.0000
  C   C346      1.0  0.29378  0.61226  0.06989  1.0000
  C   C347      1.0  0.30618  0.62087  0.06147  1.0000
  C   C348      1.0  0.31681  0.61661  0.07060  1.0000
  C   C349      1.0  0.31510  0.60370  0.08891  1.0000
  C   C350      1.0  0.30261  0.59516  0.09840  1.0000
  C   C351      1.0  0.29199  0.59938  0.08866  1.0000
  H   H574      1.0  0.30760  0.63090  0.04741  1.0000
  H   H575      1.0  0.32632  0.62332  0.06361  1.0000
  H   H576      1.0  0.30120  0.58517  0.11281  1.0000
  H   H577      1.0  0.28247  0.59268  0.09558  1.0000
  C   C352      1.0  0.25294  0.64761  0.03935  1.0000
  H   H578      1.0  0.28537  0.62198  0.61529  1.0000
  H   H579      1.0  0.30884  0.63037  0.61799  1.0000
  H   H580      1.0  0.28075  0.61588  0.66370  1.0000
  H   H581      1.0  0.44047  0.64166  0.07962  1.0000
  H   H582      1.0  0.38355  0.58283  0.07475  1.0000
  H   H583      1.0  0.27725  0.65379  0.69013  1.0000
  H   H584      1.0  0.28709  0.65071  0.72134  1.0000
  H   H585      1.0  0.41528  0.57909  0.05028  1.0000
  H   H586      1.0  0.28806  0.71703  0.89175  1.0000
  C   C353      1.0  0.38798  0.56027  0.65456  1.0000
  C   C354      1.0  0.37709  0.55882  0.68329  1.0000
  C   C355      1.0  0.37306  0.56973  0.69129  1.0000
  C   C356      1.0  0.37966  0.58217  0.66980  1.0000
  C   C357      1.0  0.39054  0.58360  0.64104  1.0000
  C   C358      1.0  0.39482  0.57274  0.63383  1.0000
  H   H587      1.0  0.37171  0.54920  0.69938  1.0000
  H   H588      1.0  0.36464  0.56848  0.71334  1.0000
  H   H589      1.0  0.39565  0.59317  0.62409  1.0000
  H   H590      1.0  0.40317  0.57400  0.61155  1.0000
  C   C359      1.0  0.45587  0.51961  0.66930  1.0000
  C   C360      1.0  0.46394  0.51926  0.69398  1.0000
  C   C361      1.0  0.47170  0.51038  0.69582  1.0000
  H   H591      1.0  0.47450  0.59914  0.54368  1.0000
  H   H592      1.0  0.40889  0.58435  0.74716  1.0000
  C   C362      1.0  0.45570  0.51109  0.64613  1.0000
  H   H593      1.0  0.46405  0.52575  0.71219  1.0000
  H   H594      1.0  0.30213  0.61320  0.63264  1.0000
  C   C363      1.0  0.45594  0.60383  0.62010  1.0000
  H   H595      1.0  0.44950  0.51126  0.62706  1.0000
  C   C364      1.0  0.45413  0.58989  0.56611  1.0000
  C   C365      1.0  0.44310  0.58879  0.59353  1.0000
  C   C366      1.0  0.44401  0.59574  0.62064  1.0000
  H   H596      1.0  0.25645  0.63469  0.61534  1.0000
  H   H597      1.0  0.28680  0.66447  0.62645  1.0000
  C   C367      1.0  0.46592  0.59840  0.56464  1.0000
  H   H598      1.0  0.43387  0.58249  0.59412  1.0000
  H   H599      1.0  0.43558  0.59449  0.64260  1.0000
  H   H600      1.0  0.45236  0.57950  0.69129  1.0000
  C   C368      1.0  0.48075  0.58197  0.37868  1.0000
  C   C369      1.0  0.47207  0.68258  0.21066  1.0000
  H   H601      1.0  0.29489  0.65967  0.67556  1.0000
  H   H602      1.0  0.27945  0.72393  0.94694  1.0000
  C   C370      1.0  0.40392  0.59945  0.70850  1.0000
  C   C371      1.0  0.39828  0.56777  0.17539  1.0000
  C   C372      1.0  0.40817  0.57918  0.16778  1.0000
  C   C373      1.0  0.40636  0.59107  0.15028  1.0000
  C   C374      1.0  0.39463  0.59169  0.14046  1.0000
  C   C375      1.0  0.38458  0.58036  0.14892  1.0000
  C   C376      1.0  0.38646  0.56841  0.16607  1.0000
  H   H603      1.0  0.41730  0.57881  0.17492  1.0000
  H   H604      1.0  0.41415  0.59979  0.14409  1.0000
  H   H605      1.0  0.37541  0.58077  0.14214  1.0000
  H   H606      1.0  0.37871  0.55964  0.17242  1.0000
  C   C377      1.0  0.41846  0.54378  0.39895  1.0000
  C   C378      1.0  0.42519  0.53407  0.40017  1.0000
  C   C379      1.0  0.42761  0.52828  0.43367  1.0000
  C   C380      1.0  0.42360  0.53238  0.46577  1.0000
  C   C381      1.0  0.41704  0.54217  0.46428  1.0000
  C   C382      1.0  0.41429  0.54768  0.43122  1.0000
  H   H607      1.0  0.42832  0.53091  0.37552  1.0000
  H   H608      1.0  0.43264  0.52064  0.43467  1.0000
  H   H609      1.0  0.41389  0.54535  0.48872  1.0000
  H   H610      1.0  0.40903  0.55514  0.43044  1.0000
  Fe  Fe76      1.0  0.48198  0.62229  0.33266  1.0000
  H   H611      1.0  0.46794  0.73970  0.99233  1.0000
  H   H612      1.0  0.29886  0.57103  0.78750  1.0000
  H   H613      1.0  0.30407  0.62210  0.66626  1.0000
  H   H614      1.0  0.29585  0.64399  0.58869  1.0000
  C   C383      1.0  0.40883  0.58714  0.71775  1.0000
  H   H615      1.0  0.43820  0.52057  0.19454  1.0000
  N   N25       1.0  0.29105  0.58139  0.84819  1.0000
  H   H616      1.0  0.30379  0.65056  0.61985  1.0000
  C   C384      1.0  0.46680  0.60549  0.59140  1.0000
  C   C385      1.0  0.45187  0.59988  0.25484  1.0000
  C   C386      1.0  0.46005  0.61204  0.25143  1.0000
  C   C387      1.0  0.46176  0.61629  0.28289  1.0000
  C   C388      1.0  0.45560  0.60828  0.31780  1.0000
  C   C389      1.0  0.44656  0.59659  0.32129  1.0000
  C   C390      1.0  0.44478  0.59232  0.28974  1.0000
  H   H617      1.0  0.46547  0.61795  0.22453  1.0000
  H   H618      1.0  0.44398  0.56766  0.35752  1.0000
  H   H619      1.0  0.44145  0.59054  0.34826  1.0000
  H   H620      1.0  0.43821  0.58301  0.29257  1.0000
  C   C391      1.0  0.47393  0.57183  0.41515  1.0000
  S   S147      1.0  0.26853  0.73684  0.76907  1.0000
  C   C392      1.0  0.44806  0.50897  0.16448  1.0000
  C   C393      1.0  0.47478  0.55334  0.59529  1.0000
  H   H621      1.0  0.45868  0.56483  0.33575  1.0000
  H   H622      1.0  0.32271  0.73807  0.17275  1.0000
  H   H623      1.0  0.42577  0.71780  0.68369  1.0000
  H   H624      1.0  0.46906  0.54314  0.60766  1.0000
  H   H625      1.0  0.47905  0.74540  0.84540  1.0000
  H   H626      1.0  0.46151  0.55382  0.38860  1.0000
  C   C394      1.0  0.26010  0.63066  0.89842  1.0000
  Fe  Fe77      1.0  0.24955  0.72133  0.04187  1.0000
  C   C395      1.0  0.45429  0.56861  0.35883  1.0000
  C   C396      1.0  0.48894  0.66595  0.21452  1.0000
  C   C397      1.0  0.48114  0.58544  0.27303  1.0000
  H   H627      1.0  0.25404  0.65391  0.88236  1.0000
  H   H628      1.0  0.47269  0.61957  0.41520  1.0000
  H   H629      1.0  0.46887  0.57966  0.17693  1.0000
  C   C398      1.0  0.45570  0.61730  0.48385  1.0000
  C   C399      1.0  0.27240  0.57298  0.81741  1.0000
  H   H630      1.0  0.25903  0.59196  0.86879  1.0000
  H   H631      1.0  0.43429  0.74339  0.66093  1.0000
  H   H632      1.0  0.47926  0.52727  0.18621  1.0000
  H   H633      1.0  0.27361  0.56003  0.90721  1.0000
  H   H634      1.0  0.47995  0.68951  0.72462  1.0000
  S   S148      1.0  0.43873  0.74182  0.14191  1.0000
  H   H635      1.0  0.45665  0.58300  0.44837  1.0000
  H   H636      1.0  0.35988  0.53286  0.52678  1.0000
  C   C400      1.0  0.32625  0.74055  0.11450  1.0000
  C   C401      1.0  0.37612  0.64617  0.90211  1.0000
  C   C402      1.0  0.39355  0.66437  0.85769  1.0000
  C   C403      1.0  0.36905  0.64286  0.87232  1.0000
  C   C404      1.0  0.38717  0.67536  0.86463  1.0000
  H   H637      1.0  0.37077  0.65225  0.91593  1.0000
  H   H638      1.0  0.39129  0.66172  0.83257  1.0000
  H   H639      1.0  0.35859  0.63836  0.88548  1.0000
  H   H640      1.0  0.36962  0.65165  0.85112  1.0000
  H   H641      1.0  0.37266  0.63569  0.85888  1.0000
  H   H642      1.0  0.39316  0.68206  0.87715  1.0000
  H   H643      1.0  0.37708  0.67187  0.88163  1.0000
  H   H644      1.0  0.38639  0.68098  0.83789  1.0000
  N   N26       1.0  0.41207  0.61180  0.71336  1.0000
  C   C405      1.0  0.40459  0.62204  0.70903  1.0000
  C   C406      1.0  0.41492  0.60995  0.75081  1.0000
  C   C407      1.0  0.42481  0.61571  0.68492  1.0000
  C   C408      1.0  0.40349  0.62739  0.66967  1.0000
  C   C409      1.0  0.40291  0.60507  0.78367  1.0000
  C   C410      1.0  0.43431  0.62855  0.68458  1.0000
  H   H645      1.0  0.40862  0.63042  0.71984  1.0000
  H   H646      1.0  0.39444  0.61816  0.72599  1.0000
  H   H647      1.0  0.42132  0.60322  0.75395  1.0000
  H   H648      1.0  0.42056  0.61928  0.75429  1.0000
  H   H649      1.0  0.43028  0.60819  0.68925  1.0000
  H   H650      1.0  0.42339  0.61600  0.65668  1.0000
  H   H651      1.0  0.41305  0.63306  0.65142  1.0000
  H   H652      1.0  0.39903  0.61960  0.65757  1.0000
  H   H653      1.0  0.39703  0.63411  0.67067  1.0000
  H   H654      1.0  0.40621  0.60363  0.80960  1.0000
  H   H655      1.0  0.39662  0.59564  0.78345  1.0000
  H   H656      1.0  0.39709  0.61231  0.78480  1.0000
  H   H657      1.0  0.44088  0.62671  0.70293  1.0000
  H   H658      1.0  0.42942  0.63589  0.69276  1.0000
  H   H659      1.0  0.44034  0.63307  0.65618  1.0000
  H   H660      1.0  0.25553  0.63845  0.04111  1.0000
  H   H661      1.0  0.26420  0.62171  0.61749  1.0000
  H   H662      1.0  0.30173  0.58782  0.99511  1.0000
  H   H663      1.0  0.47911  0.72918  0.84367  1.0000
  H   H664      1.0  0.38281  0.55521  0.47619  1.0000
  H   H665      1.0  0.33630  0.61533  0.89758  1.0000
  H   H666      1.0  0.30703  0.61860  0.99061  1.0000
  S   S149      1.0  0.26203  0.66998  0.78985  1.0000
  H   H667      1.0  0.47969  0.54829  0.72532  1.0000
  H   H668      1.0  0.38920  0.53276  0.50364  1.0000
  N   N27       1.0  0.44014  0.64395  0.23190  1.0000
  H   H669      1.0  0.27273  0.63749  0.58821  1.0000
  H   H670      1.0  0.36681  0.55109  0.46872  1.0000
  C   C411      1.0  0.47684  0.62091  0.43909  1.0000
  H   H671      1.0  0.47435  0.55592  0.56606  1.0000
  H   H672      1.0  0.33058  0.73216  0.11440  1.0000
  H   H673      1.0  0.48522  0.64747  0.40277  1.0000
  C   C412      1.0  0.30781  0.61433  0.96627  1.0000
  H   H674      1.0  0.44102  0.72557  0.21369  1.0000
  H   H675      1.0  0.30699  0.59736  0.02486  1.0000
  C   C413      1.0  0.27162  0.56971  0.90465  1.0000
  C   C414      1.0  0.28103  0.74228  0.79073  1.0000
  H   H676      1.0  0.48244  0.72346  0.26954  1.0000
  H   H677      1.0  0.29788  0.63817  0.68338  1.0000
  H   H678      1.0  0.39372  0.59719  0.72507  1.0000
  H   H679      1.0  0.40308  0.60064  0.67958  1.0000
  H   H680      1.0  0.42105  0.62241  0.09285  1.0000
  H   H681      1.0  0.47616  0.71210  0.24377  1.0000
  H   H682      1.0  0.45238  0.73021  0.99307  1.0000
  H   H683      1.0  0.44495  0.61844  0.44005  1.0000
  C   C415      1.0  0.38421  0.56333  0.54412  1.0000
  C   C416      1.0  0.46758  0.73050  0.19399  1.0000
  H   H684      1.0  0.28253  0.70497  0.97958  1.0000
  C   C417      1.0  0.44367  0.72985  0.93074  1.0000
  C   C418      1.0  0.46600  0.73722  0.93836  1.0000
  H   H685      1.0  0.45852  0.54008  0.44356  1.0000
  N   N28       1.0  0.37709  0.53857  0.54665  1.0000
  C   C419      1.0  0.43560  0.63998  0.05736  1.0000
  C   C420      1.0  0.48135  0.72905  0.17816  1.0000
  H   H686      1.0  0.47082  0.54793  0.46433  1.0000
  C   C421      1.0  0.48680  0.67158  0.18059  1.0000
  C   C422      1.0  0.47605  0.57401  0.16999  1.0000
  C   C423      1.0  0.25346  0.63982  0.74303  1.0000
  H   H687      1.0  0.30352  0.73223  0.83261  1.0000
  S   S150      1.0  0.25091  0.73010  0.09051  1.0000
  H   H688      1.0  0.49267  0.62770  0.76928  1.0000
  H   H689      1.0  0.42529  0.62208  0.04481  1.0000
  H   H690      1.0  0.41577  0.63674  0.02272  1.0000
  H   H691      1.0  0.32080  0.61814  0.89107  1.0000
  H   H692      1.0  0.45970  0.63170  0.53572  1.0000
  H   H693      1.0  0.46841  0.57111  0.59543  1.0000
  H   H694      1.0  0.47724  0.50245  0.23974  1.0000
  H   H695      1.0  0.45681  0.58631  0.40147  1.0000
  H   H696      1.0  0.45882  0.55745  0.62923  1.0000
  C   C424      1.0  0.31898  0.58473  0.01078  1.0000
  H   H697      1.0  0.45684  0.73070  0.86135  1.0000
  S   S151      1.0  0.49280  0.60664  0.64168  1.0000
  H   H698      1.0  0.35484  0.54371  0.59241  1.0000
  C   C425      1.0  0.47683  0.73539  0.86274  1.0000
  H   H699      1.0  0.44763  0.72390  0.68882  1.0000
  C   C426      1.0  0.36965  0.53238  0.58597  1.0000
  C   C427      1.0  0.47918  0.60785  0.45705  1.0000
  H   H700      1.0  0.26476  0.64484  0.78133  1.0000
  H   H701      1.0  0.47074  0.57896  0.23522  1.0000
  H   H702      1.0  0.47039  0.58497  0.63716  1.0000
  H   H703      1.0  0.45527  0.53872  0.49155  1.0000
  H   H704      1.0  0.48508  0.60897  0.47748  1.0000
  C   C428      1.0  0.45641  0.49867  0.80019  1.0000
  H   H705      1.0  0.45722  0.63729  0.21177  1.0000
  Fe  Fe78      1.0  0.24684  0.59659  0.99934  1.0000
  C   C429      1.0  0.43031  0.66229  0.20295  1.0000
  C   C430      1.0  0.33439  0.62730  0.95799  1.0000
  C   C431      1.0  0.36215  0.54056  0.60618  1.0000
  H   H706      1.0  0.24733  0.68014  0.95231  1.0000
  H   H707      1.0  0.30100  0.68830  0.95688  1.0000
  H   H708      1.0  0.46038  0.50876  0.78296  1.0000
  H   H709      1.0  0.47223  0.56389  0.18674  1.0000
  H   H710      1.0  0.42399  0.72393  0.92415  1.0000
  H   H711      1.0  0.49161  0.57817  0.56703  1.0000
  H   H712      1.0  0.26991  0.56398  0.83926  1.0000
  H   H713      1.0  0.32894  0.61136  0.00441  1.0000
  H   H714      1.0  0.26154  0.62965  0.86969  1.0000
  C   C432      1.0  0.29322  0.69055  0.97613  1.0000
  H   H715      1.0  0.37384  0.56269  0.55478  1.0000
  H   H716      1.0  0.47493  0.65810  0.40758  1.0000
  H   H717      1.0  0.26366  0.57044  0.89063  1.0000
  N   N29       1.0  0.28512  0.63690  0.64589  1.0000
  C   C433      1.0  0.28749  0.62400  0.64128  1.0000
  C   C434      1.0  0.27092  0.63601  0.64793  1.0000
  C   C435      1.0  0.28783  0.63867  0.68218  1.0000
  C   C436      1.0  0.29403  0.64756  0.61421  1.0000
  C   C437      1.0  0.30148  0.62257  0.63950  1.0000
  C   C438      1.0  0.26595  0.63231  0.61509  1.0000
  C   C439      1.0  0.28660  0.65150  0.69223  1.0000
  C   C440      1.0  0.28945  0.66003  0.60334  1.0000
  C   C441      1.0  0.48453  0.65481  0.72771  1.0000
  H   H718      1.0  0.42574  0.64142  0.12644  1.0000
  H   H719      1.0  0.41560  0.65469  0.83810  1.0000
  H   H720      1.0  0.39411  0.63341  0.89608  1.0000
  H   H721      1.0  0.37947  0.65306  0.96684  1.0000
  H   H722      1.0  0.43694  0.72379  0.26307  1.0000
  H   H723      1.0  0.41532  0.63826  0.85582  1.0000
  H   H724      1.0  0.41899  0.72896  0.79706  1.0000
  C   C442      1.0  0.39612  0.65577  0.92031  1.0000
  C   C443      1.0  0.41193  0.64663  0.86308  1.0000
  C   C444      1.0  0.38780  0.66094  0.94878  1.0000
  H   H725      1.0  0.44518  0.55356  0.40760  1.0000
  H   H726      1.0  0.26579  0.64030  0.89931  1.0000
  H   H727      1.0  0.39801  0.64698  0.93668  1.0000
  S   S152      1.0  0.46479  0.67216  0.79589  1.0000
  H   H728      1.0  0.45237  0.74473  0.25676  1.0000
  H   H729      1.0  0.25574  0.63059  0.74404  1.0000
  Fe  Fe79      1.0  0.25067  0.59070  0.71727  1.0000
  H   H730      1.0  0.40573  0.66306  0.90975  1.0000
  H   H731      1.0  0.39381  0.66459  0.96694  1.0000
  H   H732      1.0  0.43540  0.58448  0.43336  1.0000
  C   C445      1.0  0.42198  0.64675  0.01765  1.0000
  H   H733      1.0  0.26264  0.69389  0.97502  1.0000
  C   C446      1.0  0.41274  0.73103  0.74492  1.0000
  H   H734      1.0  0.40806  0.63649  0.08492  1.0000
  H   H735      1.0  0.43947  0.66660  0.01329  1.0000
  H   H736      1.0  0.44161  0.62243  0.19912  1.0000
  H   H737      1.0  0.41889  0.66625  0.99762  1.0000
  N   N30       1.0  0.42680  0.64886  0.05115  1.0000
  C   C447      1.0  0.41377  0.65584  0.00401  1.0000
  H   H738      1.0  0.39249  0.57368  0.96390  1.0000
  H   H739      1.0  0.40936  0.65305  0.07836  1.0000
  H   H740      1.0  0.37740  0.57913  0.03730  1.0000
  H   H741      1.0  0.36262  0.54872  0.53279  1.0000
  H   H742      1.0  0.40430  0.65399  0.02387  1.0000
  H   H743      1.0  0.43434  0.57008  0.41704  1.0000
  C   C448      1.0  0.43845  0.57525  0.43613  1.0000
  H   H744      1.0  0.40901  0.63961  0.14250  1.0000
  H   H745      1.0  0.47687  0.57603  0.43767  1.0000
  C   C449      1.0  0.41512  0.64583  0.08300  1.0000
  C   C450      1.0  0.43428  0.66294  0.04294  1.0000
  C   C451      1.0  0.41085  0.73124  0.78585  1.0000
  H   H746      1.0  0.41856  0.58809  0.70030  1.0000
  H   H747      1.0  0.44907  0.56889  0.66236  1.0000
  H   H748      1.0  0.31129  0.61297  0.82954  1.0000
  C   C452      1.0  0.41774  0.64580  0.12125  1.0000
  H   H749      1.0  0.45330  0.66248  0.05482  1.0000
  C   C453      1.0  0.48963  0.67741  0.69602  1.0000
  C   C454      1.0  0.46914  0.56265  0.61592  1.0000
  C   C455      1.0  0.26697  0.68956  0.95306  1.0000
  H   H750      1.0  0.26970  0.65654  0.05654  1.0000
  C   C456      1.0  0.44481  0.66629  0.06403  1.0000
  H   H751      1.0  0.37624  0.53949  0.46848  1.0000
  H   H752      1.0  0.40510  0.73517  0.73490  1.0000
  H   H753      1.0  0.28963  0.58823  0.79281  1.0000
  H   H754      1.0  0.47725  0.59090  0.37582  1.0000
  H   H755      1.0  0.36887  0.54897  0.61085  1.0000
  H   H756      1.0  0.47780  0.51016  0.71507  1.0000
  C   C457      1.0  0.47453  0.66971  0.75637  1.0000
  H   H757      1.0  0.41962  0.65575  0.12576  1.0000
  H   H758      1.0  0.44108  0.66286  0.09415  1.0000
  H   H759      1.0  0.44852  0.67701  0.05758  1.0000
  H   H760      1.0  0.48967  0.59299  0.27377  1.0000
  C   C458      1.0  0.31924  0.60052  0.93365  1.0000
  S   S153      1.0  0.49057  0.63610  0.60738  1.0000
  H   H761      1.0  0.32688  0.60575  0.87461  1.0000
  H   H762      1.0  0.29754  0.69363  0.99818  1.0000
  H   H763      1.0  0.39250  0.54827  0.56775  1.0000
  H   H764      1.0  0.47240  0.58836  0.28552  1.0000
  C   C459      1.0  0.28311  0.58433  0.82072  1.0000
  S   S154      1.0  0.29109  0.74114  0.07265  1.0000
  H   H765      1.0  0.30881  0.59353  0.80925  1.0000
  N   N31       1.0  0.42608  0.73789  0.72024  1.0000
  H   H766      1.0  0.29859  0.60621  0.87031  1.0000
  H   H767      1.0  0.29493  0.60893  0.82538  1.0000
  S   S155      1.0  0.46090  0.61198  0.35596  1.0000
  N   N32       1.0  0.27990  0.69840  0.93057  1.0000
  N   N33       1.0  0.45930  0.56715  0.42350  1.0000
  C   C460      1.0  0.47367  0.71684  0.26643  1.0000
  C   C461      1.0  0.45532  0.65152  0.16608  1.0000
  H   H768      1.0  0.26321  0.71419  0.95140  1.0000
  Fe  Fe80      1.0  0.47882  0.61873  0.65174  1.0000
  H   H769      1.0  0.48005  0.57773  0.35477  1.0000
  H   H770      1.0  0.42224  0.72600  0.64288  1.0000
  C   C462      1.0  0.30341  0.59221  0.83819  1.0000
  C   C463      1.0  0.30172  0.60576  0.84130  1.0000
  C   C464      1.0  0.30335  0.56836  0.81065  1.0000
  C   C465      1.0  0.39573  0.56477  0.01745  1.0000
  C   C466      1.0  0.46232  0.73031  0.88315  1.0000
  H   H771      1.0  0.43410  0.56962  0.46494  1.0000
  C   C467      1.0  0.47054  0.52229  0.17982  1.0000
  H   H772      1.0  0.45874  0.64225  0.45839  1.0000
  H   H773      1.0  0.43871  0.60420  0.47687  1.0000
  C   C468      1.0  0.29513  0.56894  0.84780  1.0000
  H   H774      1.0  0.31021  0.58977  0.85538  1.0000
  C   C469      1.0  0.47491  0.55510  0.67356  1.0000
  H   H775      1.0  0.42835  0.63943  0.19345  1.0000
  H   H776      1.0  0.47602  0.61185  0.59058  1.0000
  H   H777      1.0  0.48419  0.66450  0.27269  1.0000
  H   H778      1.0  0.49110  0.56283  0.69730  1.0000
  H   H779      1.0  0.43127  0.61528  0.24500  1.0000
  C   C470      1.0  0.48113  0.67981  0.72544  1.0000
  H   H780      1.0  0.47522  0.56328  0.72214  1.0000
  C   C471      1.0  0.28383  0.58097  0.88654  1.0000
  H   H781      1.0  0.28674  0.56034  0.85593  1.0000
  C   C472      1.0  0.45343  0.57843  0.42681  1.0000
  H   H782      1.0  0.48629  0.55003  0.20201  1.0000
  H   H783      1.0  0.45931  0.57898  0.35287  1.0000
  H   H784      1.0  0.49491  0.68529  0.67249  1.0000
  H   H785      1.0  0.41807  0.74400  0.67405  1.0000
  H   H786      1.0  0.30087  0.56713  0.86871  1.0000
  H   H787      1.0  0.29046  0.58063  0.90551  1.0000
  H   H788      1.0  0.40578  0.56479  0.00355  1.0000
  C   C473      1.0  0.48853  0.56495  0.23367  1.0000
  C   C474      1.0  0.48251  0.66861  0.24651  1.0000
  H   H789      1.0  0.47559  0.63940  0.53842  1.0000
  N   N34       1.0  0.45746  0.73732  0.91136  1.0000
  H   H790      1.0  0.38718  0.55645  0.97748  1.0000
  H   H791      1.0  0.37805  0.55945  0.10635  1.0000
  H   H792      1.0  0.36455  0.56458  0.09489  1.0000
  H   H793      1.0  0.27230  0.70933  0.88932  1.0000
  H   H794      1.0  0.46459  0.54954  0.68489  1.0000
  H   H795      1.0  0.26781  0.57046  0.93313  1.0000
  H   H796      1.0  0.39163  0.55503  0.03661  1.0000
  H   H797      1.0  0.41068  0.55581  0.06242  1.0000
  C   C475      1.0  0.38776  0.56537  0.98798  1.0000
  S   S156      1.0  0.48912  0.64368  0.32438  1.0000
  C   C476      1.0  0.40539  0.56019  0.08255  1.0000
  C   C477      1.0  0.40493  0.57403  0.06430  1.0000
  H   H798      1.0  0.41087  0.56076  0.10427  1.0000
  C   C478      1.0  0.40217  0.58821  0.00981  1.0000
  S   S157      1.0  0.26401  0.70658  0.11963  1.0000
  C   C479      1.0  0.45489  0.55766  0.46079  1.0000
  C   C480      1.0  0.42050  0.72486  0.67308  1.0000
  H   H799      1.0  0.43114  0.72000  0.73986  1.0000
  C   C481      1.0  0.43212  0.62163  0.21773  1.0000
  H   H800      1.0  0.40243  0.57891  0.08672  1.0000
  H   H801      1.0  0.39585  0.59009  0.99064  1.0000
  H   H802      1.0  0.39529  0.60203  0.03915  1.0000
  H   H803      1.0  0.40944  0.60903  0.00266  1.0000
  N   N35       1.0  0.39624  0.57540  0.03782  1.0000
  H   H804      1.0  0.37763  0.56567  0.99914  1.0000
  H   H805      1.0  0.28915  0.70313  0.84881  1.0000
  C   C482      1.0  0.47631  0.65724  0.75731  1.0000
  H   H806      1.0  0.39573  0.55356  0.09610  1.0000
  C   C483      1.0  0.40456  0.60034  0.02559  1.0000
  H   H807      1.0  0.46069  0.71983  0.89600  1.0000
  H   H808      1.0  0.47677  0.57373  0.14078  1.0000
  H   H809      1.0  0.41089  0.59982  0.04516  1.0000
  C   C484      1.0  0.38286  0.57569  0.05746  1.0000
  H   H810      1.0  0.37195  0.55516  0.06802  1.0000
  H   H811      1.0  0.44922  0.62205  0.49976  1.0000
  H   H812      1.0  0.47851  0.56364  0.41387  1.0000
  S   S158      1.0  0.26820  0.68234  0.05767  1.0000
  N   N36       1.0  0.46860  0.62676  0.46430  1.0000
  C   C485      1.0  0.44743  0.51855  0.18452  1.0000
  H   H813      1.0  0.26822  0.68021  0.96781  1.0000
  H   H814      1.0  0.44831  0.63982  0.31745  1.0000
  H   H815      1.0  0.42996  0.65607  0.25941  1.0000
  H   H816      1.0  0.26423  0.62330  0.91336  1.0000
  C   C486      1.0  0.46259  0.72345  0.26208  1.0000
  H   H817      1.0  0.40185  0.72379  0.80211  1.0000
  S   S159      1.0  0.48675  0.62491  0.69702  1.0000
  H   H818      1.0  0.28471  0.72362  0.80792  1.0000
  H   H819      1.0  0.48798  0.72925  0.19671  1.0000
  C   C487      1.0  0.36779  0.54170  0.52360  1.0000
  H   H820      1.0  0.47004  0.60024  0.47000  1.0000
  C   C488      1.0  0.26099  0.65788  0.04809  1.0000
  C   C489      1.0  0.27259  0.71955  0.93190  1.0000
  H   H821      1.0  0.28546  0.68154  0.98955  1.0000
  C   C490      1.0  0.47833  0.67981  0.17865  1.0000
  C   C491      1.0  0.46988  0.57654  0.65944  1.0000
  Fe  Fe81      1.0  0.26123  0.69957  0.06955  1.0000
  C   C492      1.0  0.32960  0.61248  0.97442  1.0000
  H   H822      1.0  0.48039  0.51074  0.14993  1.0000
  C   C493      1.0  0.31050  0.59399  0.00006  1.0000
  C   C494      1.0  0.47580  0.63030  0.49251  1.0000
  S   S160      1.0  0.26993  0.71931  0.03250  1.0000
  N   N37       1.0  0.47605  0.56691  0.64387  1.0000
  C   C495      1.0  0.24813  0.66410  0.73964  1.0000
  H   H823      1.0  0.29772  0.69557  0.89979  1.0000
  C   C496      1.0  0.28808  0.70167  0.95706  1.0000
  H   H824      1.0  0.28828  0.60113  0.99197  1.0000
  C   C497      1.0  0.45547  0.57153  0.68055  1.0000
  H   H825      1.0  0.28842  0.61579  0.96190  1.0000
  H   H826      1.0  0.45306  0.60546  0.44326  1.0000
  C   C498      1.0  0.27842  0.71098  0.90903  1.0000
  C   C499      1.0  0.28699  0.69170  0.90498  1.0000
  H   H827      1.0  0.44710  0.64720  0.15536  1.0000
  H   H828      1.0  0.44414  0.55383  0.46862  1.0000
  C   C500      1.0  0.42502  0.73825  0.68127  1.0000
  H   H829      1.0  0.46176  0.63599  0.41896  1.0000
  Fe  Fe82      1.0  0.27109  0.72682  0.08307  1.0000
  C   C501      1.0  0.49336  0.58314  0.58906  1.0000
  H   H830      1.0  0.45949  0.72640  0.28810  1.0000
  N   N38       1.0  0.46541  0.73483  0.22945  1.0000
  H   H831      1.0  0.46074  0.65326  0.21566  1.0000
  H   H832      1.0  0.45438  0.71553  0.26105  1.0000
  H   H833      1.0  0.31334  0.57733  0.03631  1.0000
  C   C502      1.0  0.24868  0.59047  0.87840  1.0000
  H   H834      1.0  0.38628  0.51599  0.58067  1.0000
  H   H835      1.0  0.27065  0.72768  0.91305  1.0000
  H   H836      1.0  0.45474  0.49865  0.23028  1.0000
  C   C503      1.0  0.49027  0.57344  0.62680  1.0000
  H   H837      1.0  0.49178  0.59104  0.16067  1.0000
  H   H838      1.0  0.39706  0.51703  0.53810  1.0000
  C   C504      1.0  0.38308  0.52858  0.53216  1.0000
  H   H839      1.0  0.48143  0.59470  0.21762  1.0000
  S   S161      1.0  0.45757  0.61084  0.65699  1.0000
  C   C505      1.0  0.47808  0.65006  0.42307  1.0000
  C   C506      1.0  0.25587  0.66004  0.76263  1.0000
  H   H840      1.0  0.46384  0.64891  0.15093  1.0000
  C   C507      1.0  0.46942  0.63754  0.51892  1.0000
  H   H841      1.0  0.48584  0.63628  0.47899  1.0000
  H   H842      1.0  0.27415  0.69067  0.86599  1.0000
  H   H843      1.0  0.47532  0.58070  0.67815  1.0000
  H   H844      1.0  0.28905  0.68649  0.85219  1.0000
  C   C508      1.0  0.38785  0.55024  0.54450  1.0000
  H   H845      1.0  0.36255  0.52311  0.58761  1.0000
  C   C509      1.0  0.44981  0.64523  0.28852  1.0000
  H   H846      1.0  0.44829  0.65498  0.28912  1.0000
  H   H847      1.0  0.33759  0.60807  0.96446  1.0000
  S   S162      1.0  0.25392  0.59211  0.94462  1.0000
  C   C510      1.0  0.44023  0.63749  0.27053  1.0000
  C   C511      1.0  0.28453  0.69313  0.86604  1.0000
  C   C512      1.0  0.25777  0.66978  0.04639  1.0000
  H   H848      1.0  0.38766  0.56983  0.51605  1.0000
  C   C513      1.0  0.45351  0.64614  0.20761  1.0000
  H   H849      1.0  0.46007  0.64614  0.27484  1.0000
  H   H850      1.0  0.45694  0.60931  0.50468  1.0000
  N   N39       1.0  0.49085  0.57898  0.21374  1.0000
  H   H851      1.0  0.44273  0.62805  0.27157  1.0000
  H   H852      1.0  0.24913  0.64142  0.84164  1.0000
  H   H853      1.0  0.48340  0.73483  0.88162  1.0000
  H   H854      1.0  0.38952  0.56843  0.56156  1.0000
  H   H855      1.0  0.29675  0.70992  0.94290  1.0000
  S   S163      1.0  0.25129  0.58726  0.05196  1.0000
  H   H856      1.0  0.48478  0.60421  0.43561  1.0000
  H   H857      1.0  0.47707  0.62152  0.51025  1.0000
  H   H858      1.0  0.31160  0.62273  0.94209  1.0000
  H   H859      1.0  0.48506  0.55372  0.59512  1.0000
  H   H860      1.0  0.33744  0.74515  0.20914  1.0000
  H   H861      1.0  0.43011  0.67242  0.20391  1.0000
  C   C514      1.0  0.43576  0.73063  0.73118  1.0000
  H   H862      1.0  0.37539  0.52027  0.53040  1.0000
  H   H863      1.0  0.37632  0.52979  0.60337  1.0000
  H   H864      1.0  0.43554  0.66260  0.17488  1.0000
  H   H865      1.0  0.34464  0.63066  0.95960  1.0000
  H   H866      1.0  0.39567  0.55206  0.51910  1.0000
  H   H867      1.0  0.41015  0.72059  0.74446  1.0000
  H   H868      1.0  0.32801  0.58969  0.01720  1.0000
  H   H869      1.0  0.46814  0.62569  0.28010  1.0000
  H   H870      1.0  0.48295  0.65397  0.44305  1.0000
  H   H871      1.0  0.43872  0.73325  0.75562  1.0000
  H   H872      1.0  0.25419  0.69448  0.91665  1.0000
  H   H873      1.0  0.43589  0.72214  0.88786  1.0000
  Fe  Fe83      1.0  0.25296  0.68687  0.78840  1.0000
  H   H874      1.0  0.44352  0.71985  0.94492  1.0000
  C   C515      1.0  0.37392  0.54719  0.48200  1.0000
  H   H875      1.0  0.47134  0.64941  0.78125  1.0000
  C   C516      1.0  0.43680  0.65677  0.23284  1.0000
  C   C517      1.0  0.29372  0.60807  0.96546  1.0000
  H   H876      1.0  0.39952  0.53036  0.55903  1.0000
  H   H877      1.0  0.43033  0.63514  0.28914  1.0000
  H   H878      1.0  0.32532  0.59350  0.93613  1.0000
  N   N40       1.0  0.31691  0.60552  0.96788  1.0000
  H   H879      1.0  0.42003  0.65672  0.20805  1.0000
  H   H880      1.0  0.44562  0.66445  0.23141  1.0000
  H   H881      1.0  0.42016  0.63327  0.24000  1.0000
  C   C518      1.0  0.32617  0.61071  0.89750  1.0000
  H   H882      1.0  0.30995  0.59496  0.92987  1.0000
  S   S164      1.0  0.46442  0.73715  0.78090  1.0000
  H   H883      1.0  0.32137  0.57940  0.98952  1.0000
  H   H884      1.0  0.29321  0.60334  0.94239  1.0000
  C   C519      1.0  0.46034  0.54553  0.46456  1.0000
  C   C520      1.0  0.42979  0.63502  0.22050  1.0000
  H   H885      1.0  0.45379  0.56329  0.70454  1.0000
  H   H886      1.0  0.43309  0.73636  0.23293  1.0000
  H   H887      1.0  0.33412  0.63028  0.92889  1.0000
  C   C521      1.0  0.44052  0.73080  0.23584  1.0000
  H   H888      1.0  0.28495  0.68113  0.91784  1.0000
  H   H889      1.0  0.45714  0.66226  0.15917  1.0000
  C   C522      1.0  0.39194  0.52278  0.55415  1.0000
  H   H890      1.0  0.47787  0.56037  0.24371  1.0000
  H   H891      1.0  0.48099  0.57596  0.29036  1.0000
  H   H892      1.0  0.48771  0.59053  0.58944  1.0000
  C   C523      1.0  0.43391  0.72860  0.90630  1.0000
  H   H893      1.0  0.45731  0.56257  0.48262  1.0000
  H   H894      1.0  0.25925  0.67965  0.91393  1.0000
  C   C524      1.0  0.28759  0.73385  0.80709  1.0000
  H   H895      1.0  0.47979  0.54818  0.66206  1.0000
  C   C525      1.0  0.45505  0.56019  0.39553  1.0000
  Fe  Fe84      1.0  0.25616  0.71601  0.78053  1.0000
  H   H896      1.0  0.47684  0.68417  0.15235  1.0000
  H   H897      1.0  0.48586  0.64522  0.72938  1.0000
  H   H898      1.0  0.46055  0.72106  0.19700  1.0000
  H   H899      1.0  0.46869  0.64711  0.50424  1.0000
  C   C526      1.0  0.47105  0.50141  0.67400  1.0000
  C   C527      1.0  0.46608  0.63855  0.44164  1.0000
  C   C528      1.0  0.44782  0.61112  0.45914  1.0000
  C   C529      1.0  0.48075  0.58468  0.23334  1.0000
  H   H900      1.0  0.48664  0.62763  0.42676  1.0000
  H   H901      1.0  0.42448  0.61649  0.20613  1.0000
  C   C530      1.0  0.45364  0.74035  0.23260  1.0000
  C   C531      1.0  0.49131  0.66486  0.69698  1.0000
  C   C532      1.0  0.29825  0.73877  0.82100  1.0000
  C   C533      1.0  0.48062  0.55773  0.70619  1.0000
  C   C534      1.0  0.45990  0.50594  0.15225  1.0000
  H   H902      1.0  0.49130  0.58507  0.37744  1.0000
  H   H903      1.0  0.43943  0.73398  0.95311  1.0000
  H   H904      1.0  0.27514  0.57057  0.79042  1.0000
  H   H905      1.0  0.26328  0.57613  0.81745  1.0000
  H   H906      1.0  0.34614  0.73470  0.16636  1.0000
  H   H907      1.0  0.31574  0.73676  0.11605  1.0000
  H   H908      1.0  0.46880  0.72783  0.94362  1.0000
  H   H909      1.0  0.43869  0.74016  0.81220  1.0000
  C   C535      1.0  0.25863  0.64794  0.76402  1.0000
  C   C536      1.0  0.34991  0.74401  0.14485  1.0000
  H   H910      1.0  0.27846  0.59223  0.82594  1.0000
  H   H911      1.0  0.40955  0.74076  0.79026  1.0000
  C   C537      1.0  0.44836  0.73233  0.70147  1.0000
  H   H912      1.0  0.35026  0.74095  0.11878  1.0000
  H   H913      1.0  0.49245  0.56430  0.25868  1.0000
  C   C538      1.0  0.48955  0.58054  0.17461  1.0000
  S   S165      1.0  0.49238  0.62159  0.27672  1.0000
  C   C539      1.0  0.46023  0.73889  0.97684  1.0000
  H   H914      1.0  0.46535  0.73739  0.17193  1.0000
  H   H915      1.0  0.43368  0.73816  0.89016  1.0000
  C   C540      1.0  0.46318  0.50194  0.64875  1.0000
  H   H916      1.0  0.47023  0.70890  0.29192  1.0000
  C   C541      1.0  0.49407  0.55594  0.21147  1.0000
  H   H917      1.0  0.43927  0.50368  0.15909  1.0000
  H   H918      1.0  0.49459  0.57890  0.64527  1.0000
  H   H919      1.0  0.45144  0.74143  0.67979  1.0000
  H   H920      1.0  0.40990  0.72065  0.68477  1.0000
  C   C542      1.0  0.32746  0.74624  0.14804  1.0000
  H   H921      1.0  0.45657  0.73223  0.71495  1.0000
  H   H922      1.0  0.47531  0.74486  0.92678  1.0000
  H   H923      1.0  0.37003  0.74289  0.13801  1.0000
  H   H924      1.0  0.48561  0.74211  0.23131  1.0000
  H   H925      1.0  0.48046  0.71958  0.17056  1.0000
  H   H926      1.0  0.24629  0.73306  0.91229  1.0000
  H   H927      1.0  0.24936  0.66583  0.14269  1.0000
  H   H928      1.0  0.49178  0.66962  0.15567  1.0000
  H   H929      1.0  0.48614  0.73659  0.15223  1.0000
  C   C543      1.0  0.24657  0.67147  0.03501  1.0000
  H   H930      1.0  0.24657  0.67737  0.16897  1.0000
  H   H931      1.0  0.24605  0.67349  0.73809  1.0000
  C   C544      1.0  0.46868  0.50037  0.26320  1.0000
  H   H932      1.0  0.44678  0.49810  0.81758  1.0000
  H   H933      1.0  0.46320  0.49700  0.81792  1.0000
  H   H934      1.0  0.31721  0.75526  0.94532  1.0000
  H   H935      1.0  0.29825  0.77063  0.80379  1.0000
  S   S166      1.0  0.48513  0.93778  0.28557  1.0000
  H   H936      1.0  0.31222  0.82924  0.27815  1.0000
  C   C545      1.0  0.31773  0.83508  0.25013  1.0000
  H   H937      1.0  0.36044  0.88397  0.78015  1.0000
  Fe  Fe85      1.0  0.42579  0.89885  0.26468  1.0000
  S   S167      1.0  0.40766  0.88325  0.29302  1.0000
  S   S168      1.0  0.44495  0.89384  0.25134  1.0000
  Fe  Fe86      1.0  0.41197  0.92033  0.25846  1.0000
  S   S169      1.0  0.39237  0.90634  0.28684  1.0000
  S   S170      1.0  0.41461  0.94201  0.23681  1.0000
  Fe  Fe87      1.0  0.40304  0.89750  0.32670  1.0000
  S   S171      1.0  0.39708  0.88916  0.38922  1.0000
  Fe  Fe88      1.0  0.39856  0.89317  0.25126  1.0000
  S   S172      1.0  0.38860  0.88463  0.21012  1.0000
  S   S173      1.0  0.42197  0.91237  0.30072  1.0000
  S   S174      1.0  0.41737  0.90792  0.22061  1.0000
  H   H938      1.0  0.45969  0.76491  0.92620  1.0000
  C   C546      1.0  0.48694  0.88028  0.70145  1.0000
  Fe  Fe89      1.0  0.41384  0.91820  0.64424  1.0000
  S   S175      1.0  0.42578  0.92063  0.58731  1.0000
  Fe  Fe90      1.0  0.40287  0.88858  0.65319  1.0000
  S   S176      1.0  0.41423  0.88904  0.59667  1.0000
  S   S177      1.0  0.39437  0.87023  0.69951  1.0000
  Fe  Fe91      1.0  0.43051  0.90213  0.61047  1.0000
  S   S178      1.0  0.45044  0.89886  0.60335  1.0000
  Fe  Fe92      1.0  0.40836  0.90748  0.57765  1.0000
  S   S179      1.0  0.40462  0.91589  0.52206  1.0000
  S   S180      1.0  0.41985  0.90055  0.66780  1.0000
  S   S181      1.0  0.39576  0.90623  0.63375  1.0000
  Fe  Fe93      1.0  0.35500  0.82079  0.14797  1.0000
  S   S182      1.0  0.37129  0.82275  0.09938  1.0000
  S   S183      1.0  0.35666  0.82966  0.19721  1.0000
  Fe  Fe94      1.0  0.33657  0.79886  0.12661  1.0000
  S   S184      1.0  0.35171  0.79912  0.07726  1.0000
  S   S185      1.0  0.31626  0.78499  0.14704  1.0000
  Fe  Fe95      1.0  0.36577  0.80105  0.11309  1.0000
  S   S186      1.0  0.38163  0.79059  0.11027  1.0000
  Fe  Fe96      1.0  0.35589  0.82073  0.06749  1.0000
  S   S187      1.0  0.36063  0.83161  0.00826  1.0000
  S   S188      1.0  0.35041  0.79892  0.16370  1.0000
  S   S189      1.0  0.33979  0.82063  0.11473  1.0000
  H   H939      1.0  0.42801  0.97107  0.11629  1.0000
  Fe  Fe97      1.0  0.33284  0.79996  0.86887  1.0000
  S   S190      1.0  0.32245  0.79706  0.82438  1.0000
  S   S191      1.0  0.32343  0.80560  0.91902  1.0000
  Fe  Fe98      1.0  0.35601  0.79141  0.83364  1.0000
  S   S192      1.0  0.34759  0.78757  0.78625  1.0000
  S   S193      1.0  0.37512  0.78717  0.83900  1.0000
  Fe  Fe99      1.0  0.34230  0.80656  0.78608  1.0000
  S   S194      1.0  0.34515  0.82216  0.73411  1.0000
  Fe  Fe100     1.0  0.32853  0.77836  0.82840  1.0000
  S   S195      1.0  0.31617  0.75778  0.83572  1.0000
  S   S196      1.0  0.35199  0.81093  0.83061  1.0000
  S   S197      1.0  0.33757  0.78069  0.87578  1.0000
  Fe  Fe101     1.0  0.44518  0.82407  0.15517  1.0000
  S   S198      1.0  0.45588  0.84501  0.13317  1.0000
  S   S199      1.0  0.42379  0.81918  0.18209  1.0000
  Fe  Fe102     1.0  0.46939  0.81472  0.13600  1.0000
  S   S200      1.0  0.48239  0.83522  0.11302  1.0000
  S   S201      1.0  0.47672  0.79663  0.13229  1.0000
  Fe  Fe103     1.0  0.47116  0.84042  0.16227  1.0000
  S   S202      1.0  0.47574  0.85386  0.20106  1.0000
  Fe  Fe104     1.0  0.46619  0.83850  0.08614  1.0000
  S   S203      1.0  0.46768  0.85002  0.02878  1.0000
  S   S204      1.0  0.45960  0.81954  0.18742  1.0000
  S   S205      1.0  0.45409  0.81794  0.10576  1.0000
  Fe  Fe105     1.0  0.46521  0.82293  0.85728  1.0000
  S   S206      1.0  0.44565  0.80936  0.86612  1.0000
  S   S207      1.0  0.47637  0.82079  0.90140  1.0000
  Fe  Fe106     1.0  0.46572  0.83691  0.77988  1.0000
  S   S208      1.0  0.44629  0.82382  0.78203  1.0000
  S   S209      1.0  0.47293  0.85489  0.73156  1.0000
  Fe  Fe107     1.0  0.44010  0.82674  0.83830  1.0000
  S   S210      1.0  0.42076  0.83130  0.85459  1.0000
  Fe  Fe108     1.0  0.45310  0.80702  0.80928  1.0000
  S   S211      1.0  0.44399  0.78663  0.80433  1.0000
  S   S212      1.0  0.45893  0.84068  0.83523  1.0000
  S   S213      1.0  0.47331  0.81974  0.80166  1.0000
  C   C547      1.0  0.32689  0.79158  0.66485  1.0000
  C   C548      1.0  0.45016  0.77292  0.80047  1.0000
  C   C549      1.0  0.46338  0.77397  0.78702  1.0000
  C   C550      1.0  0.46760  0.76290  0.78146  1.0000
  H   H940      1.0  0.40422  0.97076  0.49575  1.0000
  C   C551      1.0  0.44330  0.97404  0.17799  1.0000
  C   C552      1.0  0.44131  0.76064  0.80948  1.0000
  H   H941      1.0  0.47028  0.78337  0.77978  1.0000
  H   H942      1.0  0.47781  0.76386  0.77012  1.0000
  H   H943      1.0  0.28148  0.77837  0.94022  1.0000
  H   H944      1.0  0.43108  0.75973  0.82010  1.0000
  C   C553      1.0  0.47004  0.84185  0.99351  1.0000
  C   C554      1.0  0.46372  0.84382  0.96487  1.0000
  C   C555      1.0  0.46559  0.83743  0.93632  1.0000
  C   C556      1.0  0.47407  0.82932  0.93585  1.0000
  C   C557      1.0  0.48070  0.82771  0.96383  1.0000
  C   C558      1.0  0.47854  0.83379  0.99291  1.0000
  H   H945      1.0  0.45720  0.85013  0.96516  1.0000
  H   H946      1.0  0.46042  0.83872  0.91489  1.0000
  H   H947      1.0  0.44813  0.98965  0.00552  1.0000
  H   H948      1.0  0.48362  0.83243  0.01457  1.0000
  C   C559      1.0  0.46609  0.78140  0.13527  1.0000
  C   C560      1.0  0.47116  0.77182  0.12184  1.0000
  C   C561      1.0  0.46296  0.75968  0.12336  1.0000
  H   H949      1.0  0.48148  0.77389  0.10976  1.0000
  H   H950      1.0  0.48209  0.98484  0.20547  1.0000
  C   C562      1.0  0.38770  0.79977  0.84234  1.0000
  C   C563      1.0  0.38548  0.81157  0.84798  1.0000
  C   C564      1.0  0.39572  0.82135  0.85098  1.0000
  C   C565      1.0  0.40818  0.81932  0.84868  1.0000
  C   C566      1.0  0.41041  0.80757  0.84290  1.0000
  C   C567      1.0  0.40019  0.79781  0.83990  1.0000
  H   H951      1.0  0.37588  0.81311  0.85050  1.0000
  H   H952      1.0  0.39398  0.83045  0.85527  1.0000
  H   H953      1.0  0.41999  0.80591  0.84096  1.0000
  H   H954      1.0  0.40199  0.78872  0.83552  1.0000
  H   H955      1.0  0.44360  0.77022  0.70803  1.0000
  H   H956      1.0  0.30826  0.77434  0.98795  1.0000
  H   H957      1.0  0.39658  0.95968  0.47256  1.0000
  C   C568      1.0  0.30237  0.75210  0.81910  1.0000
  H   H958      1.0  0.49506  0.96682  0.24875  1.0000
  H   H959      1.0  0.44868  0.78586  0.16131  1.0000
  H   H960      1.0  0.42817  0.80147  0.01934  1.0000
  H   H961      1.0  0.34956  0.76012  0.19149  1.0000
  C   C569      1.0  0.47825  0.92800  0.52166  1.0000
  H   H962      1.0  0.42967  0.76947  0.06636  1.0000
  C   C570      1.0  0.39349  0.79838  0.13010  1.0000
  C   C571      1.0  0.39025  0.80618  0.15376  1.0000
  C   C572      1.0  0.39965  0.81247  0.16945  1.0000
  C   C573      1.0  0.41245  0.81128  0.16099  1.0000
  C   C574      1.0  0.41576  0.80355  0.13706  1.0000
  C   C575      1.0  0.40623  0.79699  0.12196  1.0000
  H   H963      1.0  0.38043  0.80722  0.16056  1.0000
  H   H964      1.0  0.39696  0.81831  0.18818  1.0000
  H   H965      1.0  0.42554  0.80236  0.13102  1.0000
  H   H966      1.0  0.40868  0.79087  0.10400  1.0000
  C   C576      1.0  0.35038  0.82408  0.98378  1.0000
  C   C577      1.0  0.35467  0.82600  0.94566  1.0000
  C   C578      1.0  0.34667  0.81985  0.92587  1.0000
  C   C579      1.0  0.33410  0.81229  0.94383  1.0000
  C   C580      1.0  0.32978  0.81049  0.98191  1.0000
  C   C581      1.0  0.33799  0.81615  0.00197  1.0000
  H   H967      1.0  0.36426  0.83208  0.93159  1.0000
  H   H968      1.0  0.35013  0.82118  0.89666  1.0000
  H   H969      1.0  0.32007  0.80466  0.99602  1.0000
  H   H970      1.0  0.33460  0.81465  0.03138  1.0000
  H   H971      1.0  0.39277  0.96487  0.56750  1.0000
  H   H972      1.0  0.38064  0.94479  0.60859  1.0000
  C   C582      1.0  0.30909  0.77330  0.12505  1.0000
  C   C583      1.0  0.31543  0.77207  0.09086  1.0000
  C   C584      1.0  0.30968  0.76226  0.07520  1.0000
  C   C585      1.0  0.43535  0.80819  0.02829  1.0000
  H   H973      1.0  0.32475  0.77867  0.07648  1.0000
  H   H974      1.0  0.31477  0.76130  0.04902  1.0000
  C   C586      1.0  0.38140  0.85652  0.70451  1.0000
  C   C587      1.0  0.38032  0.84521  0.73119  1.0000
  C   C588      1.0  0.36952  0.83450  0.73930  1.0000
  C   C589      1.0  0.35952  0.83500  0.72121  1.0000
  C   C590      1.0  0.36077  0.84613  0.69357  1.0000
  C   C591      1.0  0.37170  0.85686  0.68514  1.0000
  H   H975      1.0  0.38772  0.84479  0.74642  1.0000
  H   H976      1.0  0.36888  0.82592  0.75997  1.0000
  H   H977      1.0  0.35312  0.84658  0.67921  1.0000
  H   H978      1.0  0.37239  0.86551  0.66454  1.0000
  H   H979      1.0  0.47394  0.86763  0.82552  1.0000
  H   H980      1.0  0.49292  0.88793  0.26084  1.0000
  H   H981      1.0  0.31482  0.77746  0.93990  1.0000
  H   H982      1.0  0.48283  0.96727  0.67853  1.0000
  H   H983      1.0  0.48188  0.75582  0.17251  1.0000
  H   H984      1.0  0.44948  0.76705  0.89459  1.0000
  C   C592      1.0  0.29547  0.76045  0.80421  1.0000
  H   H985      1.0  0.42190  0.75664  0.71829  1.0000
  C   C593      1.0  0.29072  0.78771  0.97629  1.0000
  C   C594      1.0  0.47783  0.93059  0.63406  1.0000
  C   C595      1.0  0.48003  0.91823  0.63744  1.0000
  C   C596      1.0  0.47148  0.90838  0.62863  1.0000
  C   C597      1.0  0.46043  0.91076  0.61773  1.0000
  C   C598      1.0  0.45779  0.92288  0.61658  1.0000
  C   C599      1.0  0.46661  0.93287  0.62406  1.0000
  C   C600      1.0  0.44558  0.74954  0.80468  1.0000
  H   H986      1.0  0.47345  0.89894  0.63020  1.0000
  H   H987      1.0  0.44928  0.92479  0.60836  1.0000
  H   H988      1.0  0.46483  0.94240  0.62164  1.0000
  C   C601      1.0  0.37989  0.86914  0.20737  1.0000
  C   C602      1.0  0.37858  0.86721  0.17270  1.0000
  C   C603      1.0  0.37183  0.85512  0.16888  1.0000
  C   C604      1.0  0.36608  0.84484  0.19988  1.0000
  C   C605      1.0  0.36729  0.84679  0.23460  1.0000
  C   C606      1.0  0.37420  0.85883  0.23835  1.0000
  H   H989      1.0  0.38290  0.87513  0.14855  1.0000
  H   H990      1.0  0.37094  0.85383  0.14202  1.0000
  H   H991      1.0  0.36281  0.83894  0.25882  1.0000
  H   H992      1.0  0.37497  0.86021  0.26522  1.0000
  C   C607      1.0  0.39919  0.89684  0.42570  1.0000
  C   C608      1.0  0.39776  0.88909  0.46105  1.0000
  C   C609      1.0  0.39961  0.89472  0.49066  1.0000
  C   C610      1.0  0.40260  0.90821  0.48551  1.0000
  C   C611      1.0  0.40379  0.91596  0.45035  1.0000
  C   C612      1.0  0.40225  0.91034  0.42053  1.0000
  H   H993      1.0  0.39529  0.87863  0.46549  1.0000
  H   H994      1.0  0.39852  0.88860  0.51757  1.0000
  H   H995      1.0  0.39769  0.83283  0.29086  1.0000
  H   H996      1.0  0.40322  0.91644  0.39366  1.0000
  C   C613      1.0  0.42294  0.87671  0.19789  1.0000
  H   H997      1.0  0.42234  0.87574  0.16987  1.0000
  H   H998      1.0  0.46579  0.87999  0.19422  1.0000
  H   H999      1.0  0.33796  0.77250  0.67591  1.0000
  H   H1000     1.0  0.34214  0.76042  0.73154  1.0000
  C   C614      1.0  0.48942  0.86807  0.85428  1.0000
  C   C615      1.0  0.45246  0.75971  0.91355  1.0000
  C   C616      1.0  0.40354  0.96435  0.60900  1.0000
  C   C617      1.0  0.29102  0.75504  0.12708  1.0000
  H   H1001     1.0  0.47612  0.86989  0.25287  1.0000
  C   C618      1.0  0.33307  0.83995  0.81851  1.0000
  H   H1002     1.0  0.33904  0.85848  0.89965  1.0000
  H   H1003     1.0  0.40275  0.86148  0.18466  1.0000
  C   C619      1.0  0.47491  0.92625  0.27053  1.0000
  C   C620      1.0  0.46346  0.92861  0.26236  1.0000
  C   C621      1.0  0.45460  0.91886  0.25414  1.0000
  C   C622      1.0  0.45699  0.90666  0.25508  1.0000
  C   C623      1.0  0.46865  0.90445  0.26189  1.0000
  C   C624      1.0  0.47770  0.91433  0.26899  1.0000
  H   H1004     1.0  0.46132  0.93789  0.26295  1.0000
  H   H1005     1.0  0.44578  0.92071  0.24779  1.0000
  H   H1006     1.0  0.47048  0.89498  0.26299  1.0000
  H   H1007     1.0  0.48658  0.91249  0.27469  1.0000
  N   N41       1.0  0.39250  0.81004  0.96969  1.0000
  C   C625      1.0  0.38400  0.79923  0.95868  1.0000
  C   C626      1.0  0.40642  0.81019  0.95392  1.0000
  C   C627      1.0  0.38990  0.82261  0.95214  1.0000
  C   C628      1.0  0.38906  0.80763  0.01112  1.0000
  C   C629      1.0  0.36930  0.79839  0.96717  1.0000
  C   C630      1.0  0.41027  0.79746  0.96654  1.0000
  C   C631      1.0  0.39966  0.81391  0.02899  1.0000
  H   H1008     1.0  0.38719  0.79998  0.92856  1.0000
  H   H1009     1.0  0.38492  0.78959  0.97262  1.0000
  H   H1010     1.0  0.41348  0.81806  0.95957  1.0000
  H   H1011     1.0  0.40852  0.81239  0.92339  1.0000
  H   H1012     1.0  0.39156  0.82383  0.92192  1.0000
  H   H1013     1.0  0.37957  0.82255  0.96220  1.0000
  H   H1014     1.0  0.38015  0.81087  0.02067  1.0000
  H   H1015     1.0  0.38651  0.79702  0.02395  1.0000
  H   H1016     1.0  0.36545  0.79930  0.99535  1.0000
  H   H1017     1.0  0.36709  0.80585  0.94678  1.0000
  H   H1018     1.0  0.36391  0.78885  0.96454  1.0000
  H   H1019     1.0  0.40627  0.78999  0.95265  1.0000
  H   H1020     1.0  0.42102  0.79933  0.95829  1.0000
  H   H1021     1.0  0.40709  0.79355  0.99672  1.0000
  H   H1022     1.0  0.39489  0.81705  0.05298  1.0000
  H   H1023     1.0  0.40451  0.80661  0.04069  1.0000
  C   C632      1.0  0.29491  0.76035  0.92619  1.0000
  C   C633      1.0  0.28221  0.75667  0.91381  1.0000
  H   H1024     1.0  0.30251  0.76659  0.90158  1.0000
  H   H1025     1.0  0.33077  0.76330  0.23013  1.0000
  C   C634      1.0  0.36416  0.74969  0.14542  1.0000
  H   H1026     1.0  0.49455  0.87739  0.34046  1.0000
  H   H1027     1.0  0.30795  0.75024  0.99304  1.0000
  N   N42       1.0  0.44722  0.90763  0.38292  1.0000
  C   C635      1.0  0.46040  0.91727  0.37158  1.0000
  C   C636      1.0  0.43731  0.91533  0.37806  1.0000
  C   C637      1.0  0.44716  0.89882  0.35683  1.0000
  C   C638      1.0  0.44520  0.90010  0.42202  1.0000
  C   C639      1.0  0.47234  0.91154  0.37062  1.0000
  C   C640      1.0  0.43680  0.92560  0.40078  1.0000
  C   C641      1.0  0.43455  0.88825  0.36233  1.0000
  C   C642      1.0  0.43100  0.89353  0.44386  1.0000
  H   H1028     1.0  0.46179  0.92372  0.34391  1.0000
  H   H1029     1.0  0.46120  0.92384  0.39052  1.0000
  H   H1030     1.0  0.42732  0.90905  0.38440  1.0000
  H   H1031     1.0  0.43917  0.92054  0.34864  1.0000
  H   H1032     1.0  0.44946  0.90470  0.32812  1.0000
  H   H1033     1.0  0.45480  0.89345  0.35819  1.0000
  H   H1034     1.0  0.45062  0.89243  0.42279  1.0000
  H   H1035     1.0  0.44933  0.90664  0.43841  1.0000
  H   H1036     1.0  0.47158  0.90457  0.39673  1.0000
  H   H1037     1.0  0.47410  0.90695  0.34722  1.0000
  H   H1038     1.0  0.48116  0.91958  0.36608  1.0000
  H   H1039     1.0  0.43570  0.92149  0.43041  1.0000
  H   H1040     1.0  0.44543  0.93402  0.39011  1.0000
  H   H1041     1.0  0.42825  0.92951  0.39806  1.0000
  H   H1042     1.0  0.42594  0.89216  0.36148  1.0000
  H   H1043     1.0  0.43273  0.88064  0.38798  1.0000
  H   H1044     1.0  0.43568  0.88334  0.33935  1.0000
  H   H1045     1.0  0.43059  0.88397  0.46150  1.0000
  H   H1046     1.0  0.42395  0.89162  0.42703  1.0000
  H   H1047     1.0  0.42759  0.89926  0.46314  1.0000
  N   N43       1.0  0.45092  0.79299  0.02173  1.0000
  C   C643      1.0  0.46524  0.79394  0.00842  1.0000
  C   C644      1.0  0.44385  0.78575  0.99843  1.0000
  C   C645      1.0  0.44653  0.78553  0.06159  1.0000
  C   C646      1.0  0.44927  0.80661  0.01762  1.0000
  C   C647      1.0  0.47410  0.79855  0.03307  1.0000
  C   C648      1.0  0.44781  0.79203  0.95673  1.0000
  H   H1048     1.0  0.42968  0.77537  0.10681  1.0000
  H   H1049     1.0  0.46677  0.78434  0.00514  1.0000
  H   H1050     1.0  0.46931  0.80068  0.98073  1.0000
  H   H1051     1.0  0.43318  0.78432  0.00700  1.0000
  H   H1052     1.0  0.44528  0.77575  0.00225  1.0000
  H   H1053     1.0  0.45174  0.77777  0.06676  1.0000
  H   H1054     1.0  0.44911  0.79201  0.07988  1.0000
  H   H1055     1.0  0.45466  0.81176  0.03469  1.0000
  H   H1056     1.0  0.37872  0.93203  0.58415  1.0000
  H   H1057     1.0  0.45824  0.96030  0.65148  1.0000
  H   H1058     1.0  0.48442  0.80016  0.01849  1.0000
  H   H1059     1.0  0.45798  0.79220  0.94412  1.0000
  H   H1060     1.0  0.44153  0.78617  0.94288  1.0000
  H   H1061     1.0  0.44644  0.80198  0.95036  1.0000
  H   H1062     1.0  0.42865  0.96436  0.57621  1.0000
  H   H1063     1.0  0.43430  0.76432  0.16536  1.0000
  C   C649      1.0  0.28540  0.75801  0.99266  1.0000
  N   N44       1.0  0.43153  0.85991  0.70499  1.0000
  C   C650      1.0  0.43143  0.86966  0.72836  1.0000
  C   C651      1.0  0.41905  0.84936  0.72064  1.0000
  C   C652      1.0  0.43206  0.86686  0.66616  1.0000
  C   C653      1.0  0.44340  0.85484  0.70631  1.0000
  C   C654      1.0  0.41713  0.84148  0.76032  1.0000
  C   C655      1.0  0.42646  0.85860  0.64149  1.0000
  C   C656      1.0  0.44491  0.84382  0.68706  1.0000
  H   H1064     1.0  0.42220  0.87284  0.73077  1.0000
  H   H1065     1.0  0.43176  0.86527  0.75688  1.0000
  H   H1066     1.0  0.41791  0.84215  0.70379  1.0000
  H   H1067     1.0  0.41058  0.85361  0.71998  1.0000
  H   H1068     1.0  0.42655  0.87445  0.66634  1.0000
  H   H1069     1.0  0.44226  0.87212  0.65120  1.0000
  H   H1070     1.0  0.45241  0.86274  0.69310  1.0000
  H   H1071     1.0  0.44437  0.85179  0.73501  1.0000
  H   H1072     1.0  0.44335  0.88754  0.68667  1.0000
  H   H1073     1.0  0.42515  0.83682  0.76342  1.0000
  H   H1074     1.0  0.41584  0.84740  0.78072  1.0000
  H   H1075     1.0  0.40807  0.83352  0.76755  1.0000
  H   H1076     1.0  0.41567  0.85544  0.65039  1.0000
  H   H1077     1.0  0.43044  0.85007  0.64052  1.0000
  H   H1078     1.0  0.42894  0.86469  0.61294  1.0000
  H   H1079     1.0  0.44945  0.84777  0.65724  1.0000
  H   H1080     1.0  0.43573  0.83640  0.69128  1.0000
  H   H1081     1.0  0.45133  0.83845  0.69939  1.0000
  H   H1082     1.0  0.39867  0.94076  0.51873  1.0000
  H   H1083     1.0  0.47241  0.79110  0.05888  1.0000
  H   H1084     1.0  0.28842  0.82341  0.27546  1.0000
  H   H1085     1.0  0.33601  0.83097  0.26029  1.0000
  H   H1086     1.0  0.48809  0.84440  0.82720  1.0000
  H   H1087     1.0  0.43654  0.91211  0.74233  1.0000
  H   H1088     1.0  0.33020  0.81689  0.22475  1.0000
  H   H1089     1.0  0.35474  0.87250  0.83820  1.0000
  H   H1090     1.0  0.48432  0.96472  0.20306  1.0000
  H   H1091     1.0  0.29553  0.80989  0.27471  1.0000
  H   H1092     1.0  0.27470  0.74896  0.93529  1.0000
  N   N45       1.0  0.31541  0.82752  0.22180  1.0000
  H   H1093     1.0  0.37035  0.83703  0.83084  1.0000
  H   H1094     1.0  0.34432  0.86429  0.77546  1.0000
  C   C657      1.0  0.33201  0.83940  0.25216  1.0000
  H   H1095     1.0  0.31892  0.75834  0.67579  1.0000
  H   H1096     1.0  0.45764  0.97311  0.03529  1.0000
  H   H1097     1.0  0.40755  0.85646  0.27962  1.0000
  H   H1098     1.0  0.33257  0.84502  0.27347  1.0000
  H   H1099     1.0  0.49170  0.92176  0.10546  1.0000
  H   H1100     1.0  0.40689  0.96354  0.11242  1.0000
  H   H1101     1.0  0.45345  0.88372  0.17092  1.0000
  H   H1102     1.0  0.27986  0.76214  0.77737  1.0000
  H   H1103     1.0  0.30061  0.79187  0.97917  1.0000
  N   N46       1.0  0.40468  0.95165  0.55742  1.0000
  C   C658      1.0  0.39774  0.83513  0.95874  1.0000
  C   C659      1.0  0.44277  0.88209  0.71488  1.0000
  H   H1104     1.0  0.48294  0.96840  0.72397  1.0000
  C   C660      1.0  0.30121  0.82496  0.22171  1.0000
  H   H1105     1.0  0.40838  0.83667  0.94902  1.0000
  H   H1106     1.0  0.45391  0.81269  0.98944  1.0000
  H   H1107     1.0  0.39519  0.84352  0.94278  1.0000
  H   H1108     1.0  0.29774  0.75107  0.93300  1.0000
  H   H1109     1.0  0.45226  0.87995  0.71637  1.0000
  H   H1110     1.0  0.41381  0.87825  0.21291  1.0000
  C   C661      1.0  0.35439  0.86360  0.77597  1.0000
  H   H1111     1.0  0.39499  0.83547  0.98798  1.0000
  H   H1112     1.0  0.40704  0.82258  0.01127  1.0000
  H   H1113     1.0  0.36861  0.75914  0.12515  1.0000
  H   H1114     1.0  0.44114  0.88870  0.73314  1.0000
  S   S214      1.0  0.48904  0.94327  0.64186  1.0000
  H   H1115     1.0  0.32050  0.82989  0.16281  1.0000
  H   H1116     1.0  0.35605  0.85871  0.89186  1.0000
  H   H1117     1.0  0.33381  0.83552  0.18092  1.0000
  C   C662      1.0  0.41895  0.95271  0.54324  1.0000
  H   H1118     1.0  0.44346  0.75452  0.93479  1.0000
  C   C663      1.0  0.45273  0.77863  0.15070  1.0000
  H   H1119     1.0  0.32844  0.85330  0.14296  1.0000
  N   N47       1.0  0.29447  0.76687  0.95778  1.0000
  H   H1120     1.0  0.29807  0.78585  0.92145  1.0000
  C   C664      1.0  0.42768  0.95465  0.57019  1.0000
  C   C665      1.0  0.44961  0.75689  0.13903  1.0000
  H   H1121     1.0  0.34804  0.83605  0.84440  1.0000
  H   H1122     1.0  0.44424  0.76147  0.67303  1.0000
  H   H1123     1.0  0.28287  0.81105  0.25223  1.0000
  C   C666      1.0  0.33309  0.76380  0.73394  1.0000
  H   H1124     1.0  0.40969  0.97868  0.08175  1.0000
  C   C667      1.0  0.43198  0.77843  0.07637  1.0000
  H   H1125     1.0  0.47330  0.91848  0.51767  1.0000
  H   H1126     1.0  0.37366  0.86651  0.81881  1.0000
  C   C668      1.0  0.29104  0.77962  0.94714  1.0000
  H   H1127     1.0  0.48833  0.91625  0.64688  1.0000
  H   H1128     1.0  0.43055  0.88577  0.19422  1.0000
  H   H1129     1.0  0.47923  0.89842  0.19796  1.0000
  H   H1130     1.0  0.41120  0.96471  0.06361  1.0000
  H   H1131     1.0  0.43222  0.80718  0.05837  1.0000
  H   H1132     1.0  0.43515  0.81804  0.01382  1.0000
  H   H1133     1.0  0.42298  0.96959  0.20592  1.0000
  C   C669      1.0  0.31459  0.80456  0.21131  1.0000
  C   C670      1.0  0.32330  0.83500  0.18380  1.0000
  N   N48       1.0  0.49282  0.93064  0.50836  1.0000
  C   C671      1.0  0.48473  0.87007  0.81834  1.0000
  H   H1134     1.0  0.45659  0.74768  0.97597  1.0000
  C   C672      1.0  0.43838  0.98366  0.02217  1.0000
  C   C673      1.0  0.48832  0.86663  0.20563  1.0000
  C   C674      1.0  0.46756  0.90938  0.15173  1.0000
  C   C675      1.0  0.45860  0.94826  0.78693  1.0000
  H   H1135     1.0  0.49555  0.92358  0.15778  1.0000
  H   H1136     1.0  0.33116  0.76624  0.76090  1.0000
  C   C676      1.0  0.45839  0.75101  0.89133  1.0000
  C   C677      1.0  0.45872  0.75067  0.78987  1.0000
  H   H1137     1.0  0.45436  0.95672  0.78744  1.0000
  H   H1138     1.0  0.30320  0.77655  0.70488  1.0000
  H   H1139     1.0  0.34385  0.84503  0.88867  1.0000
  H   H1140     1.0  0.27837  0.76511  0.90482  1.0000
  H   H1141     1.0  0.47567  0.92708  0.55176  1.0000
  H   H1142     1.0  0.31940  0.79654  0.21693  1.0000
  H   H1143     1.0  0.42438  0.94699  0.59607  1.0000
  H   H1144     1.0  0.40802  0.97454  0.60902  1.0000
  C   C678      1.0  0.42941  0.75157  0.72504  1.0000
  H   H1145     1.0  0.44292  0.92017  0.79567  1.0000
  C   C679      1.0  0.48721  0.86789  0.72029  1.0000
  H   H1146     1.0  0.32876  0.82931  0.82467  1.0000
  S   S215      1.0  0.45193  0.99408  0.87383  1.0000
  C   C680      1.0  0.31141  0.76388  0.67629  1.0000
  H   H1147     1.0  0.26750  0.76087  0.97330  1.0000
  H   H1148     1.0  0.46011  0.95052  0.72908  1.0000
  H   H1149     1.0  0.45416  0.94126  0.81391  1.0000
  H   H1150     1.0  0.42976  0.86806  0.24355  1.0000
  H   H1151     1.0  0.33020  0.74793  0.08816  1.0000
  H   H1152     1.0  0.46201  0.93335  0.50239  1.0000
  H   H1153     1.0  0.47293  0.76356  0.20293  1.0000
  H   H1154     1.0  0.49106  0.98697  0.24024  1.0000
  H   H1155     1.0  0.43806  0.97361  0.01914  1.0000
  H   H1156     1.0  0.40329  0.93947  0.61127  1.0000
  H   H1157     1.0  0.48743  0.82161  0.96327  1.0000
  H   H1158     1.0  0.31637  0.81050  0.26125  1.0000
  H   H1159     1.0  0.46622  0.97635  0.06917  1.0000
  H   H1160     1.0  0.43038  0.96325  0.08068  1.0000
  H   H1161     1.0  0.49484  0.92511  0.56418  1.0000
  C   C681      1.0  0.31140  0.77188  0.70555  1.0000
  H   H1162     1.0  0.32521  0.75546  0.73376  1.0000
  C   C682      1.0  0.47171  0.93835  0.50510  1.0000
  C   C683      1.0  0.39884  0.93942  0.58762  1.0000
  C   C684      1.0  0.42747  0.97195  0.08708  1.0000
  C   C685      1.0  0.28497  0.75558  0.78963  1.0000
  H   H1163     1.0  0.45427  0.75118  0.86687  1.0000
  C   C686      1.0  0.27072  0.75738  0.99822  1.0000
  H   H1164     1.0  0.31991  0.78089  0.75956  1.0000
  H   H1165     1.0  0.43479  0.92843  0.73025  1.0000
  H   H1166     1.0  0.45684  0.99445  0.05436  1.0000
  H   H1167     1.0  0.26509  0.74712  0.00982  1.0000
  C   C687      1.0  0.42701  0.86526  0.21894  1.0000
  H   H1168     1.0  0.40040  0.85987  0.24268  1.0000
  H   H1169     1.0  0.36648  0.84452  0.86857  1.0000
  H   H1170     1.0  0.47704  0.94454  0.47770  1.0000
  H   H1171     1.0  0.33924  0.86398  0.83796  1.0000
  H   H1172     1.0  0.45487  0.74838  0.20821  1.0000
  C   C688      1.0  0.44459  0.76640  0.15290  1.0000
  C   C689      1.0  0.30805  0.77001  0.96385  1.0000
  H   H1173     1.0  0.47802  0.88179  0.69477  1.0000
  C   C690      1.0  0.42871  0.98850  0.00162  1.0000
  H   H1174     1.0  0.43612  0.86489  0.20053  1.0000
  N   N49       1.0  0.35490  0.85625  0.81329  1.0000
  C   C691      1.0  0.38399  0.93625  0.60304  1.0000
  H   H1175     1.0  0.32113  0.75310  0.14824  1.0000
  C   C692      1.0  0.48741  0.91172  0.10429  1.0000
  H   H1176     1.0  0.48543  0.94728  0.17353  1.0000
  H   H1177     1.0  0.38254  0.84895  0.83983  1.0000
  H   H1178     1.0  0.43871  0.92017  0.69550  1.0000
  H   H1179     1.0  0.45097  0.96469  0.08352  1.0000
  C   C693      1.0  0.32234  0.78823  0.73294  1.0000
  C   C694      1.0  0.40515  0.85280  0.25579  1.0000
  C   C695      1.0  0.33516  0.77564  0.70173  1.0000
  N   N50       1.0  0.32392  0.78183  0.70126  1.0000
  H   H1180     1.0  0.46972  0.94455  0.52441  1.0000
  H   H1181     1.0  0.46874  0.75640  0.87919  1.0000
  H   H1182     1.0  0.28424  0.75250  0.88957  1.0000
  C   C696      1.0  0.47329  0.89031  0.13533  1.0000
  C   C697      1.0  0.44834  0.95836  0.66743  1.0000
  H   H1183     1.0  0.26759  0.76258  0.01931  1.0000
  H   H1184     1.0  0.32583  0.85535  0.18861  1.0000
  H   H1185     1.0  0.31389  0.84386  0.24590  1.0000
  H   H1186     1.0  0.30990  0.79989  0.70913  1.0000
  H   H1187     1.0  0.30229  0.78933  0.75376  1.0000
  N   N51       1.0  0.41736  0.85215  0.23029  1.0000
  H   H1188     1.0  0.42368  0.84493  0.27926  1.0000
  H   H1189     1.0  0.43801  0.84131  0.20523  1.0000
  H   H1190     1.0  0.41295  0.95134  0.72418  1.0000
  H   H1191     1.0  0.47305  0.80779  0.03987  1.0000
  N   N52       1.0  0.47882  0.90361  0.14079  1.0000
  C   C698      1.0  0.47083  0.92319  0.15767  1.0000
  C   C699      1.0  0.33016  0.76220  0.20215  1.0000
  C   C700      1.0  0.37206  0.84622  0.83996  1.0000
  H   H1192     1.0  0.37360  0.87801  0.75804  1.0000
  S   S216      1.0  0.46953  0.97905  0.14374  1.0000
  C   C701      1.0  0.34879  0.86247  0.84179  1.0000
  C   C702      1.0  0.31164  0.79570  0.73589  1.0000
  H   H1193     1.0  0.33027  0.78726  0.64175  1.0000
  H   H1194     1.0  0.44434  0.98437  0.16997  1.0000
  H   H1195     1.0  0.34399  0.78283  0.70271  1.0000
  H   H1196     1.0  0.33166  0.79485  0.73318  1.0000
  H   H1197     1.0  0.34396  0.76948  0.06668  1.0000
  H   H1198     1.0  0.42025  0.94394  0.53327  1.0000
  C   C703      1.0  0.42326  0.84275  0.25209  1.0000
  C   C704      1.0  0.39461  0.83986  0.27143  1.0000
  C   C705      1.0  0.40495  0.85263  0.17799  1.0000
  H   H1199     1.0  0.43958  0.93693  0.20942  1.0000
  C   C706      1.0  0.45264  0.95561  0.18043  1.0000
  H   H1200     1.0  0.49152  0.97104  0.15586  1.0000
  C   C707      1.0  0.36310  0.87763  0.76200  1.0000
  H   H1201     1.0  0.31799  0.79431  0.65923  1.0000
  C   C708      1.0  0.41474  0.84730  0.19729  1.0000
  C   C709      1.0  0.43710  0.84226  0.23384  1.0000
  H   H1202     1.0  0.42396  0.84907  0.17613  1.0000
  H   H1203     1.0  0.40884  0.85496  0.14774  1.0000
  H   H1204     1.0  0.39174  0.83540  0.24946  1.0000
  S   S217      1.0  0.46979  0.98470  0.78734  1.0000
  H   H1205     1.0  0.36038  0.77385  0.07110  1.0000
  C   C710      1.0  0.45405  0.96903  0.16890  1.0000
  H   H1206     1.0  0.31470  0.80410  0.74773  1.0000
  H   H1207     1.0  0.30396  0.80023  0.22133  1.0000
  H   H1208     1.0  0.46164  0.92629  0.16372  1.0000
  H   H1209     1.0  0.31705  0.80835  0.18112  1.0000
  S   S218      1.0  0.45853  0.97728  0.70034  1.0000
  H   H1210     1.0  0.38575  0.84173  0.28728  1.0000
  H   H1211     1.0  0.39566  0.84506  0.18390  1.0000
  H   H1212     1.0  0.44458  0.85088  0.23456  1.0000
  H   H1213     1.0  0.41714  0.83262  0.25824  1.0000
  H   H1214     1.0  0.43943  0.83362  0.24930  1.0000
  H   H1215     1.0  0.47841  0.91800  0.71565  1.0000
  C   C711      1.0  0.34597  0.76597  0.12364  1.0000
  H   H1216     1.0  0.49211  0.98897  0.66607  1.0000
  H   H1217     1.0  0.36176  0.88186  0.73451  1.0000
  C   C712      1.0  0.44553  0.96548  0.69383  1.0000
  H   H1218     1.0  0.35225  0.83819  0.79649  1.0000
  H   H1219     1.0  0.48894  0.87699  0.86426  1.0000
  H   H1220     1.0  0.48246  0.90444  0.55018  1.0000
  N   N53       1.0  0.34095  0.75279  0.15019  1.0000
  C   C713      1.0  0.36904  0.85715  0.81328  1.0000
  H   H1221     1.0  0.34653  0.80240  0.66587  1.0000
  H   H1222     1.0  0.41072  0.83660  0.20548  1.0000
  C   C714      1.0  0.33735  0.80424  0.66013  1.0000
  H   H1223     1.0  0.33382  0.81039  0.67784  1.0000
  H   H1224     1.0  0.33832  0.77141  0.12530  1.0000
  H   H1225     1.0  0.28670  0.79606  0.96726  1.0000
  C   C715      1.0  0.46276  0.88086  0.16794  1.0000
  H   H1226     1.0  0.45863  0.93557  0.69371  1.0000
  C   C716      1.0  0.43270  0.96280  0.71438  1.0000
  C   C717      1.0  0.32220  0.84903  0.17125  1.0000
  H   H1227     1.0  0.40592  0.92640  0.44608  1.0000
  H   H1228     1.0  0.43036  0.96814  0.73483  1.0000
  H   H1229     1.0  0.49501  0.96217  0.69994  1.0000
  H   H1230     1.0  0.39369  0.96185  0.62766  1.0000
  C   C718      1.0  0.45525  0.92690  0.71740  1.0000
  H   H1231     1.0  0.43763  0.95422  0.55721  1.0000
  H   H1232     1.0  0.48154  0.91284  0.08343  1.0000
  H   H1233     1.0  0.37469  0.85721  0.78564  1.0000
  C   C719      1.0  0.31432  0.75852  0.97079  1.0000
  C   C720      1.0  0.41308  0.96971  0.08555  1.0000
  H   H1234     1.0  0.46918  0.95205  0.78366  1.0000
  H   H1235     1.0  0.46158  0.90938  0.13103  1.0000
  H   H1236     1.0  0.38121  0.92876  0.62946  1.0000
  C   C721      1.0  0.48078  0.92257  0.73782  1.0000
  H   H1237     1.0  0.33159  0.84408  0.79119  1.0000
  C   C722      1.0  0.29685  0.76477  0.14294  1.0000
  C   C723      1.0  0.40263  0.96371  0.56934  1.0000
  C   C724      1.0  0.44048  0.92163  0.72229  1.0000
  H   H1238     1.0  0.33968  0.81003  0.63128  1.0000
  C   C725      1.0  0.34703  0.85573  0.88249  1.0000
  H   H1239     1.0  0.48107  0.88516  0.12960  1.0000
  H   H1240     1.0  0.28817  0.76101  0.01695  1.0000
  H   H1241     1.0  0.45732  0.90451  0.75658  1.0000
  H   H1242     1.0  0.42939  0.75160  0.75410  1.0000
  H   H1243     1.0  0.44087  0.94335  0.64126  1.0000
  N   N54       1.0  0.45947  0.93034  0.75050  1.0000
  H   H1244     1.0  0.47842  0.94161  0.71782  1.0000
  C   C726      1.0  0.35089  0.76647  0.08243  1.0000
  H   H1245     1.0  0.45985  0.91966  0.70737  1.0000
  H   H1246     1.0  0.48201  0.85991  0.87489  1.0000
  H   H1247     1.0  0.42339  0.96113  0.51922  1.0000
  C   C727      1.0  0.45312  0.90578  0.78396  1.0000
  H   H1248     1.0  0.28452  0.78207  0.00356  1.0000
  S   S219      1.0  0.41280  0.93417  0.67543  1.0000
  H   H1249     1.0  0.32757  0.84359  0.84012  1.0000
  C   C728      1.0  0.47412  0.93356  0.74293  1.0000
  C   C729      1.0  0.45322  0.91997  0.78550  1.0000
  H   H1250     1.0  0.44299  0.89957  0.79324  1.0000
  H   H1251     1.0  0.35399  0.77214  0.13181  1.0000
  C   C730      1.0  0.34002  0.75469  0.18872  1.0000
  H   H1252     1.0  0.45860  0.90176  0.80320  1.0000
  C   C731      1.0  0.34760  0.84233  0.81845  1.0000
  H   H1253     1.0  0.29183  0.76563  0.16938  1.0000
  H   H1254     1.0  0.31217  0.84945  0.16990  1.0000
  H   H1255     1.0  0.44483  0.94128  0.75782  1.0000
  C   C732      1.0  0.45547  0.94264  0.75451  1.0000
  H   H1256     1.0  0.29836  0.83425  0.21532  1.0000
  H   H1257     1.0  0.46900  0.89110  0.11094  1.0000
  H   H1258     1.0  0.32341  0.76180  0.97952  1.0000
  H   H1259     1.0  0.47756  0.93712  0.76561  1.0000
  H   H1260     1.0  0.40946  0.95842  0.62131  1.0000
  C   C733      1.0  0.45635  0.97410  0.06402  1.0000
  C   C734      1.0  0.39813  0.95007  0.52640  1.0000
  H   H1261     1.0  0.46083  0.87102  0.16256  1.0000
  C   C735      1.0  0.44280  0.76035  0.70306  1.0000
  C   C736      1.0  0.43851  0.94872  0.66157  1.0000
  C   C737      1.0  0.42284  0.95325  0.70825  1.0000
  C   C738      1.0  0.31943  0.81501  0.23121  1.0000
  H   H1262     1.0  0.45807  0.92207  0.80767  1.0000
  H   H1263     1.0  0.30856  0.76494  0.73293  1.0000
  C   C739      1.0  0.29156  0.81693  0.25823  1.0000
  C   C740      1.0  0.42984  0.95222  0.21028  1.0000
  C   C741      1.0  0.48613  0.90204  0.17050  1.0000
  H   H1264     1.0  0.38758  0.94949  0.53506  1.0000
  H   H1265     1.0  0.41844  0.98379  0.01601  1.0000
  C   C742      1.0  0.29746  0.75367  0.09318  1.0000
  H   H1266     1.0  0.46090  0.95165  0.17367  1.0000
  H   H1267     1.0  0.46095  0.90341  0.17820  1.0000
  H   H1268     1.0  0.29909  0.82037  0.19908  1.0000
  C   C743      1.0  0.40342  0.96095  0.49066  1.0000
  H   H1269     1.0  0.33835  0.84583  0.22597  1.0000
  C   C744      1.0  0.42566  0.94611  0.68193  1.0000
  H   H1270     1.0  0.47485  0.92340  0.18220  1.0000
  Fe  Fe109     1.0  0.46236  0.99131  0.73766  1.0000
  H   H1271     1.0  0.41290  0.96030  0.47493  1.0000
  H   H1272     1.0  0.35721  0.85833  0.75466  1.0000
  C   C745      1.0  0.43123  0.96565  0.19854  1.0000
  C   C746      1.0  0.44058  0.94724  0.20085  1.0000
  H   H1273     1.0  0.42544  0.78451  0.06935  1.0000
  H   H1274     1.0  0.40094  0.93091  0.57771  1.0000
  H   H1275     1.0  0.40964  0.97251  0.55020  1.0000
  H   H1276     1.0  0.33241  0.77212  0.18448  1.0000
  C   C747      1.0  0.48567  0.87292  0.23426  1.0000
  N   N55       1.0  0.43675  0.98418  0.06209  1.0000
  H   H1277     1.0  0.31263  0.77006  0.64850  1.0000
  H   H1278     1.0  0.45078  0.75692  0.71295  1.0000
  H   H1279     1.0  0.48776  0.88043  0.80312  1.0000
  H   H1280     1.0  0.47731  0.93045  0.13313  1.0000
  C   C748      1.0  0.44988  0.98512  0.07076  1.0000
  H   H1281     1.0  0.46697  0.75251  0.11226  1.0000
  C   C749      1.0  0.49125  0.99004  0.21073  1.0000
  H   H1282     1.0  0.28645  0.74791  0.99530  1.0000
  H   H1283     1.0  0.43036  0.98629  0.97410  1.0000
  H   H1284     1.0  0.44936  0.98523  0.09999  1.0000
  H   H1285     1.0  0.49147  0.92679  0.72956  1.0000
  C   C750      1.0  0.48944  0.96955  0.69663  1.0000
  H   H1286     1.0  0.31997  0.75701  0.20434  1.0000
  H   H1287     1.0  0.48992  0.86234  0.92626  1.0000
  H   H1288     1.0  0.42153  0.98940  0.12628  1.0000
  H   H1289     1.0  0.47885  0.91515  0.76387  1.0000
  H   H1290     1.0  0.35258  0.75738  0.07622  1.0000
  H   H1291     1.0  0.49139  0.91599  0.47681  1.0000
  H   H1292     1.0  0.30183  0.75666  0.68312  1.0000
  H   H1293     1.0  0.28165  0.74849  0.14132  1.0000
  H   H1294     1.0  0.48799  0.94774  0.55317  1.0000
  H   H1295     1.0  0.47445  0.74828  0.25778  1.0000
  C   C751      1.0  0.48032  0.75787  0.20009  1.0000
  H   H1296     1.0  0.49140  0.89440  0.16771  1.0000
  H   H1297     1.0  0.48283  0.93190  0.44101  1.0000
  C   C752      1.0  0.49318  0.90793  0.54450  1.0000
  H   H1298     1.0  0.48957  0.76427  0.20149  1.0000
  H   H1299     1.0  0.36512  0.75073  0.17314  1.0000
  H   H1300     1.0  0.48757  0.86393  0.80001  1.0000
  H   H1301     1.0  0.47095  0.99273  0.91839  1.0000
  C   C753      1.0  0.49344  0.93377  0.43874  1.0000
  H   H1302     1.0  0.49461  0.97830  0.61739  1.0000
  C   C754      1.0  0.49520  0.88318  0.23889  1.0000
  C   C755      1.0  0.49347  0.96619  0.18180  1.0000
  H   H1303     1.0  0.49555  0.84588  0.88279  1.0000
  H   H1304     1.0  0.49535  0.89781  0.07748  1.0000
  C   C756      1.0  0.49464  0.95255  0.17838  1.0000
  C   C757      1.0  0.43271  0.99625  0.06819  1.0000
  C   C758      1.0  0.61667  0.20458  0.63047  1.0000
  H   H1305     1.0  0.60809  0.21739  0.83491  1.0000
  C   C759      1.0  0.60101  0.04232  0.91455  1.0000
  S   S220      1.0  0.60857  0.05043  0.00959  1.0000
  C   C760      1.0  0.58766  0.03634  0.92446  1.0000
  H   H1306     1.0  0.59616  0.11446  0.50417  1.0000
  C   C761      1.0  0.67833  0.22959  0.92215  1.0000
  Fe  Fe110     1.0  0.59359  0.04650  0.75063  1.0000
  S   S221      1.0  0.58142  0.05133  0.79824  1.0000
  S   S222      1.0  0.60587  0.06185  0.69943  1.0000
  Fe  Fe111     1.0  0.56475  0.03918  0.78378  1.0000
  S   S223      1.0  0.54672  0.04578  0.78051  1.0000
  S   S224      1.0  0.57648  0.03558  0.73392  1.0000
  Fe  Fe112     1.0  0.57354  0.05342  0.11174  1.0000
  S   S225      1.0  0.55395  0.05705  0.11252  1.0000
  Fe  Fe113     1.0  0.59898  0.06490  0.13099  1.0000
  S   S226      1.0  0.60355  0.08212  0.15788  1.0000
  S   S227      1.0  0.59172  0.06821  0.07920  1.0000
  Fe  Fe114     1.0  0.52980  0.09563  0.22827  1.0000
  S   S228      1.0  0.55055  0.10590  0.19921  1.0000
  S   S229      1.0  0.52272  0.07687  0.21004  1.0000
  Fe  Fe115     1.0  0.53043  0.11322  0.28315  1.0000
  S   S230      1.0  0.55107  0.12468  0.25660  1.0000
  S   S231      1.0  0.52006  0.11766  0.33539  1.0000
  Fe  Fe116     1.0  0.54554  0.12469  0.20304  1.0000
  S   S232      1.0  0.55478  0.14044  0.14995  1.0000
  Fe  Fe117     1.0  0.55436  0.10513  0.25465  1.0000
  S   S233      1.0  0.57225  0.09956  0.26554  1.0000
  S   S234      1.0  0.52430  0.11462  0.22901  1.0000
  S   S235      1.0  0.53423  0.09359  0.28426  1.0000
  Fe  Fe118     1.0  0.64541  0.13376  0.24538  1.0000
  S   S236      1.0  0.63371  0.12937  0.30374  1.0000
  S   S237      1.0  0.64695  0.11780  0.21407  1.0000
  Fe  Fe119     1.0  0.65407  0.16318  0.24146  1.0000
  S   S238      1.0  0.64281  0.16077  0.29956  1.0000
  S   S239      1.0  0.66117  0.18416  0.20719  1.0000
  Fe  Fe120     1.0  0.65035  0.14324  0.31440  1.0000
  S   S240      1.0  0.65612  0.13671  0.36819  1.0000
  Fe  Fe121     1.0  0.62719  0.14722  0.28484  1.0000
  S   S241      1.0  0.60638  0.14779  0.30093  1.0000
  S   S242      1.0  0.66295  0.14646  0.25702  1.0000
  S   S243      1.0  0.63756  0.15070  0.22591  1.0000
  Fe  Fe122     1.0  0.52707  0.10982  0.60925  1.0000
  S   S244      1.0  0.53995  0.10162  0.57196  1.0000
  S   S245      1.0  0.50671  0.09828  0.64256  1.0000
  Fe  Fe123     1.0  0.54636  0.13696  0.58738  1.0000
  S   S246      1.0  0.56028  0.13049  0.54744  1.0000
  S   S247      1.0  0.55316  0.15843  0.58875  1.0000
  Fe  Fe124     1.0  0.54318  0.12024  0.52951  1.0000
  S   S248      1.0  0.54718  0.11854  0.46971  1.0000
  Fe  Fe125     1.0  0.55592  0.11251  0.59211  1.0000
  S   S249      1.0  0.57272  0.10460  0.60278  1.0000
  S   S250      1.0  0.52932  0.12814  0.56560  1.0000
  S   S251      1.0  0.54290  0.11927  0.63350  1.0000
  Fe  Fe126     1.0  0.65060  0.13213  0.63577  1.0000
  S   S252      1.0  0.63786  0.13524  0.59668  1.0000
  S   S253      1.0  0.65227  0.11263  0.66602  1.0000
  Fe  Fe127     1.0  0.65738  0.16089  0.64051  1.0000
  S   S254      1.0  0.64496  0.16596  0.60190  1.0000
  S   S255      1.0  0.66322  0.17256  0.68164  1.0000
  Fe  Fe128     1.0  0.63056  0.14739  0.63287  1.0000
  S   S256      1.0  0.60983  0.14755  0.65069  1.0000
  Fe  Fe129     1.0  0.65336  0.15352  0.56753  1.0000
  S   S257      1.0  0.65621  0.16216  0.50593  1.0000
  S   S258      1.0  0.64199  0.14301  0.67382  1.0000
  S   S259      1.0  0.66710  0.14966  0.60427  1.0000
  Fe  Fe130     1.0  0.59756  0.21467  0.08700  1.0000
  C   C762      1.0  0.58754  0.20738  0.92000  1.0000
  S   S260      1.0  0.58366  0.19946  0.13664  1.0000
  S   S261      1.0  0.64410  0.22352  0.08794  1.0000
  S   S262      1.0  0.61459  0.20949  0.05519  1.0000
  S   S263      1.0  0.57027  0.18754  0.71040  1.0000
  S   S264      1.0  0.59548  0.20055  0.75752  1.0000
  C   C763      1.0  0.58671  0.04025  0.98593  1.0000
  C   C764      1.0  0.55759  0.04878  0.25975  1.0000
  C   C765      1.0  0.60014  0.04577  0.97656  1.0000
  Fe  Fe131     1.0  0.61308  0.22398  0.00676  1.0000
  C   C766      1.0  0.62028  0.02215  0.63770  1.0000
  Fe  Fe132     1.0  0.62650  0.22656  0.06857  1.0000
  S   S265      1.0  0.58008  0.05094  0.16396  1.0000
  H   H1307     1.0  0.66730  0.13459  0.75267  1.0000
  H   H1308     1.0  0.66482  0.20617  0.97443  1.0000
  C   C767      1.0  0.65447  0.23141  0.71635  1.0000
  H   H1309     1.0  0.70479  0.16552  0.60504  1.0000
  H   H1310     1.0  0.65851  0.22982  0.68989  1.0000
  C   C768      1.0  0.65774  0.23677  0.07436  1.0000
  H   H1311     1.0  0.51725  0.07692  0.04532  1.0000
  H   H1312     1.0  0.55412  0.04595  0.88936  1.0000
  H   H1313     1.0  0.54147  0.05110  0.32651  1.0000
  H   H1314     1.0  0.54416  0.11326  0.10277  1.0000
  C   C769      1.0  0.66862  0.23578  0.08829  1.0000
  H   H1315     1.0  0.56466  0.04743  0.23645  1.0000
  C   C770      1.0  0.73307  0.24519  0.93549  1.0000
  H   H1316     1.0  0.57707  0.12486  0.16986  1.0000
  H   H1317     1.0  0.59292  0.21003  0.97020  1.0000
  H   H1318     1.0  0.57750  0.20252  0.93359  1.0000
  C   C771      1.0  0.67548  0.18607  0.68340  1.0000
  C   C772      1.0  0.68544  0.19331  0.65282  1.0000
  C   C773      1.0  0.69468  0.20718  0.69016  1.0000
  C   C774      1.0  0.68470  0.19993  0.72067  1.0000
  C   C775      1.0  0.67532  0.18934  0.71737  1.0000
  H   H1319     1.0  0.68579  0.19091  0.62652  1.0000
  H   H1320     1.0  0.68441  0.20231  0.74699  1.0000
  H   H1321     1.0  0.66799  0.18353  0.74147  1.0000
  C   C776      1.0  0.55836  0.16620  0.62271  1.0000
  C   C777      1.0  0.56386  0.17973  0.61305  1.0000
  C   C778      1.0  0.56769  0.18641  0.63917  1.0000
  C   C779      1.0  0.56590  0.17967  0.67567  1.0000
  C   C780      1.0  0.56051  0.16613  0.68523  1.0000
  C   C781      1.0  0.55687  0.15943  0.65899  1.0000
  H   H1322     1.0  0.56502  0.18512  0.58518  1.0000
  H   H1323     1.0  0.57173  0.19680  0.63123  1.0000
  H   H1324     1.0  0.55909  0.16077  0.71327  1.0000
  H   H1325     1.0  0.55267  0.14905  0.66703  1.0000
  C   C782      1.0  0.58322  0.11652  0.61559  1.0000
  C   C783      1.0  0.57959  0.12780  0.62052  1.0000
  C   C784      1.0  0.58770  0.13718  0.63205  1.0000
  C   C785      1.0  0.59955  0.13538  0.63823  1.0000
  C   C786      1.0  0.60319  0.12404  0.63365  1.0000
  C   C787      1.0  0.59504  0.11462  0.62213  1.0000
  H   H1326     1.0  0.57051  0.12938  0.61556  1.0000
  H   H1327     1.0  0.58482  0.14592  0.63570  1.0000
  H   H1328     1.0  0.61215  0.12243  0.63956  1.0000
  H   H1329     1.0  0.59779  0.10582  0.61881  1.0000
  C   C788      1.0  0.67677  0.19485  0.18574  1.0000
  C   C789      1.0  0.67757  0.20781  0.16891  1.0000
  C   C790      1.0  0.68972  0.21688  0.15336  1.0000
  C   C791      1.0  0.70124  0.21310  0.15476  1.0000
  C   C792      1.0  0.70042  0.20007  0.17080  1.0000
  C   C793      1.0  0.68826  0.19095  0.18599  1.0000
  H   H1330     1.0  0.66874  0.21092  0.16833  1.0000
  H   H1331     1.0  0.69019  0.22687  0.14116  1.0000
  C   C794      1.0  0.64095  0.22828  0.73005  1.0000
  H   H1332     1.0  0.68781  0.18097  0.19820  1.0000
  C   C795      1.0  0.65511  0.14358  0.40705  1.0000
  C   C796      1.0  0.65296  0.15591  0.40572  1.0000
  C   C797      1.0  0.65324  0.16139  0.43632  1.0000
  C   C798      1.0  0.65530  0.15448  0.46898  1.0000
  C   C799      1.0  0.65696  0.14196  0.47077  1.0000
  C   C800      1.0  0.65702  0.13663  0.43983  1.0000
  H   H1333     1.0  0.65137  0.16133  0.38084  1.0000
  H   H1334     1.0  0.65191  0.17107  0.43465  1.0000
  H   H1335     1.0  0.65861  0.13655  0.49557  1.0000
  H   H1336     1.0  0.65872  0.12709  0.44117  1.0000
  C   C801      1.0  0.56281  0.15681  0.14676  1.0000
  C   C802      1.0  0.56931  0.16503  0.11199  1.0000
  C   C803      1.0  0.57595  0.17803  0.10838  1.0000
  C   C804      1.0  0.57599  0.18300  0.13955  1.0000
  C   C805      1.0  0.56965  0.17471  0.17437  1.0000
  C   C806      1.0  0.56317  0.16167  0.17798  1.0000
  H   H1337     1.0  0.56911  0.16137  0.08764  1.0000
  H   H1338     1.0  0.58075  0.18430  0.08142  1.0000
  H   H1339     1.0  0.56962  0.17848  0.19860  1.0000
  H   H1340     1.0  0.55825  0.15540  0.20473  1.0000
  C   C807      1.0  0.52724  0.11731  0.37357  1.0000
  C   C808      1.0  0.52144  0.12120  0.40444  1.0000
  C   C809      1.0  0.52725  0.12147  0.43448  1.0000
  C   C810      1.0  0.53896  0.11789  0.43382  1.0000
  C   C811      1.0  0.54477  0.11410  0.40282  1.0000
  C   C812      1.0  0.53893  0.11375  0.37300  1.0000
  H   H1341     1.0  0.51246  0.12413  0.40495  1.0000
  H   H1342     1.0  0.52284  0.12473  0.45767  1.0000
  H   H1343     1.0  0.55388  0.11142  0.40184  1.0000
  H   H1344     1.0  0.54349  0.11073  0.34950  1.0000
  C   C813      1.0  0.58161  0.11226  0.27860  1.0000
  C   C814      1.0  0.59511  0.11543  0.26629  1.0000
  C   C815      1.0  0.60277  0.12617  0.27394  1.0000
  C   C816      1.0  0.59689  0.13374  0.29417  1.0000
  C   C817      1.0  0.58339  0.13034  0.30755  1.0000
  C   C818      1.0  0.57573  0.11960  0.29969  1.0000
  H   H1345     1.0  0.59957  0.10978  0.24991  1.0000
  H   H1346     1.0  0.61318  0.12877  0.26331  1.0000
  H   H1347     1.0  0.57890  0.13596  0.32410  1.0000
  H   H1348     1.0  0.56531  0.11693  0.31028  1.0000
  C   C819      1.0  0.61621  0.09235  0.17077  1.0000
  C   C820      1.0  0.62890  0.09081  0.16611  1.0000
  C   C821      1.0  0.63828  0.09883  0.17880  1.0000
  C   C822      1.0  0.63516  0.10856  0.19594  1.0000
  C   C823      1.0  0.62261  0.11031  0.19958  1.0000
  C   C824      1.0  0.61317  0.10214  0.18762  1.0000
  H   H1349     1.0  0.63145  0.08334  0.15325  1.0000
  H   H1350     1.0  0.64798  0.09741  0.17559  1.0000
  H   H1351     1.0  0.62020  0.11788  0.21209  1.0000
  H   H1352     1.0  0.60337  0.10330  0.19182  1.0000
  C   C825      1.0  0.61788  0.07642  0.69378  1.0000
  C   C826      1.0  0.62646  0.07762  0.71673  1.0000
  C   C827      1.0  0.63686  0.08884  0.70835  1.0000
  C   C828      1.0  0.63851  0.09911  0.67770  1.0000
  C   C829      1.0  0.62959  0.09809  0.65567  1.0000
  C   C830      1.0  0.61949  0.08671  0.66331  1.0000
  H   H1353     1.0  0.62543  0.06971  0.74003  1.0000
  H   H1354     1.0  0.64373  0.08951  0.72545  1.0000
  H   H1355     1.0  0.63080  0.10583  0.63182  1.0000
  H   H1356     1.0  0.61299  0.08584  0.64517  1.0000
  H   H1357     1.0  0.60662  0.04303  0.88725  1.0000
  H   H1358     1.0  0.61760  0.05114  0.93300  1.0000
  H   H1359     1.0  0.58107  0.03945  0.01325  1.0000
  C   C831      1.0  0.57123  0.24422  0.89722  1.0000
  C   C832      1.0  0.51178  0.05657  0.18277  1.0000
  C   C833      1.0  0.51076  0.06856  0.19043  1.0000
  Fe  Fe133     1.0  0.50035  0.01810  0.06142  1.0000
  C   C834      1.0  0.58057  0.03537  0.96027  1.0000
  H   H1360     1.0  0.55207  0.00686  0.96029  1.0000
  H   H1361     1.0  0.51954  0.05250  0.18940  1.0000
  H   H1362     1.0  0.54685  0.11397  0.99438  1.0000
  S   S266      1.0  0.57943  0.03620  0.09679  1.0000
  C   C835      1.0  0.53060  0.03052  0.05630  1.0000
  C   C836      1.0  0.54419  0.03315  0.04724  1.0000
  C   C837      1.0  0.55149  0.04149  0.06398  1.0000
  C   C838      1.0  0.54518  0.04697  0.09020  1.0000
  C   C839      1.0  0.53165  0.04446  0.09872  1.0000
  C   C840      1.0  0.52439  0.03643  0.08143  1.0000
  H   H1363     1.0  0.54906  0.02879  0.02733  1.0000
  H   H1364     1.0  0.56196  0.04381  0.05617  1.0000
  H   H1365     1.0  0.52675  0.04865  0.11896  1.0000
  H   H1366     1.0  0.51396  0.03481  0.08773  1.0000
  H   H1367     1.0  0.59370  0.10800  0.13760  1.0000
  H   H1368     1.0  0.67837  0.16216  0.72439  1.0000
  C   C841      1.0  0.50333  0.07116  0.66682  1.0000
  H   H1369     1.0  0.49838  0.07702  0.79132  1.0000
  C   C842      1.0  0.56794  0.22977  0.91751  1.0000
  C   C843      1.0  0.62374  0.18650  0.66184  1.0000
  C   C844      1.0  0.56570  0.05392  0.28565  1.0000
  H   H1370     1.0  0.51373  0.07271  0.65723  1.0000
  H   H1371     1.0  0.69247  0.15074  0.62078  1.0000
  H   H1372     1.0  0.60528  0.18583  0.56265  1.0000
  C   C845      1.0  0.51800  0.01193  0.76283  1.0000
  C   C846      1.0  0.51482  0.02382  0.76205  1.0000
  C   C847      1.0  0.52379  0.03441  0.76646  1.0000
  C   C848      1.0  0.53600  0.03314  0.77094  1.0000
  C   C849      1.0  0.53943  0.02151  0.76935  1.0000
  C   C850      1.0  0.53042  0.01088  0.76560  1.0000
  H   H1373     1.0  0.62665  0.02963  0.69786  1.0000
  H   H1374     1.0  0.52129  0.04353  0.76649  1.0000
  H   H1375     1.0  0.54895  0.02054  0.77154  1.0000
  H   H1376     1.0  0.55515  0.05502  0.18959  1.0000
  N   N56       1.0  0.57525  0.08691  0.72957  1.0000
  C   C851      1.0  0.58986  0.09027  0.71551  1.0000
  C   C852      1.0  0.56977  0.07421  0.72078  1.0000
  C   C853      1.0  0.57239  0.08504  0.77073  1.0000
  C   C854      1.0  0.57015  0.09789  0.71208  1.0000
  C   C855      1.0  0.59760  0.10254  0.72398  1.0000
  C   C856      1.0  0.57395  0.07375  0.68019  1.0000
  C   C857      1.0  0.55796  0.08138  0.79130  1.0000
  C   C858      1.0  0.55619  0.09444  0.70660  1.0000
  H   H1377     1.0  0.59379  0.08202  0.72652  1.0000
  H   H1378     1.0  0.59264  0.09195  0.68507  1.0000
  H   H1379     1.0  0.55899  0.07141  0.72859  1.0000
  H   H1380     1.0  0.57265  0.06615  0.73730  1.0000
  H   H1381     1.0  0.57687  0.07747  0.78316  1.0000
  H   H1382     1.0  0.57680  0.09406  0.77827  1.0000
  H   H1383     1.0  0.57071  0.10556  0.72777  1.0000
  H   H1384     1.0  0.57639  0.10289  0.68439  1.0000
  H   H1385     1.0  0.59810  0.10081  0.75319  1.0000
  H   H1386     1.0  0.60781  0.10507  0.70744  1.0000
  H   H1387     1.0  0.59369  0.11108  0.71653  1.0000
  H   H1388     1.0  0.58384  0.07212  0.67394  1.0000
  H   H1389     1.0  0.56721  0.06545  0.67501  1.0000
  H   H1390     1.0  0.57385  0.08274  0.66090  1.0000
  H   H1391     1.0  0.55363  0.08973  0.78584  1.0000
  H   H1392     1.0  0.55727  0.07890  0.82132  1.0000
  H   H1393     1.0  0.55214  0.07276  0.78515  1.0000
  H   H1394     1.0  0.55558  0.08906  0.68483  1.0000
  H   H1395     1.0  0.55345  0.10359  0.69698  1.0000
  H   H1396     1.0  0.54883  0.08885  0.73197  1.0000
  H   H1397     1.0  0.53721  0.17756  0.32395  1.0000
  H   H1398     1.0  0.53514  0.14711  0.34573  1.0000
  H   H1399     1.0  0.58466  0.23216  0.84281  1.0000
  H   H1400     1.0  0.59226  0.02413  0.04489  1.0000
  H   H1401     1.0  0.59612  0.02048  0.62005  1.0000
  S   S267      1.0  0.62049  0.22295  0.94824  1.0000
  H   H1402     1.0  0.50548  0.02486  0.75814  1.0000
  H   H1403     1.0  0.56967  0.23920  0.79680  1.0000
  H   H1404     1.0  0.50395  0.04067  0.16006  1.0000
  H   H1405     1.0  0.56150  0.24346  0.83552  1.0000
  H   H1406     1.0  0.59099  0.15150  0.06689  1.0000
  H   H1407     1.0  0.59664  0.13738  0.07283  1.0000
  H   H1408     1.0  0.61433  0.03785  0.70742  1.0000
  H   H1409     1.0  0.58453  0.11668  0.11152  1.0000
  C   C859      1.0  0.51783  0.01136  0.87236  1.0000
  C   C860      1.0  0.60722  0.04688  0.94061  1.0000
  H   H1410     1.0  0.60944  0.04325  0.62698  1.0000
  C   C861      1.0  0.58982  0.14217  0.08685  1.0000
  H   H1411     1.0  0.69005  0.15425  0.33820  1.0000
  H   H1412     1.0  0.58206  0.08653  0.33130  1.0000
  S   S268      1.0  0.58056  0.20452  0.85643  1.0000
  Fe  Fe134     1.0  0.60862  0.24414  0.05110  1.0000
  C   C862      1.0  0.54610  0.05329  0.21110  1.0000
  H   H1413     1.0  0.58168  0.11971  0.51325  1.0000
  N   N57       1.0  0.53282  0.02185  0.91039  1.0000
  C   C863      1.0  0.54471  0.01961  0.92319  1.0000
  C   C864      1.0  0.53744  0.03330  0.87748  1.0000
  H   H1414     1.0  0.51305  0.03480  0.90684  1.0000
  C   C865      1.0  0.54443  0.04622  0.88425  1.0000
  H   H1415     1.0  0.53083  0.11786  0.08618  1.0000
  H   H1416     1.0  0.67326  0.23910  0.72591  1.0000
  H   H1417     1.0  0.70596  0.14292  0.75827  1.0000
  H   H1418     1.0  0.52944  0.03532  0.86497  1.0000
  H   H1419     1.0  0.54424  0.03108  0.85520  1.0000
  H   H1420     1.0  0.61795  0.00435  0.70089  1.0000
  H   H1421     1.0  0.61696  0.03099  0.58433  1.0000
  C   C866      1.0  0.58185  0.24144  0.83554  1.0000
  C   C867      1.0  0.53749  0.09699  0.03947  1.0000
  H   H1422     1.0  0.52093  0.07541  0.50707  1.0000
  N   N58       1.0  0.60028  0.00803  0.06165  1.0000
  H   H1423     1.0  0.55455  0.08575  0.07165  1.0000
  H   H1424     1.0  0.66991  0.23564  0.87576  1.0000
  H   H1425     1.0  0.51175  0.10370  0.55802  1.0000
  C   C868      1.0  0.60726  0.21044  0.61107  1.0000
  H   H1426     1.0  0.62636  0.20865  0.61085  1.0000
  H   H1427     1.0  0.64105  0.20311  0.64179  1.0000
  H   H1428     1.0  0.59716  0.20768  0.62815  1.0000
  H   H1429     1.0  0.61051  0.22119  0.60554  1.0000
  N   N59       1.0  0.61337  0.13869  0.50385  1.0000
  C   C869      1.0  0.61749  0.15282  0.50448  1.0000
  C   C870      1.0  0.61914  0.13746  0.46586  1.0000
  C   C871      1.0  0.61921  0.13123  0.53098  1.0000
  C   C872      1.0  0.59867  0.13425  0.51459  1.0000
  C   C873      1.0  0.61377  0.15597  0.54229  1.0000
  C   C874      1.0  0.61626  0.14657  0.43385  1.0000
  C   C875      1.0  0.61682  0.11654  0.53429  1.0000
  C   C876      1.0  0.59220  0.12304  0.49929  1.0000
  H   H1430     1.0  0.62823  0.15667  0.49400  1.0000
  H   H1431     1.0  0.61312  0.15886  0.48589  1.0000
  H   H1432     1.0  0.61594  0.12743  0.46276  1.0000
  H   H1433     1.0  0.62990  0.13938  0.46087  1.0000
  H   H1434     1.0  0.62995  0.13538  0.52442  1.0000
  H   H1435     1.0  0.61539  0.13213  0.55922  1.0000
  H   H1436     1.0  0.59508  0.13124  0.54501  1.0000
  H   H1437     1.0  0.59424  0.14237  0.50601  1.0000
  H   H1438     1.0  0.62005  0.15299  0.56042  1.0000
  H   H1439     1.0  0.61542  0.16664  0.53831  1.0000
  H   H1440     1.0  0.60340  0.15151  0.55643  1.0000
  H   H1441     1.0  0.61851  0.14308  0.40841  1.0000
  H   H1442     1.0  0.60594  0.14695  0.43928  1.0000
  H   H1443     1.0  0.62261  0.15654  0.42816  1.0000
  H   H1444     1.0  0.60652  0.11143  0.54766  1.0000
  H   H1445     1.0  0.62262  0.11265  0.55274  1.0000
  H   H1446     1.0  0.62000  0.11411  0.50772  1.0000
  H   H1447     1.0  0.59284  0.12627  0.46950  1.0000
  H   H1448     1.0  0.60752  0.20814  0.58397  1.0000
  C   C877      1.0  0.59624  0.21163  0.94072  1.0000
  H   H1449     1.0  0.61721  0.20878  0.65473  1.0000
  Fe  Fe135     1.0  0.58189  0.20597  0.72265  1.0000
  H   H1450     1.0  0.62109  0.01279  0.05755  1.0000
  H   H1451     1.0  0.62717  0.07473  0.26383  1.0000
  S   S269      1.0  0.60983  0.23118  0.10337  1.0000
  Fe  Fe136     1.0  0.59833  0.05076  0.06741  1.0000
  H   H1452     1.0  0.57009  0.15633  0.35177  1.0000
  H   H1453     1.0  0.65182  0.22236  0.95687  1.0000
  S   S270      1.0  0.63059  0.22186  0.70402  1.0000
  C   C878      1.0  0.65868  0.22436  0.97447  1.0000
  C   C879      1.0  0.59176  0.20953  0.88176  1.0000
  C   C880      1.0  0.54920  0.09139  0.08776  1.0000
  H   H1454     1.0  0.64042  0.10386  0.29733  1.0000
  H   H1455     1.0  0.65360  0.24026  0.90844  1.0000
  H   H1456     1.0  0.53621  0.00796  0.98035  1.0000
  Fe  Fe137     1.0  0.58710  0.21185  0.79484  1.0000
  Fe  Fe138     1.0  0.58274  0.03246  0.83222  1.0000
  C   C881      1.0  0.62210  0.06241  0.33398  1.0000
  H   H1457     1.0  0.54733  0.11727  0.03801  1.0000
  H   H1458     1.0  0.58144  0.13420  0.21795  1.0000
  C   C882      1.0  0.62506  0.03082  0.59813  1.0000
  Fe  Fe139     1.0  0.60926  0.21964  0.72671  1.0000
  C   C883      1.0  0.55527  0.17105  0.31849  1.0000
  H   H1459     1.0  0.63204  0.02671  0.58166  1.0000
  H   H1460     1.0  0.50876  0.07734  0.09079  1.0000
  H   H1461     1.0  0.62279  0.18984  0.58666  1.0000
  S   S271      1.0  0.56497  0.02061  0.82058  1.0000
  S   S272      1.0  0.59615  0.02809  0.78515  1.0000
  S   S273      1.0  0.60727  0.04841  0.11671  1.0000
  C   C884      1.0  0.70050  0.15689  0.62855  1.0000
  H   H1462     1.0  0.51984  0.01525  0.96456  1.0000
  H   H1463     1.0  0.61876  0.15197  0.08933  1.0000
  C   C885      1.0  0.52768  0.09670  0.10424  1.0000
  S   S274      1.0  0.57957  0.02878  0.89478  1.0000
  H   H1464     1.0  0.64126  0.19984  0.71177  1.0000
  H   H1465     1.0  0.60517  0.13408  0.19506  1.0000
  H   H1466     1.0  0.60812  0.15010  0.16798  1.0000
  C   C886      1.0  0.63014  0.04784  0.66043  1.0000
  H   H1467     1.0  0.64012  0.19182  0.61238  1.0000
  H   H1468     1.0  0.62556  0.22740  0.77597  1.0000
  Fe  Fe140     1.0  0.57793  0.01764  0.77125  1.0000
  H   H1469     1.0  0.52437  0.09054  0.13280  1.0000
  C   C887      1.0  0.58932  0.14315  0.20466  1.0000
  H   H1470     1.0  0.62536  0.14851  0.12949  1.0000
  S   S275      1.0  0.57275  0.21641  0.76244  1.0000
  Fe  Fe141     1.0  0.58759  0.03485  0.14651  1.0000
  H   H1471     1.0  0.65122  0.20401  0.74194  1.0000
  C   C888      1.0  0.60072  0.14065  0.17818  1.0000
  H   H1472     1.0  0.58527  0.15079  0.19097  1.0000
  C   C889      1.0  0.67968  0.24624  0.07787  1.0000
  H   H1473     1.0  0.54359  0.07620  0.13999  1.0000
  H   H1474     1.0  0.57116  0.01301  0.04086  1.0000
  H   H1475     1.0  0.51633  0.10442  0.51080  1.0000
  H   H1476     1.0  0.70928  0.19704  0.17163  1.0000
  C   C890      1.0  0.64385  0.19606  0.73768  1.0000
  C   C891      1.0  0.62121  0.14437  0.10864  1.0000
  H   H1477     1.0  0.61286  0.12546  0.14528  1.0000
  H   H1478     1.0  0.59300  0.14673  0.22699  1.0000
  H   H1479     1.0  0.62910  0.14119  0.09240  1.0000
  H   H1480     1.0  0.70655  0.16563  0.73362  1.0000
  H   H1481     1.0  0.69924  0.19434  0.34102  1.0000
  C   C892      1.0  0.63810  0.19274  0.64116  1.0000
  N   N60       1.0  0.55553  0.15712  0.31992  1.0000
  H   H1482     1.0  0.59930  0.15498  0.11629  1.0000
  H   H1483     1.0  0.62944  0.02408  0.99520  1.0000
  H   H1484     1.0  0.57025  0.03075  0.96832  1.0000
  C   C893      1.0  0.56875  0.07556  0.20614  1.0000
  H   H1485     1.0  0.62575  0.19855  0.76574  1.0000
  H   H1486     1.0  0.64832  0.18807  0.73286  1.0000
  N   N61       1.0  0.59737  0.13519  0.14668  1.0000
  C   C894      1.0  0.60952  0.13248  0.12640  1.0000
  H   H1487     1.0  0.58810  0.11744  0.18936  1.0000
  S   S276      1.0  0.59659  0.22455  0.68876  1.0000
  C   C895      1.0  0.60476  0.21577  0.86430  1.0000
  C   C896      1.0  0.60926  0.21773  0.92327  1.0000
  H   H1488     1.0  0.53846  0.03752  0.18758  1.0000
  H   H1489     1.0  0.59475  0.18713  0.60274  1.0000
  C   C897      1.0  0.63146  0.19119  0.76947  1.0000
  H   H1490     1.0  0.62543  0.18236  0.76449  1.0000
  C   C898      1.0  0.61130  0.06980  0.33520  1.0000
  C   C899      1.0  0.51718  0.01072  0.65898  1.0000
  C   C900      1.0  0.58675  0.12273  0.16285  1.0000
  C   C901      1.0  0.59269  0.14507  0.12281  1.0000
  H   H1491     1.0  0.60776  0.12764  0.10415  1.0000
  S   S277      1.0  0.60216  0.23041  0.76739  1.0000
  H   H1492     1.0  0.63436  0.05351  0.67857  1.0000
  H   H1493     1.0  0.58343  0.14627  0.13819  1.0000
  N   N62       1.0  0.69034  0.15114  0.69885  1.0000
  C   C902      1.0  0.52928  0.07658  0.08622  1.0000
  H   H1494     1.0  0.64443  0.18777  0.65524  1.0000
  N   N63       1.0  0.61363  0.18996  0.64215  1.0000
  C   C903      1.0  0.61428  0.18405  0.60935  1.0000
  C   C904      1.0  0.55551  0.07130  0.23460  1.0000
  H   H1495     1.0  0.60057  0.18068  0.84157  1.0000
  H   H1496     1.0  0.61098  0.19610  0.81721  1.0000
  H   H1497     1.0  0.67826  0.15823  0.31453  1.0000
  H   H1498     1.0  0.61488  0.01256  0.63508  1.0000
  C   C905      1.0  0.60216  0.18217  0.59301  1.0000
  H   H1499     1.0  0.61729  0.09604  0.32675  1.0000
  C   C906      1.0  0.68492  0.16190  0.33111  1.0000
  H   H1500     1.0  0.67919  0.16281  0.35721  1.0000
  H   H1501     1.0  0.68295  0.17904  0.38693  1.0000
  H   H1502     1.0  0.66999  0.18130  0.36469  1.0000
  C   C907      1.0  0.58545  0.11264  0.13941  1.0000
  S   S278      1.0  0.69132  0.22448  0.79201  1.0000
  C   C908      1.0  0.60997  0.18758  0.83968  1.0000
  H   H1503     1.0  0.63119  0.20761  0.81275  1.0000
  H   H1504     1.0  0.61726  0.17173  0.82557  1.0000
  H   H1505     1.0  0.65002  0.16431  0.79916  1.0000
  C   C909      1.0  0.67939  0.18615  0.36900  1.0000
  H   H1506     1.0  0.67706  0.19344  0.38426  1.0000
  S   S279      1.0  0.59491  0.22809  0.03684  1.0000
  H   H1507     1.0  0.57653  0.10472  0.15299  1.0000
  H   H1508     1.0  0.57965  0.13629  0.09185  1.0000
  H   H1509     1.0  0.54621  0.05403  0.85897  1.0000
  H   H1510     1.0  0.59369  0.01443  0.01261  1.0000
  N   N64       1.0  0.63366  0.18866  0.80780  1.0000
  C   C910      1.0  0.63812  0.20156  0.81679  1.0000
  H   H1511     1.0  0.64756  0.20731  0.79773  1.0000
  C   C911      1.0  0.69498  0.17460  0.30894  1.0000
  C   C912      1.0  0.68978  0.19313  0.33306  1.0000
  H   H1512     1.0  0.66973  0.17589  0.31382  1.0000
  H   H1513     1.0  0.70290  0.17606  0.32365  1.0000
  H   H1514     1.0  0.50853  0.03421  0.95393  1.0000
  H   H1515     1.0  0.66850  0.22695  0.10733  1.0000
  H   H1516     1.0  0.62244  0.18918  0.68883  1.0000
  C   C913      1.0  0.51618  0.07348  0.07526  1.0000
  C   C914      1.0  0.62110  0.18068  0.83438  1.0000
  N   N65       1.0  0.69011  0.18670  0.30135  1.0000
  C   C915      1.0  0.67709  0.18354  0.29186  1.0000
  C   C916      1.0  0.54802  0.10985  0.02215  1.0000
  H   H1517     1.0  0.54375  0.03205  0.22784  1.0000
  H   H1518     1.0  0.69938  0.17241  0.28268  1.0000
  C   C917      1.0  0.52366  0.02422  0.94196  1.0000
  C   C918      1.0  0.52275  0.08063  0.52857  1.0000
  H   H1519     1.0  0.56404  0.00801  0.69756  1.0000
  H   H1520     1.0  0.67144  0.14787  0.68627  1.0000
  H   H1521     1.0  0.52570  0.00153  0.61880  1.0000
  H   H1522     1.0  0.59281  0.18788  0.65864  1.0000
  H   H1523     1.0  0.70435  0.16885  0.66510  1.0000
  H   H1524     1.0  0.66156  0.12610  0.72132  1.0000
  H   H1525     1.0  0.65361  0.18731  0.79314  1.0000
  H   H1526     1.0  0.60885  0.19042  0.86631  1.0000
  C   C919      1.0  0.67085  0.19500  0.28397  1.0000
  H   H1527     1.0  0.67792  0.17932  0.26736  1.0000
  H   H1528     1.0  0.68896  0.20329  0.32498  1.0000
  H   H1529     1.0  0.67625  0.20216  0.25785  1.0000
  H   H1530     1.0  0.66091  0.19122  0.28052  1.0000
  H   H1531     1.0  0.63842  0.04580  0.64249  1.0000
  H   H1532     1.0  0.59702  0.00891  0.68309  1.0000
  H   H1533     1.0  0.68794  0.24552  0.08939  1.0000
  H   H1534     1.0  0.61439  0.06119  0.23638  1.0000
  H   H1535     1.0  0.50925  0.00185  0.62017  1.0000
  H   H1536     1.0  0.62362  0.22438  0.87159  1.0000
  H   H1537     1.0  0.55224  0.01889  0.89985  1.0000
  H   H1538     1.0  0.61609  0.17427  0.61645  1.0000
  H   H1539     1.0  0.52673  0.05585  0.32667  1.0000
  H   H1540     1.0  0.71035  0.15090  0.69618  1.0000
  C   C920      1.0  0.64394  0.18132  0.81043  1.0000
  C   C921      1.0  0.63993  0.20108  0.85606  1.0000
  H   H1541     1.0  0.63085  0.19608  0.87743  1.0000
  H   H1542     1.0  0.55793  0.10821  0.01812  1.0000
  C   C922      1.0  0.69957  0.19608  0.26791  1.0000
  H   H1543     1.0  0.50517  0.04620  0.82212  1.0000
  H   H1544     1.0  0.61364  0.01176  0.73880  1.0000
  H   H1545     1.0  0.71977  0.20644  0.24347  1.0000
  H   H1546     1.0  0.71508  0.20557  0.29137  1.0000
  H   H1547     1.0  0.49620  0.07266  0.51241  1.0000
  C   C923      1.0  0.61734  0.07636  0.26606  1.0000
  H   H1548     1.0  0.59902  0.08852  0.27433  1.0000
  H   H1549     1.0  0.70310  0.12802  0.74521  1.0000
  H   H1550     1.0  0.62039  0.10070  0.27803  1.0000
  H   H1551     1.0  0.54612  0.18097  0.35679  1.0000
  C   C924      1.0  0.60068  0.18493  0.66976  1.0000
  H   H1552     1.0  0.60080  0.18934  0.69373  1.0000
  H   H1553     1.0  0.59198  0.07257  0.30182  1.0000
  H   H1554     1.0  0.53110  0.04385  0.28014  1.0000
  C   C925      1.0  0.64118  0.16804  0.80050  1.0000
  C   C926      1.0  0.50060  0.07363  0.18136  1.0000
  C   C927      1.0  0.71387  0.19997  0.27031  1.0000
  H   H1555     1.0  0.69961  0.19193  0.24349  1.0000
  H   H1556     1.0  0.66977  0.19988  0.30690  1.0000
  H   H1557     1.0  0.55708  0.07522  0.25842  1.0000
  C   C928      1.0  0.64418  0.23549  0.78479  1.0000
  H   H1558     1.0  0.59735  0.17167  0.59819  1.0000
  H   H1559     1.0  0.52976  0.05962  0.26123  1.0000
  H   H1560     1.0  0.61305  0.19970  0.14850  1.0000
  H   H1561     1.0  0.62492  0.21651  0.16351  1.0000
  H   H1562     1.0  0.60371  0.18491  0.11986  1.0000
  H   H1563     1.0  0.63879  0.16853  0.77344  1.0000
  H   H1564     1.0  0.53569  0.07149  0.07123  1.0000
  H   H1565     1.0  0.64795  0.19668  0.86132  1.0000
  H   H1566     1.0  0.64269  0.21120  0.85916  1.0000
  H   H1567     1.0  0.69669  0.20534  0.26102  1.0000
  H   H1568     1.0  0.49959  0.08279  0.18712  1.0000
  H   H1569     1.0  0.68758  0.23689  0.90709  1.0000
  H   H1570     1.0  0.64016  0.23707  0.81126  1.0000
  H   H1571     1.0  0.50515  0.06899  0.56497  1.0000
  C   C929      1.0  0.68648  0.15776  0.72902  1.0000
  H   H1572     1.0  0.66520  0.21184  0.01617  1.0000
  H   H1573     1.0  0.61537  0.01115  0.11924  1.0000
  H   H1574     1.0  0.56304  0.06197  0.29651  1.0000
  H   H1575     1.0  0.64530  0.17924  0.83888  1.0000
  C   C930      1.0  0.62053  0.03520  0.68470  1.0000
  H   H1576     1.0  0.62284  0.17723  0.86195  1.0000
  H   H1577     1.0  0.55342  0.16160  0.39452  1.0000
  H   H1578     1.0  0.71807  0.19150  0.27527  1.0000
  H   H1579     1.0  0.63322  0.16078  0.82192  1.0000
  S   S280      1.0  0.72284  0.23851  0.76422  1.0000
  H   H1580     1.0  0.54897  0.07678  0.22316  1.0000
  H   H1581     1.0  0.56465  0.04588  0.30980  1.0000
  H   H1582     1.0  0.52844  0.09077  0.51574  1.0000
  H   H1583     1.0  0.58486  0.16449  0.25239  1.0000
  H   H1584     1.0  0.62269  0.17582  0.66829  1.0000
  H   H1585     1.0  0.55163  0.03879  0.27438  1.0000
  C   C931      1.0  0.59277  0.02725  0.63575  1.0000
  C   C932      1.0  0.53631  0.05429  0.27307  1.0000
  C   C933      1.0  0.50997  0.07955  0.55625  1.0000
  C   C934      1.0  0.63587  0.23020  0.76448  1.0000
  C   C935      1.0  0.62939  0.21266  0.18562  1.0000
  H   H1586     1.0  0.60750  0.17532  0.21017  1.0000
  H   H1587     1.0  0.62726  0.19838  0.11892  1.0000
  H   H1588     1.0  0.61409  0.02530  0.98744  1.0000
  H   H1589     1.0  0.62232  0.21020  0.21261  1.0000
  H   H1590     1.0  0.63758  0.22069  0.18595  1.0000
  H   H1591     1.0  0.62419  0.19087  0.25182  1.0000
  H   H1592     1.0  0.66166  0.21939  0.90409  1.0000
  H   H1593     1.0  0.54167  0.14669  0.39631  1.0000
  S   S281      1.0  0.71325  0.24448  0.04675  1.0000
  H   H1594     1.0  0.51310  0.00161  0.86947  1.0000
  C   C936      1.0  0.54904  0.08647  0.12849  1.0000
  C   C937      1.0  0.62080  0.09295  0.30134  1.0000
  H   H1595     1.0  0.54153  0.15090  0.26220  1.0000
  H   H1596     1.0  0.56542  0.14651  0.28588  1.0000
  H   H1597     1.0  0.59698  0.09745  0.32956  1.0000
  C   C938      1.0  0.57929  0.16469  0.27979  1.0000
  C   C939      1.0  0.61932  0.19298  0.14356  1.0000
  C   C940      1.0  0.61113  0.18149  0.13270  1.0000
  H   H1598     1.0  0.59635  0.01886  0.71480  1.0000
  N   N66       1.0  0.50103  0.08726  0.54260  1.0000
  C   C941      1.0  0.59119  0.01394  0.04256  1.0000
  H   H1599     1.0  0.58908  0.03414  0.61757  1.0000
  C   C942      1.0  0.61410  0.18460  0.21038  1.0000
  H   H1600     1.0  0.62352  0.17429  0.24919  1.0000
  H   H1601     1.0  0.61719  0.17835  0.11094  1.0000
  H   H1602     1.0  0.51224  0.06276  0.08214  1.0000
  C   C943      1.0  0.56513  0.15671  0.28601  1.0000
  N   N67       1.0  0.62501  0.18937  0.17599  1.0000
  C   C944      1.0  0.63483  0.20111  0.17817  1.0000
  C   C945      1.0  0.61824  0.18201  0.24707  1.0000
  H   H1603     1.0  0.60578  0.17315  0.15596  1.0000
  C   C946      1.0  0.53660  0.15299  0.28780  1.0000
  H   H1604     1.0  0.52630  0.14730  0.29430  1.0000
  C   C947      1.0  0.50550  0.09054  0.47138  1.0000
  H   H1605     1.0  0.54040  0.05959  0.19868  1.0000
  C   C948      1.0  0.69506  0.20371  0.65634  1.0000
  H   H1606     1.0  0.64249  0.20498  0.15211  1.0000
  H   H1607     1.0  0.60783  0.19151  0.21186  1.0000
  H   H1608     1.0  0.55989  0.14095  0.35380  1.0000
  N   N68       1.0  0.67119  0.23419  0.95304  1.0000
  H   H1609     1.0  0.53849  0.04900  0.90700  1.0000
  H   H1610     1.0  0.51841  0.09684  0.09590  1.0000
  N   N69       1.0  0.61229  0.08005  0.30116  1.0000
  H   H1611     1.0  0.61885  0.05298  0.32699  1.0000
  C   C949      1.0  0.59600  0.17011  0.68486  1.0000
  H   H1612     1.0  0.58649  0.16773  0.70513  1.0000
  S   S282      1.0  0.71672  0.22448  0.13968  1.0000
  H   H1613     1.0  0.64025  0.19852  0.19930  1.0000
  H   H1614     1.0  0.60939  0.17851  0.27010  1.0000
  H   H1615     1.0  0.59432  0.16512  0.66291  1.0000
  H   H1616     1.0  0.57265  0.00597  0.08527  1.0000
  H   H1617     1.0  0.52883  0.03132  0.95521  1.0000
  H   H1618     1.0  0.52812  0.09882  0.03490  1.0000
  N   N70       1.0  0.53604  0.09078  0.07949  1.0000
  H   H1619     1.0  0.64020  0.09114  0.27450  1.0000
  S   S283      1.0  0.58436  0.01600  0.18946  1.0000
  C   C950      1.0  0.63527  0.09367  0.29932  1.0000
  C   C951      1.0  0.63177  0.17875  0.17191  1.0000
  H   H1620     1.0  0.63944  0.18399  0.11117  1.0000
  Fe  Fe142     1.0  0.58869  0.23447  0.73195  1.0000
  H   H1621     1.0  0.60266  0.16606  0.69960  1.0000
  H   H1622     1.0  0.62472  0.16949  0.17355  1.0000
  H   H1623     1.0  0.65014  0.20467  0.00740  1.0000
  C   C952      1.0  0.64274  0.18161  0.13674  1.0000
  H   H1624     1.0  0.63636  0.17659  0.19509  1.0000
  H   H1625     1.0  0.65116  0.18950  0.13643  1.0000
  H   H1626     1.0  0.64647  0.17284  0.13638  1.0000
  H   H1627     1.0  0.53435  0.00568  0.88553  1.0000
  H   H1628     1.0  0.61090  0.07407  0.35956  1.0000
  H   H1629     1.0  0.68846  0.16701  0.65767  1.0000
  C   C953      1.0  0.55994  0.15128  0.35301  1.0000
  Fe  Fe143     1.0  0.72136  0.24373  0.09677  1.0000
  S   S284      1.0  0.52130  0.01974  0.03684  1.0000
  C   C954      1.0  0.53351  0.11070  0.10640  1.0000
  C   C955      1.0  0.72146  0.23605  0.95492  1.0000
  H   H1630     1.0  0.54490  0.09244  0.14554  1.0000
  N   N71       1.0  0.54909  0.05692  0.24539  1.0000
  H   H1631     1.0  0.70480  0.22191  0.95141  1.0000
  Fe  Fe144     1.0  0.70629  0.23146  0.73833  1.0000
  S   S285      1.0  0.70678  0.22318  0.87491  1.0000
  C   C956      1.0  0.71358  0.22921  0.93610  1.0000
  H   H1632     1.0  0.71873  0.23396  0.98453  1.0000
  S   S286      1.0  0.70726  0.22006  0.69356  1.0000
  Fe  Fe145     1.0  0.70722  0.23316  0.81695  1.0000
  H   H1633     1.0  0.70279  0.20920  0.63262  1.0000
  H   H1634     1.0  0.54161  0.06789  0.30764  1.0000
  H   H1635     1.0  0.68379  0.22733  0.98609  1.0000
  C   C957      1.0  0.71700  0.23181  0.89762  1.0000
  H   H1636     1.0  0.55797  0.22690  0.93566  1.0000
  H   H1637     1.0  0.57331  0.08590  0.20418  1.0000
  C   C958      1.0  0.60366  0.03490  0.64989  1.0000
  C   C959      1.0  0.59887  0.08188  0.30067  1.0000
  H   H1638     1.0  0.57568  0.07000  0.21388  1.0000
  H   H1639     1.0  0.62548  0.05425  0.64420  1.0000
  H   H1640     1.0  0.60029  0.06680  0.24907  1.0000
  C   C960      1.0  0.59233  0.08707  0.33238  1.0000
  H   H1641     1.0  0.61862  0.08453  0.24228  1.0000
  H   H1642     1.0  0.52083  0.00206  0.92395  1.0000
  H   H1643     1.0  0.60201  0.06216  0.34138  1.0000
  H   H1644     1.0  0.59219  0.08127  0.35975  1.0000
  H   H1645     1.0  0.56765  0.07493  0.17824  1.0000
  C   C961      1.0  0.50295  0.04982  0.16589  1.0000
  H   H1646     1.0  0.55557  0.10138  0.07924  1.0000
  H   H1647     1.0  0.60522  0.05607  0.28341  1.0000
  H   H1648     1.0  0.53302  0.00178  0.76545  1.0000
  C   C962      1.0  0.60869  0.06435  0.25889  1.0000
  H   H1649     1.0  0.50323  0.01979  0.93858  1.0000
  C   C963      1.0  0.60324  0.01559  0.69523  1.0000
  C   C964      1.0  0.52668  0.00981  0.89929  1.0000
  C   C965      1.0  0.61895  0.01891  0.00308  1.0000
  H   H1650     1.0  0.53658  0.16496  0.36296  1.0000
  H   H1651     1.0  0.52851  0.03686  0.23098  1.0000
  H   H1652     1.0  0.70822  0.15173  0.63128  1.0000
  H   H1653     1.0  0.55621  0.17635  0.28963  1.0000
  H   H1654     1.0  0.52957  0.11183  0.13439  1.0000
  H   H1655     1.0  0.68130  0.22071  0.93317  1.0000
  H   H1656     1.0  0.56554  0.00919  0.14635  1.0000
  H   H1657     1.0  0.63166  0.06782  0.31560  1.0000
  H   H1658     1.0  0.68079  0.13730  0.67195  1.0000
  C   C966      1.0  0.69577  0.16153  0.66334  1.0000
  C   C967      1.0  0.54260  0.14857  0.32006  1.0000
  H   H1659     1.0  0.51595  0.09102  0.46839  1.0000
  C   C968      1.0  0.67055  0.13113  0.72792  1.0000
  C   C969      1.0  0.70053  0.14395  0.70537  1.0000
  C   C970      1.0  0.67834  0.14220  0.69440  1.0000
  H   H1660     1.0  0.67599  0.12369  0.73368  1.0000
  S   S287      1.0  0.62642  0.24060  0.01806  1.0000
  H   H1661     1.0  0.53989  0.09025  0.02202  1.0000
  H   H1662     1.0  0.70074  0.13671  0.68831  1.0000
  H   H1663     1.0  0.63664  0.08780  0.32473  1.0000
  H   H1664     1.0  0.68244  0.15084  0.75617  1.0000
  H   H1665     1.0  0.69418  0.17095  0.76061  1.0000
  C   C971      1.0  0.53685  0.05758  0.31030  1.0000
  C   C972      1.0  0.51148  0.02839  0.93433  1.0000
  C   C973      1.0  0.69734  0.16855  0.73385  1.0000
  H   H1666     1.0  0.58430  0.16046  0.29995  1.0000
  N   N72       1.0  0.61212  0.02708  0.66594  1.0000
  H   H1667     1.0  0.68953  0.13353  0.76352  1.0000
  H   H1668     1.0  0.62375  0.05987  0.36201  1.0000
  H   H1669     1.0  0.69916  0.17767  0.71240  1.0000
  H   H1670     1.0  0.56820  0.22325  0.89849  1.0000
  H   H1671     1.0  0.52589  0.01164  0.67056  1.0000
  H   H1672     1.0  0.52358  0.01692  0.84445  1.0000
  C   C974      1.0  0.57661  0.00702  0.05564  1.0000
  C   C975      1.0  0.69944  0.13684  0.74550  1.0000
  H   H1673     1.0  0.55588  0.14617  0.41255  1.0000
  H   H1674     1.0  0.50539  0.12088  0.51442  1.0000
  C   C976      1.0  0.72857  0.24100  0.87808  1.0000
  H   H1675     1.0  0.56367  0.22722  0.83870  1.0000
  H   H1676     1.0  0.56206  0.16047  0.26080  1.0000
  H   H1677     1.0  0.54359  0.13860  0.31954  1.0000
  H   H1678     1.0  0.51249  0.08228  0.58121  1.0000
  H   H1679     1.0  0.56388  0.17615  0.32674  1.0000
  H   H1680     1.0  0.55420  0.99768  0.65331  1.0000
  C   C977      1.0  0.61353  0.21969  0.88511  1.0000
  H   H1681     1.0  0.53666  0.16339  0.28266  1.0000
  H   H1682     1.0  0.57997  0.17503  0.27962  1.0000
  H   H1683     1.0  0.67718  0.22253  0.87330  1.0000
  H   H1684     1.0  0.51843  0.02019  0.63966  1.0000
  H   H1685     1.0  0.61804  0.00970  0.99422  1.0000
  C   C978      1.0  0.54304  0.17346  0.34194  1.0000
  C   C979      1.0  0.65767  0.23884  0.77081  1.0000
  C   C980      1.0  0.55212  0.15156  0.39088  1.0000
  H   H1686     1.0  0.59884  0.03938  0.67073  1.0000
  C   C981      1.0  0.56833  0.23774  0.82702  1.0000
  H   H1687     1.0  0.54934  0.02791  0.93342  1.0000
  C   C982      1.0  0.67114  0.22666  0.89254  1.0000
  H   H1688     1.0  0.58442  0.02166  0.65900  1.0000
  C   C983      1.0  0.66002  0.21106  0.99396  1.0000
  H   H1689     1.0  0.52903  0.07582  0.54331  1.0000
  H   H1690     1.0  0.55918  0.08716  0.13106  1.0000
  H   H1691     1.0  0.57462  0.22804  0.93557  1.0000
  H   H1692     1.0  0.57620  0.05699  0.27158  1.0000
  H   H1693     1.0  0.52722  0.07159  0.11570  1.0000
  C   C984      1.0  0.66283  0.23661  0.73680  1.0000
  C   C985      1.0  0.53877  0.03906  0.21538  1.0000
  H   H1694     1.0  0.58706  0.00235  0.11620  1.0000
  H   H1695     1.0  0.63016  0.04091  0.59672  1.0000
  H   H1696     1.0  0.67433  0.23687  0.00582  1.0000
  H   H1697     1.0  0.59333  0.23605  0.89153  1.0000
  C   C986      1.0  0.50773  0.10151  0.53448  1.0000
  S   S288      1.0  0.50656  0.99817  0.76151  1.0000
  Fe  Fe146     1.0  0.68832  0.24447  0.78059  1.0000
  H   H1698     1.0  0.50842  0.00924  0.68121  1.0000
  H   H1699     1.0  0.65347  0.22832  0.99614  1.0000
  C   C987      1.0  0.51600  0.99989  0.63789  1.0000
  H   H1700     1.0  0.59694  0.01821  0.10467  1.0000
  C   C988      1.0  0.61384  0.01673  0.04500  1.0000
  H   H1701     1.0  0.49951  0.05018  0.68628  1.0000
  H   H1702     1.0  0.61452  0.02651  0.05081  1.0000
  H   H1703     1.0  0.50323  0.05723  0.78373  1.0000
  H   H1704     1.0  0.73140  0.24288  0.84842  1.0000
  H   H1705     1.0  0.62903  0.02027  0.64674  1.0000
  H   H1706     1.0  0.50999  0.01591  0.88165  1.0000
  C   C989      1.0  0.67991  0.23598  0.97918  1.0000
  H   H1707     1.0  0.50432  0.10051  0.46371  1.0000
  H   H1708     1.0  0.64712  0.24376  0.95111  1.0000
  C   C990      1.0  0.54251  0.00742  0.95443  1.0000
  C   C991      1.0  0.60998  0.00703  0.71820  1.0000
  C   C992      1.0  0.49692  0.08319  0.50998  1.0000
  C   C993      1.0  0.56247  0.99767  0.70045  1.0000
  H   H1709     1.0  0.57452  0.99751  0.04847  1.0000
  C   C994      1.0  0.49784  0.08187  0.66324  1.0000
  C   C995      1.0  0.59699  0.00821  0.10175  1.0000
  C   C996      1.0  0.56444  0.00082  0.16831  1.0000
  H   H1710     1.0  0.60272  0.99785  0.73404  1.0000
  C   C997      1.0  0.59452  0.24656  0.88014  1.0000
  H   H1711     1.0  0.50231  0.08552  0.45067  1.0000
  C   C998      1.0  0.49789  0.04891  0.80727  1.0000
  H   H1712     1.0  0.56234  0.24598  0.88923  1.0000
  C   C999      1.0  0.57209  0.00169  0.19378  1.0000
  C   C1000     1.0  0.60621  0.00350  0.12440  1.0000
  C   C1001     1.0  0.49911  0.11091  0.52706  1.0000
  H   H1713     1.0  0.60151  0.00148  0.15416  1.0000
  H   H1714     1.0  0.53857  0.99833  0.94672  1.0000
  S   S289      1.0  0.66779  0.24639  0.79546  1.0000
  S   S290      1.0  0.57466  0.99737  0.75902  1.0000
  H   H1715     1.0  0.57462  0.26419  0.80648  1.0000
  S   S291      1.0  0.51730  0.45230  0.75006  1.0000
  S   S292      1.0  0.51323  0.48114  0.78905  1.0000
  H   H1716     1.0  0.61215  0.39479  0.25543  1.0000
  H   H1717     1.0  0.72962  0.46723  0.19928  1.0000
  C   C1002     1.0  0.63684  0.43783  0.22226  1.0000
  H   H1718     1.0  0.53805  0.42577  0.67976  1.0000
  H   H1719     1.0  0.73610  0.42526  0.25979  1.0000
  Fe  Fe147     1.0  0.58339  0.42982  0.23174  1.0000
  S   S293      1.0  0.57751  0.41263  0.27988  1.0000
  S   S294      1.0  0.60348  0.44288  0.21943  1.0000
  Fe  Fe148     1.0  0.55700  0.42443  0.21254  1.0000
  S   S295      1.0  0.54898  0.40671  0.25973  1.0000
  S   S296      1.0  0.54719  0.43092  0.16724  1.0000
  Fe  Fe149     1.0  0.55905  0.41889  0.29279  1.0000
  S   S297      1.0  0.55036  0.42219  0.34815  1.0000
  Fe  Fe150     1.0  0.56832  0.40213  0.24238  1.0000
  S   S298      1.0  0.57062  0.38190  0.24065  1.0000
  S   S299      1.0  0.56555  0.43697  0.24645  1.0000
  S   S300      1.0  0.57568  0.41899  0.19314  1.0000
  H   H1720     1.0  0.63078  0.44329  0.67825  1.0000
  Fe  Fe151     1.0  0.57304  0.43174  0.56850  1.0000
  S   S301      1.0  0.56133  0.42485  0.62687  1.0000
  S   S302      1.0  0.58838  0.45060  0.54518  1.0000
  Fe  Fe152     1.0  0.56032  0.40780  0.54690  1.0000
  S   S303      1.0  0.54725  0.39880  0.60371  1.0000
  S   S304      1.0  0.56240  0.39796  0.49963  1.0000
  Fe  Fe153     1.0  0.54448  0.41885  0.60268  1.0000
  S   S305      1.0  0.52524  0.42376  0.61998  1.0000
  Fe  Fe154     1.0  0.56513  0.40553  0.62383  1.0000
  S   S306      1.0  0.56991  0.39519  0.67491  1.0000
  S   S307      1.0  0.55599  0.42720  0.54404  1.0000
  S   S308      1.0  0.57839  0.41296  0.56753  1.0000
  H   H1721     1.0  0.65633  0.31109  0.10074  1.0000
  H   H1722     1.0  0.59418  0.41275  0.46623  1.0000
  H   H1723     1.0  0.64554  0.27906  0.77297  1.0000
  C   C1003     1.0  0.64954  0.27110  0.76498  1.0000
  H   H1724     1.0  0.62784  0.26565  0.13885  1.0000
  C   C1004     1.0  0.72607  0.27753  0.91879  1.0000
  S   S309      1.0  0.60930  0.26572  0.03398  1.0000
  C   C1005     1.0  0.58906  0.43130  0.46612  1.0000
  H   H1725     1.0  0.54787  0.33632  0.58870  1.0000
  H   H1726     1.0  0.62121  0.44975  0.42052  1.0000
  H   H1727     1.0  0.50327  0.44921  0.69261  1.0000
  C   C1006     1.0  0.67006  0.43044  0.23060  1.0000
  H   H1728     1.0  0.73731  0.46772  0.96969  1.0000
  H   H1729     1.0  0.65570  0.25667  0.91199  1.0000
  S   S310      1.0  0.58627  0.25520  0.72181  1.0000
  H   H1730     1.0  0.62117  0.46180  0.44597  1.0000
  H   H1731     1.0  0.53847  0.40906  0.12997  1.0000
  C   C1007     1.0  0.55718  0.36871  0.57358  1.0000
  Fe  Fe155     1.0  0.63077  0.35024  0.02693  1.0000
  S   S311      1.0  0.61025  0.34111  0.05962  1.0000
  S   S312      1.0  0.63905  0.35288  0.96652  1.0000
  Fe  Fe156     1.0  0.64098  0.35471  0.09364  1.0000
  S   S313      1.0  0.62130  0.34566  0.13251  1.0000
  S   S314      1.0  0.65976  0.36166  0.11019  1.0000
  Fe  Fe157     1.0  0.61946  0.33038  0.09958  1.0000
  S   S315      1.0  0.61233  0.30876  0.12682  1.0000
  Fe  Fe158     1.0  0.61373  0.35707  0.08949  1.0000
  S   S316      1.0  0.60097  0.37108  0.09509  1.0000
  S   S317      1.0  0.63977  0.33849  0.06475  1.0000
  S   S318      1.0  0.63364  0.36710  0.05294  1.0000
  Fe  Fe159     1.0  0.61150  0.34662  0.72476  1.0000
  S   S319      1.0  0.62918  0.33895  0.71150  1.0000
  S   S320      1.0  0.60367  0.35423  0.67619  1.0000
  Fe  Fe160     1.0  0.61131  0.34177  0.80584  1.0000
  S   S321      1.0  0.62889  0.33384  0.79843  1.0000
  S   S322      1.0  0.60128  0.34344  0.86166  1.0000
  Fe  Fe161     1.0  0.63694  0.35060  0.74896  1.0000
  S   S323      1.0  0.65695  0.36461  0.73161  1.0000
  Fe  Fe162     1.0  0.61933  0.32283  0.76216  1.0000
  S   S324      1.0  0.62009  0.30156  0.77115  1.0000
  S   S325      1.0  0.61993  0.35929  0.75872  1.0000
  S   S326      1.0  0.60107  0.32968  0.77310  1.0000
  Fe  Fe163     1.0  0.69548  0.42935  0.14286  1.0000
  S   S327      1.0  0.69318  0.44972  0.13307  1.0000
  S   S328      1.0  0.67566  0.41574  0.14980  1.0000
  Fe  Fe164     1.0  0.72471  0.43896  0.14195  1.0000
  S   S329      1.0  0.72409  0.45981  0.13165  1.0000
  H   H1732     1.0  0.63059  0.43459  0.25084  1.0000
  Fe  Fe165     1.0  0.70497  0.45260  0.17428  1.0000
  S   S330      1.0  0.69939  0.45942  0.22633  1.0000
  Fe  Fe166     1.0  0.71221  0.45463  0.09167  1.0000
  S   S331      1.0  0.71478  0.46585  0.03361  1.0000
  S   S332      1.0  0.70618  0.43187  0.18695  1.0000
  S   S333      1.0  0.71405  0.43418  0.09894  1.0000
  Fe  Fe167     1.0  0.69716  0.44145  0.80943  1.0000
  S   S334      1.0  0.70666  0.42585  0.79392  1.0000
  S   S335      1.0  0.69431  0.45814  0.76812  1.0000
  Fe  Fe168     1.0  0.69295  0.43075  0.89082  1.0000
  S   S336      1.0  0.70174  0.41450  0.88177  1.0000
  S   S337      1.0  0.68428  0.42949  0.95024  1.0000
  Fe  Fe169     1.0  0.69034  0.41231  0.83942  1.0000
  S   S338      1.0  0.67884  0.39149  0.84866  1.0000
  S   S339      1.0  0.68020  0.42756  0.85192  1.0000
  C   C1008     1.0  0.70561  0.45635  0.01034  1.0000
  C   C1009     1.0  0.70764  0.46015  0.97201  1.0000
  C   C1010     1.0  0.70115  0.45198  0.95311  1.0000
  C   C1011     1.0  0.69243  0.44013  0.97264  1.0000
  C   C1012     1.0  0.69010  0.43656  0.01100  1.0000
  C   C1013     1.0  0.69673  0.44459  0.02974  1.0000
  H   H1733     1.0  0.71440  0.46930  0.95688  1.0000
  H   H1734     1.0  0.70280  0.45489  0.92355  1.0000
  H   H1735     1.0  0.68324  0.42750  0.02635  1.0000
  H   H1736     1.0  0.69489  0.44164  0.05931  1.0000
  H   H1737     1.0  0.53477  0.43709  0.72997  1.0000
  C   C1014     1.0  0.73915  0.31038  0.84597  1.0000
  C   C1015     1.0  0.66333  0.37195  0.76398  1.0000
  C   C1016     1.0  0.67219  0.38425  0.75212  1.0000
  C   C1017     1.0  0.67722  0.39040  0.77756  1.0000
  C   C1018     1.0  0.67365  0.38408  0.81487  1.0000
  C   C1019     1.0  0.66527  0.37157  0.82638  1.0000
  C   C1020     1.0  0.65987  0.36563  0.80127  1.0000
  H   H1738     1.0  0.67502  0.38913  0.72322  1.0000
  H   H1739     1.0  0.68381  0.39999  0.76831  1.0000
  H   H1740     1.0  0.66278  0.36656  0.85508  1.0000
  H   H1741     1.0  0.65326  0.35605  0.81059  1.0000
  C   C1021     1.0  0.66529  0.37745  0.11623  1.0000
  C   C1022     1.0  0.65955  0.38744  0.10497  1.0000
  C   C1023     1.0  0.66361  0.39961  0.11271  1.0000
  C   C1024     1.0  0.67343  0.40187  0.13166  1.0000
  C   C1025     1.0  0.67962  0.39210  0.14120  1.0000
  C   C1026     1.0  0.67559  0.37995  0.13339  1.0000
  H   H1742     1.0  0.65187  0.38575  0.09075  1.0000
  H   H1743     1.0  0.65896  0.40724  0.10476  1.0000
  H   H1744     1.0  0.68709  0.39367  0.15622  1.0000
  H   H1745     1.0  0.68017  0.37230  0.14190  1.0000
  C   C1027     1.0  0.62829  0.35055  0.93802  1.0000
  C   C1028     1.0  0.61487  0.34848  0.95101  1.0000
  C   C1029     1.0  0.60661  0.34658  0.92721  1.0000
  C   C1030     1.0  0.61175  0.34669  0.89051  1.0000
  C   C1031     1.0  0.62518  0.34898  0.87754  1.0000
  C   C1032     1.0  0.63340  0.35084  0.90126  1.0000
  H   H1746     1.0  0.61085  0.34836  0.97928  1.0000
  H   H1747     1.0  0.59621  0.34488  0.93736  1.0000
  H   H1748     1.0  0.62929  0.34936  0.84920  1.0000
  H   H1749     1.0  0.64375  0.35236  0.89121  1.0000
  H   H1750     1.0  0.56530  0.26488  0.85094  1.0000
  H   H1751     1.0  0.53540  0.35876  0.71363  1.0000
  H   H1752     1.0  0.64906  0.43817  0.28133  1.0000
  H   H1753     1.0  0.60408  0.46253  0.41407  1.0000
  H   H1754     1.0  0.60191  0.44748  0.37419  1.0000
  C   C1033     1.0  0.59584  0.26816  0.73505  1.0000
  C   C1034     1.0  0.60585  0.26644  0.75230  1.0000
  C   C1035     1.0  0.61300  0.27676  0.76336  1.0000
  C   C1036     1.0  0.61051  0.28905  0.75667  1.0000
  C   C1037     1.0  0.60058  0.29090  0.73918  1.0000
  C   C1038     1.0  0.59326  0.28047  0.72858  1.0000
  H   H1755     1.0  0.60812  0.25717  0.75710  1.0000
  H   H1756     1.0  0.62052  0.27523  0.77736  1.0000
  H   H1757     1.0  0.59853  0.30033  0.73381  1.0000
  H   H1758     1.0  0.58557  0.28198  0.71516  1.0000
  C   C1039     1.0  0.56456  0.40018  0.10873  1.0000
  H   H1759     1.0  0.65865  0.26030  0.11650  1.0000
  H   H1760     1.0  0.58218  0.43054  0.37785  1.0000
  H   H1761     1.0  0.74592  0.25413  0.88199  1.0000
  H   H1762     1.0  0.61429  0.44538  0.47021  1.0000
  H   H1763     1.0  0.57332  0.39934  0.11918  1.0000
  H   H1764     1.0  0.52497  0.36598  0.69071  1.0000
  H   H1765     1.0  0.60839  0.42629  0.45261  1.0000
  H   H1766     1.0  0.58672  0.26846  0.87157  1.0000
  C   C1040     1.0  0.61030  0.27739  0.06077  1.0000
  C   C1041     1.0  0.60605  0.27396  0.09911  1.0000
  C   C1042     1.0  0.60662  0.28367  0.11898  1.0000
  C   C1043     1.0  0.61133  0.29689  0.10075  1.0000
  C   C1044     1.0  0.61563  0.30031  0.06242  1.0000
  C   C1045     1.0  0.61518  0.29060  0.04266  1.0000
  H   H1767     1.0  0.60212  0.26384  0.11342  1.0000
  H   H1768     1.0  0.60328  0.28093  0.14863  1.0000
  H   H1769     1.0  0.61942  0.31044  0.04809  1.0000
  H   H1770     1.0  0.61872  0.29333  0.01319  1.0000
  H   H1771     1.0  0.71774  0.46115  0.33355  1.0000
  C   C1046     1.0  0.67840  0.46922  0.73117  1.0000
  C   C1047     1.0  0.67913  0.45861  0.75765  1.0000
  H   H1772     1.0  0.69672  0.36957  0.92826  1.0000
  C   C1048     1.0  0.61448  0.43655  0.58914  1.0000
  C   C1049     1.0  0.58088  0.38528  0.67424  1.0000
  C   C1050     1.0  0.58734  0.38320  0.64140  1.0000
  C   C1051     1.0  0.59469  0.37395  0.64230  1.0000
  C   C1052     1.0  0.59594  0.36700  0.67592  1.0000
  C   C1053     1.0  0.59011  0.36965  0.70862  1.0000
  C   C1054     1.0  0.58254  0.37871  0.70776  1.0000
  H   H1773     1.0  0.58640  0.38845  0.61538  1.0000
  H   H1774     1.0  0.59927  0.37199  0.61691  1.0000
  H   H1775     1.0  0.59098  0.36430  0.73464  1.0000
  H   H1776     1.0  0.57761  0.38032  0.73328  1.0000
  C   C1055     1.0  0.58895  0.45948  0.57868  1.0000
  C   C1056     1.0  0.57797  0.45735  0.60711  1.0000
  C   C1057     1.0  0.57859  0.46346  0.63600  1.0000
  C   C1058     1.0  0.59015  0.47200  0.63599  1.0000
  C   C1059     1.0  0.60104  0.47465  0.60658  1.0000
  C   C1060     1.0  0.60047  0.46828  0.57804  1.0000
  H   H1777     1.0  0.56900  0.45095  0.60683  1.0000
  H   H1778     1.0  0.57021  0.46131  0.65882  1.0000
  C   C1061     1.0  0.55689  0.48780  0.75157  1.0000
  H   H1779     1.0  0.60903  0.46993  0.55604  1.0000
  H   H1780     1.0  0.66039  0.29954  0.64519  1.0000
  H   H1781     1.0  0.49966  0.45732  0.93867  1.0000
  C   C1062     1.0  0.68532  0.47618  0.20042  1.0000
  C   C1063     1.0  0.68855  0.46944  0.23094  1.0000
  C   C1064     1.0  0.66353  0.26858  0.12607  1.0000
  H   H1782     1.0  0.53924  0.48739  0.65544  1.0000
  H   H1783     1.0  0.55704  0.41666  0.08699  1.0000
  H   H1784     1.0  0.68954  0.47534  0.17318  1.0000
  C   C1065     1.0  0.57504  0.26766  0.83184  1.0000
  C   C1066     1.0  0.58003  0.37912  0.20119  1.0000
  C   C1067     1.0  0.58118  0.36650  0.20067  1.0000
  C   C1068     1.0  0.58803  0.36393  0.16876  1.0000
  C   C1069     1.0  0.59350  0.37394  0.13696  1.0000
  C   C1070     1.0  0.59246  0.38654  0.13766  1.0000
  C   C1071     1.0  0.58601  0.38918  0.16984  1.0000
  H   H1785     1.0  0.57658  0.35865  0.22486  1.0000
  H   H1786     1.0  0.58865  0.35414  0.16836  1.0000
  H   H1787     1.0  0.59670  0.39433  0.11314  1.0000
  H   H1788     1.0  0.58541  0.39895  0.17002  1.0000
  C   C1072     1.0  0.55394  0.41535  0.38976  1.0000
  C   C1073     1.0  0.56041  0.40544  0.39253  1.0000
  C   C1074     1.0  0.56280  0.40007  0.42646  1.0000
  C   C1075     1.0  0.55897  0.40472  0.45766  1.0000
  C   C1076     1.0  0.55261  0.41470  0.45476  1.0000
  C   C1077     1.0  0.55004  0.41991  0.42103  1.0000
  H   H1789     1.0  0.56338  0.40178  0.36871  1.0000
  H   H1790     1.0  0.56767  0.39232  0.42848  1.0000
  H   H1791     1.0  0.54946  0.41825  0.47860  1.0000
  H   H1792     1.0  0.54495  0.42750  0.41918  1.0000
  C   C1078     1.0  0.60324  0.45080  0.25518  1.0000
  C   C1079     1.0  0.61366  0.46108  0.25375  1.0000
  C   C1080     1.0  0.61294  0.46789  0.28145  1.0000
  C   C1081     1.0  0.60159  0.46473  0.30958  1.0000
  C   C1082     1.0  0.59129  0.45434  0.31125  1.0000
  C   C1083     1.0  0.59224  0.44723  0.28452  1.0000
  H   H1793     1.0  0.62217  0.46390  0.23106  1.0000
  H   H1794     1.0  0.62105  0.47577  0.28042  1.0000
  H   H1795     1.0  0.58252  0.45178  0.33308  1.0000
  H   H1796     1.0  0.58431  0.43908  0.28663  1.0000
  C   C1084     1.0  0.51646  0.45444  0.17573  1.0000
  H   H1797     1.0  0.58766  0.47224  0.25146  1.0000
  C   C1085     1.0  0.52968  0.44198  0.20525  1.0000
  C   C1086     1.0  0.53559  0.44022  0.17130  1.0000
  C   C1087     1.0  0.53197  0.44569  0.13961  1.0000
  C   C1088     1.0  0.52252  0.45285  0.14173  1.0000
  H   H1798     1.0  0.58291  0.45332  0.39868  1.0000
  H   H1799     1.0  0.53228  0.43771  0.22990  1.0000
  H   H1800     1.0  0.53644  0.44432  0.11327  1.0000
  H   H1801     1.0  0.51979  0.45695  0.11714  1.0000
  C   C1089     1.0  0.51890  0.44406  0.71443  1.0000
  C   C1090     1.0  0.51086  0.44412  0.68983  1.0000
  C   C1091     1.0  0.51251  0.43737  0.66190  1.0000
  C   C1092     1.0  0.52248  0.43091  0.65767  1.0000
  C   C1093     1.0  0.53049  0.43087  0.68233  1.0000
  C   C1094     1.0  0.52860  0.43728  0.71081  1.0000
  H   H1802     1.0  0.74435  0.30489  0.72879  1.0000
  H   H1803     1.0  0.65579  0.42495  0.20102  1.0000
  N   N73       1.0  0.67661  0.38186  0.97922  1.0000
  C   C1095     1.0  0.67626  0.38470  0.01648  1.0000
  C   C1096     1.0  0.66808  0.36841  0.98467  1.0000
  C   C1097     1.0  0.67164  0.39148  0.95533  1.0000
  C   C1098     1.0  0.68252  0.39884  0.01650  1.0000
  C   C1099     1.0  0.67295  0.35714  0.00368  1.0000
  H   H1804     1.0  0.66609  0.38209  0.03342  1.0000
  H   H1805     1.0  0.68125  0.37850  0.03247  1.0000
  H   H1806     1.0  0.66630  0.36651  0.95827  1.0000
  H   H1807     1.0  0.65824  0.36740  0.00184  1.0000
  H   H1808     1.0  0.67818  0.40142  0.94883  1.0000
  H   H1809     1.0  0.69518  0.37746  0.97974  1.0000
  H   H1810     1.0  0.69257  0.40253  0.99919  1.0000
  H   H1811     1.0  0.67655  0.40543  0.00774  1.0000
  H   H1812     1.0  0.68303  0.39937  0.04495  1.0000
  H   H1813     1.0  0.68243  0.35664  0.98773  1.0000
  H   H1814     1.0  0.67351  0.35763  0.03208  1.0000
  H   H1815     1.0  0.66586  0.34786  0.00581  1.0000
  H   H1816     1.0  0.64621  0.25694  0.73315  1.0000
  C   C1100     1.0  0.71970  0.42578  0.95017  1.0000
  H   H1817     1.0  0.63458  0.47783  0.77994  1.0000
  H   H1818     1.0  0.67443  0.48948  0.18125  1.0000
  C   C1101     1.0  0.74070  0.28203  0.85839  1.0000
  H   H1819     1.0  0.72039  0.44254  0.30871  1.0000
  H   H1820     1.0  0.73396  0.45971  0.33074  1.0000
  C   C1102     1.0  0.66911  0.25862  0.03895  1.0000
  S   S340      1.0  0.71725  0.26252  0.10684  1.0000
  H   H1821     1.0  0.63875  0.28975  0.71752  1.0000
  H   H1822     1.0  0.72419  0.27846  0.81290  1.0000
  H   H1823     1.0  0.63765  0.46769  0.81917  1.0000
  C   C1103     1.0  0.74512  0.46533  0.88961  1.0000
  H   H1824     1.0  0.51668  0.47842  0.58295  1.0000
  H   H1825     1.0  0.63337  0.28668  0.13392  1.0000
  S   S341      1.0  0.70937  0.44580  0.84982  1.0000
  C   C1104     1.0  0.65902  0.45153  0.18891  1.0000
  C   C1105     1.0  0.63198  0.42682  0.20396  1.0000
  C   C1106     1.0  0.65888  0.44839  0.15139  1.0000
  H   H1826     1.0  0.63406  0.44663  0.20926  1.0000
  H   H1827     1.0  0.65571  0.46058  0.18781  1.0000
  H   H1828     1.0  0.66935  0.45430  0.19019  1.0000
  H   H1829     1.0  0.63481  0.45278  0.27195  1.0000
  H   H1830     1.0  0.67099  0.43261  0.25731  1.0000
  H   H1831     1.0  0.63119  0.41721  0.22183  1.0000
  C   C1107     1.0  0.67992  0.25766  0.05325  1.0000
  H   H1832     1.0  0.62204  0.42694  0.20054  1.0000
  H   H1833     1.0  0.66244  0.43969  0.14861  1.0000
  H   H1834     1.0  0.66557  0.45663  0.12947  1.0000
  H   H1835     1.0  0.64911  0.44736  0.14577  1.0000
  H   H1836     1.0  0.66787  0.25265  0.96048  1.0000
  H   H1837     1.0  0.74335  0.28718  0.82904  1.0000
  C   C1108     1.0  0.73675  0.24740  0.89710  1.0000
  C   C1109     1.0  0.71792  0.28381  0.86452  1.0000
  H   H1838     1.0  0.64956  0.26865  0.07046  1.0000
  C   C1110     1.0  0.52147  0.47484  0.60465  1.0000
  H   H1839     1.0  0.57394  0.47440  0.23442  1.0000
  C   C1111     1.0  0.72028  0.28622  0.82244  1.0000
  Fe  Fe170     1.0  0.50753  0.46881  0.75071  1.0000
  C   C1112     1.0  0.63238  0.26253  0.11470  1.0000
  H   H1840     1.0  0.62365  0.25564  0.66473  1.0000
  H   H1841     1.0  0.55050  0.37514  0.57543  1.0000
  H   H1842     1.0  0.57336  0.44753  0.48308  1.0000
  H   H1843     1.0  0.63962  0.48673  0.84922  1.0000
  Fe  Fe171     1.0  0.71760  0.25776  0.75543  1.0000
  H   H1844     1.0  0.64679  0.27324  0.15623  1.0000
  C   C1113     1.0  0.65511  0.27819  0.13213  1.0000
  H   H1845     1.0  0.72684  0.29581  0.80756  1.0000
  C   C1114     1.0  0.63158  0.25696  0.67938  1.0000
  H   H1846     1.0  0.56647  0.39832  0.08081  1.0000
  H   H1847     1.0  0.54920  0.32697  0.63089  1.0000
  H   H1848     1.0  0.56448  0.48109  0.62007  1.0000
  H   H1849     1.0  0.64305  0.29791  0.64944  1.0000
  H   H1850     1.0  0.65042  0.38313  0.97330  1.0000
  H   H1851     1.0  0.67172  0.38921  0.92815  1.0000
  H   H1852     1.0  0.71180  0.27165  0.97105  1.0000
  C   C1115     1.0  0.64017  0.49091  0.54044  1.0000
  H   H1853     1.0  0.58515  0.48461  0.17290  1.0000
  C   C1116     1.0  0.72707  0.46195  0.31397  1.0000
  H   H1854     1.0  0.54789  0.46260  0.68411  1.0000
  H   H1855     1.0  0.71644  0.41529  0.95123  1.0000
  H   H1856     1.0  0.55022  0.34816  0.69960  1.0000
  H   H1857     1.0  0.61147  0.32052  0.87274  1.0000
  H   H1858     1.0  0.54158  0.47260  0.71073  1.0000
  S   S342      1.0  0.74292  0.25434  0.95815  1.0000
  C   C1117     1.0  0.52234  0.47838  0.24667  1.0000
  N   N74       1.0  0.60954  0.30645  0.92303  1.0000
  C   C1118     1.0  0.61047  0.30993  0.88225  1.0000
  C   C1119     1.0  0.62126  0.31444  0.93169  1.0000
  C   C1120     1.0  0.60791  0.29214  0.93777  1.0000
  C   C1121     1.0  0.63456  0.31716  0.90430  1.0000
  C   C1122     1.0  0.61856  0.28614  0.92062  1.0000
  H   H1859     1.0  0.61932  0.30824  0.86595  1.0000
  H   H1860     1.0  0.61992  0.32422  0.93325  1.0000
  H   H1861     1.0  0.62238  0.31000  0.95930  1.0000
  H   H1862     1.0  0.60753  0.28995  0.96763  1.0000
  H   H1863     1.0  0.63500  0.32396  0.87806  1.0000
  H   H1864     1.0  0.63706  0.30827  0.89866  1.0000
  H   H1865     1.0  0.64226  0.32209  0.91607  1.0000
  H   H1866     1.0  0.62675  0.28734  0.93435  1.0000
  H   H1867     1.0  0.62229  0.28997  0.89060  1.0000
  H   H1868     1.0  0.61436  0.27558  0.92439  1.0000
  N   N75       1.0  0.62621  0.37965  0.19513  1.0000
  C   C1123     1.0  0.62575  0.37819  0.15679  1.0000
  C   C1124     1.0  0.62425  0.36619  0.21859  1.0000
  C   C1125     1.0  0.63966  0.38767  0.19272  1.0000
  C   C1126     1.0  0.61590  0.38629  0.20821  1.0000
  C   C1127     1.0  0.62690  0.39073  0.12781  1.0000
  C   C1128     1.0  0.61073  0.35681  0.22499  1.0000
  C   C1129     1.0  0.64272  0.39039  0.22863  1.0000
  C   C1130     1.0  0.61154  0.38500  0.25010  1.0000
  H   H1869     1.0  0.63345  0.37359  0.14579  1.0000
  H   H1870     1.0  0.61644  0.37156  0.15694  1.0000
  H   H1871     1.0  0.62597  0.36633  0.24611  1.0000
  H   H1872     1.0  0.63163  0.36145  0.20621  1.0000
  H   H1873     1.0  0.64713  0.38293  0.18098  1.0000
  H   H1874     1.0  0.64170  0.39740  0.17391  1.0000
  H   H1875     1.0  0.61906  0.39685  0.19458  1.0000
  H   H1876     1.0  0.60695  0.38255  0.19930  1.0000
  H   H1877     1.0  0.61892  0.39536  0.13538  1.0000
  H   H1878     1.0  0.63633  0.39791  0.12217  1.0000
  H   H1879     1.0  0.62614  0.38817  0.10137  1.0000
  H   H1880     1.0  0.60928  0.35359  0.19993  1.0000
  H   H1881     1.0  0.60995  0.34789  0.24607  1.0000
  H   H1882     1.0  0.60265  0.36097  0.23528  1.0000
  H   H1883     1.0  0.64195  0.38144  0.24942  1.0000
  H   H1884     1.0  0.63672  0.39640  0.24023  1.0000
  H   H1885     1.0  0.65301  0.39614  0.22219  1.0000
  H   H1886     1.0  0.61718  0.38024  0.26705  1.0000
  H   H1887     1.0  0.60111  0.37963  0.26056  1.0000
  N   N76       1.0  0.63514  0.39264  0.83563  1.0000
  C   C1131     1.0  0.62439  0.38129  0.83515  1.0000
  C   C1132     1.0  0.64214  0.38750  0.86351  1.0000
  C   C1133     1.0  0.64430  0.39688  0.79791  1.0000
  C   C1134     1.0  0.62927  0.40338  0.84488  1.0000
  C   C1135     1.0  0.61544  0.38408  0.80928  1.0000
  C   C1136     1.0  0.63473  0.38431  0.90424  1.0000
  C   C1137     1.0  0.65586  0.40884  0.79063  1.0000
  C   C1138     1.0  0.63789  0.41427  0.85712  1.0000
  H   H1888     1.0  0.62852  0.37331  0.82753  1.0000
  H   H1889     1.0  0.61776  0.37700  0.86286  1.0000
  H   H1890     1.0  0.65169  0.39413  0.86101  1.0000
  H   H1891     1.0  0.64461  0.37846  0.85846  1.0000
  H   H1892     1.0  0.64835  0.38872  0.79157  1.0000
  H   H1893     1.0  0.63911  0.39941  0.77630  1.0000
  H   H1894     1.0  0.62616  0.40822  0.82084  1.0000
  H   H1895     1.0  0.62017  0.39924  0.86718  1.0000
  H   H1896     1.0  0.62057  0.38642  0.77986  1.0000
  H   H1897     1.0  0.60757  0.37509  0.81386  1.0000
  H   H1898     1.0  0.61058  0.39174  0.81509  1.0000
  H   H1899     1.0  0.64083  0.38029  0.92138  1.0000
  H   H1900     1.0  0.63292  0.39301  0.91319  1.0000
  H   H1901     1.0  0.62546  0.37679  0.91073  1.0000
  H   H1902     1.0  0.66212  0.40788  0.81019  1.0000
  H   H1903     1.0  0.65261  0.41789  0.78959  1.0000
  H   H1904     1.0  0.66220  0.41005  0.76298  1.0000
  H   H1905     1.0  0.63933  0.42380  0.83785  1.0000
  H   H1906     1.0  0.64762  0.41300  0.85886  1.0000
  H   H1907     1.0  0.63292  0.41506  0.88457  1.0000
  H   H1908     1.0  0.65460  0.48874  0.74931  1.0000
  H   H1909     1.0  0.57394  0.42057  0.08508  1.0000
  H   H1910     1.0  0.53780  0.33823  0.66207  1.0000
  H   H1911     1.0  0.65725  0.47641  0.84061  1.0000
  H   H1912     1.0  0.71627  0.43101  0.92756  1.0000
  H   H1913     1.0  0.60636  0.48893  0.24233  1.0000
  H   H1914     1.0  0.73749  0.27163  0.85817  1.0000
  H   H1915     1.0  0.57529  0.49162  0.55685  1.0000
  S   S343      1.0  0.63986  0.46094  0.73120  1.0000
  H   H1916     1.0  0.54953  0.49249  0.99338  1.0000
  H   H1917     1.0  0.56016  0.36270  0.10915  1.0000
  H   H1918     1.0  0.56632  0.37478  0.61468  1.0000
  H   H1919     1.0  0.57601  0.34998  0.64576  1.0000
  H   H1920     1.0  0.59931  0.49322  0.53470  1.0000
  H   H1921     1.0  0.54184  0.48462  0.21244  1.0000
  H   H1922     1.0  0.73978  0.48228  0.20039  1.0000
  H   H1923     1.0  0.58688  0.31206  0.99383  1.0000
  H   H1924     1.0  0.66860  0.30452  0.01432  1.0000
  C   C1139     1.0  0.64173  0.29230  0.11064  1.0000
  H   H1925     1.0  0.63880  0.27683  0.64943  1.0000
  H   H1926     1.0  0.60527  0.47750  0.15328  1.0000
  H   H1927     1.0  0.57187  0.34471  0.69421  1.0000
  C   C1140     1.0  0.54708  0.47267  0.68296  1.0000
  H   H1928     1.0  0.67930  0.48993  0.82971  1.0000
  H   H1929     1.0  0.61013  0.40133  0.64967  1.0000
  H   H1930     1.0  0.66897  0.29848  0.07958  1.0000
  H   H1931     1.0  0.52554  0.34985  0.68850  1.0000
  N   N77       1.0  0.54447  0.47628  0.61579  1.0000
  H   H1932     1.0  0.62445  0.25880  0.10191  1.0000
  C   C1141     1.0  0.55125  0.33706  0.61408  1.0000
  C   C1142     1.0  0.64549  0.45679  0.26297  1.0000
  H   H1933     1.0  0.56575  0.37417  0.55074  1.0000
  H   H1934     1.0  0.63813  0.42766  0.17654  1.0000
  C   C1143     1.0  0.59896  0.30279  0.86935  1.0000
  H   H1935     1.0  0.56722  0.47527  0.56111  1.0000
  Fe  Fe172     1.0  0.61910  0.48719  0.33751  1.0000
  H   H1936     1.0  0.60772  0.48925  0.45663  1.0000
  H   H1937     1.0  0.63722  0.29572  0.08809  1.0000
  H   H1938     1.0  0.65553  0.29239  0.71470  1.0000
  H   H1939     1.0  0.54051  0.48731  0.13276  1.0000
  C   C1144     1.0  0.67130  0.48547  0.24023  1.0000
  H   H1940     1.0  0.72656  0.45275  0.92007  1.0000
  S   S344      1.0  0.49617  0.49315  0.13051  1.0000
  H   H1941     1.0  0.54359  0.48894  0.94075  1.0000
  Fe  Fe173     1.0  0.63528  0.47876  0.69949  1.0000
  H   H1942     1.0  0.62370  0.47408  0.82391  1.0000
  H   H1943     1.0  0.55178  0.45923  0.62667  1.0000
  C   C1145     1.0  0.61276  0.40977  0.66169  1.0000
  C   C1146     1.0  0.53506  0.49000  0.96030  1.0000
  H   H1944     1.0  0.64688  0.26307  0.79013  1.0000
  S   S345      1.0  0.70232  0.25122  0.72529  1.0000
  H   H1945     1.0  0.61892  0.44938  0.62432  1.0000
  H   H1946     1.0  0.61374  0.40604  0.68993  1.0000
  H   H1947     1.0  0.50625  0.43741  0.64299  1.0000
  N   N78       1.0  0.60597  0.43151  0.65970  1.0000
  S   S346      1.0  0.62820  0.47890  0.64782  1.0000
  H   H1948     1.0  0.71670  0.28878  0.95331  1.0000
  C   C1147     1.0  0.67661  0.48497  0.80840  1.0000
  H   H1949     1.0  0.57053  0.37848  0.08865  1.0000
  H   H1950     1.0  0.59523  0.25120  0.90356  1.0000
  H   H1951     1.0  0.71087  0.28569  0.81451  1.0000
  C   C1148     1.0  0.65927  0.29961  0.03496  1.0000
  H   H1952     1.0  0.60316  0.42696  0.71902  1.0000
  H   H1953     1.0  0.72266  0.44585  0.22868  1.0000
  C   C1149     1.0  0.65106  0.29929  0.66369  1.0000
  N   N79       1.0  0.55267  0.39036  0.13388  1.0000
  C   C1150     1.0  0.55554  0.37717  0.13820  1.0000
  C   C1151     1.0  0.55040  0.39310  0.17153  1.0000
  C   C1152     1.0  0.54101  0.39007  0.11750  1.0000
  C   C1153     1.0  0.56028  0.37315  0.10235  1.0000
  C   C1154     1.0  0.53951  0.38285  0.20142  1.0000
  C   C1155     1.0  0.53308  0.40006  0.12471  1.0000
  H   H1954     1.0  0.56303  0.37648  0.15426  1.0000
  H   H1955     1.0  0.54678  0.36935  0.15434  1.0000
  H   H1956     1.0  0.54818  0.40260  0.17136  1.0000
  H   H1957     1.0  0.55946  0.39391  0.18158  1.0000
  H   H1958     1.0  0.53392  0.38038  0.12843  1.0000
  H   H1959     1.0  0.55396  0.37449  0.08304  1.0000
  H   H1960     1.0  0.53053  0.38000  0.19193  1.0000
  H   H1961     1.0  0.54287  0.37410  0.21123  1.0000
  H   H1962     1.0  0.53481  0.45609  0.63608  1.0000
  H   H1963     1.0  0.52931  0.40312  0.10024  1.0000
  H   H1964     1.0  0.52431  0.39550  0.14769  1.0000
  H   H1965     1.0  0.62233  0.41549  0.64402  1.0000
  Fe  Fe174     1.0  0.73746  0.27236  0.07069  1.0000
  C   C1156     1.0  0.71433  0.27942  0.94536  1.0000
  H   H1966     1.0  0.59774  0.45712  0.46250  1.0000
  H   H1967     1.0  0.64718  0.44202  0.78053  1.0000
  H   H1968     1.0  0.73871  0.42646  0.91877  1.0000
  H   H1969     1.0  0.52721  0.48100  0.96446  1.0000
  H   H1970     1.0  0.59630  0.42512  0.36389  1.0000
  H   H1971     1.0  0.60641  0.44045  0.58195  1.0000
  H   H1972     1.0  0.59959  0.42065  0.49905  1.0000
  C   C1157     1.0  0.53952  0.47723  0.65472  1.0000
  H   H1973     1.0  0.52366  0.48376  0.26809  1.0000
  H   H1974     1.0  0.59743  0.31991  0.92837  1.0000
  C   C1158     1.0  0.54367  0.34500  0.63561  1.0000
  C   C1159     1.0  0.56183  0.36539  0.60918  1.0000
  C   C1160     1.0  0.58169  0.48050  0.77979  1.0000
  H   H1975     1.0  0.64078  0.30994  0.12865  1.0000
  H   H1976     1.0  0.57954  0.42475  0.46712  1.0000
  H   H1977     1.0  0.56294  0.41779  0.12820  1.0000
  H   H1978     1.0  0.58855  0.30341  0.93962  1.0000
  H   H1979     1.0  0.55682  0.47933  0.67830  1.0000
  H   H1980     1.0  0.53687  0.49223  0.59380  1.0000
  N   N80       1.0  0.73614  0.45223  0.26071  1.0000
  C   C1161     1.0  0.52007  0.44897  0.20745  1.0000
  C   C1162     1.0  0.61539  0.45236  0.44381  1.0000
  H   H1981     1.0  0.58678  0.41889  0.41023  1.0000
  N   N81       1.0  0.72977  0.28609  0.88029  1.0000
  H   H1982     1.0  0.59741  0.29212  0.87714  1.0000
  H   H1983     1.0  0.72594  0.47442  0.23770  1.0000
  C   C1163     1.0  0.55771  0.35378  0.67424  1.0000
  H   H1984     1.0  0.50610  0.49482  0.23999  1.0000
  H   H1985     1.0  0.60832  0.43633  0.39931  1.0000
  H   H1986     1.0  0.60121  0.30572  0.83883  1.0000
  C   C1164     1.0  0.73468  0.42963  0.94367  1.0000
  C   C1165     1.0  0.59600  0.30936  0.98342  1.0000
  H   H1987     1.0  0.52404  0.46870  0.25648  1.0000
  C   C1166     1.0  0.54355  0.45809  0.57960  1.0000
  C   C1167     1.0  0.58251  0.43204  0.68946  1.0000
  H   H1988     1.0  0.72582  0.44610  0.98204  1.0000
  H   H1989     1.0  0.57971  0.46309  0.45017  1.0000
  H   H1990     1.0  0.56435  0.45287  0.45115  1.0000
  H   H1991     1.0  0.71474  0.42721  0.97675  1.0000
  H   H1992     1.0  0.67271  0.42110  0.23034  1.0000
  H   H1993     1.0  0.54710  0.46596  0.55430  1.0000
  C   C1168     1.0  0.56765  0.34556  0.66978  1.0000
  H   H1994     1.0  0.72382  0.26710  0.91805  1.0000
  H   H1995     1.0  0.59510  0.29949  0.99993  1.0000
  H   H1996     1.0  0.58734  0.47529  0.79604  1.0000
  C   C1169     1.0  0.72455  0.45232  0.28967  1.0000
  H   H1997     1.0  0.52935  0.47120  0.66632  1.0000
  H   H1998     1.0  0.56300  0.33551  0.66936  1.0000
  H   H1999     1.0  0.51489  0.49058  0.17549  1.0000
  H   H2000     1.0  0.57478  0.43679  0.68323  1.0000
  H   H2001     1.0  0.67731  0.43786  0.20796  1.0000
  C   C1170     1.0  0.58254  0.49388  0.78844  1.0000
  C   C1171     1.0  0.69050  0.38288  0.96058  1.0000
  C   C1172     1.0  0.59397  0.48840  0.18249  1.0000
  Fe  Fe175     1.0  0.71071  0.26384  0.05425  1.0000
  H   H2002     1.0  0.60398  0.31642  0.98887  1.0000
  C   C1173     1.0  0.58177  0.47931  0.24597  1.0000
  H   H2003     1.0  0.74132  0.43810  0.30048  1.0000
  H   H2004     1.0  0.65542  0.40007  0.95169  1.0000
  N   N82       1.0  0.55153  0.35708  0.64264  1.0000
  C   C1174     1.0  0.60214  0.45405  0.43789  1.0000
  S   S347      1.0  0.60001  0.47376  0.34254  1.0000
  H   H2005     1.0  0.59790  0.47778  0.49705  1.0000
  C   C1175     1.0  0.53610  0.48189  0.59305  1.0000
  H   H2006     1.0  0.67309  0.27350  0.10663  1.0000
  H   H2007     1.0  0.57818  0.49174  0.81841  1.0000
  C   C1176     1.0  0.74501  0.28513  0.74892  1.0000
  S   S348      1.0  0.73676  0.42462  0.84428  1.0000
  Fe  Fe176     1.0  0.49896  0.47334  0.12913  1.0000
  H   H2008     1.0  0.56398  0.48278  0.73997  1.0000
  S   S349      1.0  0.73070  0.27853  0.73548  1.0000
  H   H2009     1.0  0.70550  0.27858  0.93452  1.0000
  C   C1177     1.0  0.73381  0.29999  0.88264  1.0000
  H   H2010     1.0  0.66562  0.26444  0.15256  1.0000
  H   H2011     1.0  0.54829  0.48009  0.76911  1.0000
  H   H2012     1.0  0.53361  0.45253  0.58035  1.0000
  C   C1178     1.0  0.66183  0.48188  0.81155  1.0000
  N   N83       1.0  0.65112  0.44108  0.22245  1.0000
  H   H2013     1.0  0.58989  0.30559  0.87938  1.0000
  H   H2014     1.0  0.53638  0.34747  0.62029  1.0000
  C   C1179     1.0  0.66220  0.29170  0.06913  1.0000
  H   H2015     1.0  0.53449  0.49597  0.01360  1.0000
  Fe  Fe177     1.0  0.71752  0.42917  0.83772  1.0000
  H   H2016     1.0  0.57251  0.24999  0.91807  1.0000
  H   H2017     1.0  0.73739  0.43970  0.99948  1.0000
  C   C1180     1.0  0.65769  0.39229  0.97097  1.0000
  C   C1181     1.0  0.69256  0.37811  0.92464  1.0000
  H   H2018     1.0  0.69639  0.39311  0.95356  1.0000
  H   H2019     1.0  0.68373  0.37558  0.91435  1.0000
  H   H2020     1.0  0.53758  0.36812  0.63103  1.0000
  C   C1182     1.0  0.56434  0.41453  0.10238  1.0000
  H   H2021     1.0  0.54394  0.39128  0.08721  1.0000
  H   H2022     1.0  0.59061  0.43448  0.63225  1.0000
  C   C1183     1.0  0.66648  0.47005  0.72248  1.0000
  C   C1184     1.0  0.67186  0.27735  0.68702  1.0000
  H   H2023     1.0  0.55256  0.35999  0.56534  1.0000
  S   S350      1.0  0.63656  0.48041  0.34642  1.0000
  H   H2024     1.0  0.65652  0.39484  0.99792  1.0000
  H   H2025     1.0  0.69974  0.38580  0.90221  1.0000
  C   C1185     1.0  0.53156  0.35943  0.68860  1.0000
  H   H2026     1.0  0.71131  0.28981  0.87338  1.0000
  C   C1186     1.0  0.54253  0.36540  0.65321  1.0000
  H   H2027     1.0  0.54815  0.37474  0.65688  1.0000
  C   C1187     1.0  0.66779  0.44881  0.77540  1.0000
  S   S351      1.0  0.51224  0.48557  0.70170  1.0000
  H   H2028     1.0  0.64847  0.46063  0.28585  1.0000
  H   H2029     1.0  0.68714  0.47679  0.71709  1.0000
  H   H2030     1.0  0.59717  0.44764  0.65031  1.0000
  H   H2031     1.0  0.62459  0.43487  0.72523  1.0000
  C   C1188     1.0  0.65260  0.44621  0.25592  1.0000
  H   H2032     1.0  0.66304  0.45047  0.25433  1.0000
  H   H2033     1.0  0.64791  0.46518  0.23900  1.0000
  C   C1189     1.0  0.64814  0.30439  0.12259  1.0000
  C   C1190     1.0  0.65607  0.42899  0.22549  1.0000
  H   H2034     1.0  0.66822  0.44058  0.79570  1.0000
  H   H2035     1.0  0.63289  0.26334  0.74699  1.0000
  H   H2036     1.0  0.72376  0.42358  0.23518  1.0000
  H   H2037     1.0  0.60992  0.48150  0.60591  1.0000
  H   H2038     1.0  0.66609  0.47817  0.70167  1.0000
  C   C1191     1.0  0.54376  0.46225  0.61612  1.0000
  H   H2039     1.0  0.63624  0.25403  0.12337  1.0000
  C   C1192     1.0  0.59760  0.30992  0.94196  1.0000
  H   H2040     1.0  0.59831  0.28625  0.93684  1.0000
  H   H2041     1.0  0.72541  0.30284  0.89762  1.0000
  H   H2042     1.0  0.73424  0.27900  0.93252  1.0000
  H   H2043     1.0  0.57010  0.36109  0.60234  1.0000
  H   H2044     1.0  0.56259  0.36282  0.68088  1.0000
  C   C1193     1.0  0.58087  0.44643  0.42595  1.0000
  C   C1194     1.0  0.59906  0.43891  0.39800  1.0000
  H   H2045     1.0  0.57327  0.43794  0.42501  1.0000
  C   C1195     1.0  0.65515  0.46028  0.74040  1.0000
  H   H2046     1.0  0.56191  0.34093  0.60589  1.0000
  N   N84       1.0  0.59297  0.44245  0.43240  1.0000
  C   C1196     1.0  0.57430  0.45282  0.45454  1.0000
  C   C1197     1.0  0.59047  0.42770  0.38733  1.0000
  S   S352      1.0  0.61751  0.48350  0.72897  1.0000
  C   C1198     1.0  0.65588  0.44964  0.76673  1.0000
  H   H2047     1.0  0.74557  0.30746  0.82468  1.0000
  H   H2048     1.0  0.62744  0.25072  0.70760  1.0000
  H   H2049     1.0  0.58733  0.43494  0.49145  1.0000
  H   H2050     1.0  0.59458  0.41206  0.68849  1.0000
  C   C1199     1.0  0.52045  0.49118  0.89825  1.0000
  H   H2051     1.0  0.61147  0.26205  0.84509  1.0000
  H   H2052     1.0  0.62331  0.44191  0.56705  1.0000
  C   C1200     1.0  0.58540  0.26314  0.84980  1.0000
  H   H2053     1.0  0.64962  0.42121  0.24926  1.0000
  H   H2054     1.0  0.59632  0.46852  0.19810  1.0000
  C   C1201     1.0  0.59847  0.42244  0.47038  1.0000
  C   C1202     1.0  0.60971  0.43418  0.69420  1.0000
  H   H2055     1.0  0.54971  0.45116  0.57692  1.0000
  H   H2056     1.0  0.74547  0.31909  0.85061  1.0000
  C   C1203     1.0  0.60201  0.41712  0.66243  1.0000
  H   H2057     1.0  0.63309  0.47570  0.51489  1.0000
  H   H2058     1.0  0.71207  0.27351  0.87512  1.0000
  N   N85       1.0  0.59003  0.49170  0.21893  1.0000
  H   H2059     1.0  0.57792  0.27844  0.82292  1.0000
  H   H2060     1.0  0.67031  0.47958  0.29801  1.0000
  S   S353      1.0  0.51149  0.47989  0.07189  1.0000
  H   H2061     1.0  0.66117  0.28598  0.14125  1.0000
  H   H2062     1.0  0.65204  0.30903  0.66964  1.0000
  H   H2063     1.0  0.51527  0.44995  0.23393  1.0000
  C   C1204     1.0  0.64356  0.26615  0.73512  1.0000
  H   H2064     1.0  0.53693  0.38686  0.22564  1.0000
  H   H2065     1.0  0.65819  0.26335  0.67287  1.0000
  H   H2066     1.0  0.67280  0.26911  0.70783  1.0000
  C   C1205     1.0  0.64286  0.27343  0.08530  1.0000
  C   C1206     1.0  0.73386  0.47265  0.21775  1.0000
  S   S354      1.0  0.50444  0.46328  0.17969  1.0000
  C   C1207     1.0  0.53880  0.48981  0.99747  1.0000
  S   S355      1.0  0.73028  0.27482  0.01906  1.0000
  H   H2067     1.0  0.58607  0.48117  0.75062  1.0000
  C   C1208     1.0  0.61683  0.43872  0.62630  1.0000
  C   C1209     1.0  0.73645  0.45163  0.90948  1.0000
  H   H2068     1.0  0.59453  0.26694  0.82792  1.0000
  H   H2069     1.0  0.55770  0.49201  0.80430  1.0000
  Fe  Fe178     1.0  0.61166  0.48575  0.67571  1.0000
  H   H2070     1.0  0.68559  0.46558  0.28987  1.0000
  H   H2071     1.0  0.66934  0.26744  0.01973  1.0000
  H   H2072     1.0  0.63789  0.27766  0.06480  1.0000
  H   H2073     1.0  0.52190  0.49191  0.86824  1.0000
  C   C1210     1.0  0.60063  0.48824  0.48282  1.0000
  H   H2074     1.0  0.66027  0.27425  0.75698  1.0000
  N   N86       1.0  0.65049  0.28390  0.09937  1.0000
  Fe  Fe179     1.0  0.73347  0.25541  0.01528  1.0000
  C   C1211     1.0  0.63607  0.27151  0.67888  1.0000
  C   C1212     1.0  0.57511  0.48069  0.28409  1.0000
  H   H2075     1.0  0.60846  0.44386  0.69764  1.0000
  C   C1213     1.0  0.55829  0.48450  0.60233  1.0000
  C   C1214     1.0  0.68310  0.47073  0.26612  1.0000
  H   H2076     1.0  0.52963  0.47890  0.19045  1.0000
  C   C1215     1.0  0.64800  0.28902  0.70030  1.0000
  H   H2077     1.0  0.74200  0.46023  0.00955  1.0000
  N   N87       1.0  0.64699  0.27520  0.69733  1.0000
  S   S356      1.0  0.63975  0.48651  0.43769  1.0000
  H   H2078     1.0  0.58483  0.43471  0.71446  1.0000
  H   H2079     1.0  0.52110  0.48137  0.91126  1.0000
  H   H2080     1.0  0.57823  0.42143  0.69525  1.0000
  H   H2081     1.0  0.71650  0.45437  0.27713  1.0000
  H   H2082     1.0  0.65319  0.29333  0.02172  1.0000
  C   C1216     1.0  0.67443  0.47864  0.27082  1.0000
  C   C1217     1.0  0.65925  0.27366  0.67414  1.0000
  H   H2083     1.0  0.59681  0.41494  0.64096  1.0000
  H   H2084     1.0  0.73556  0.44643  0.88720  1.0000
  H   H2085     1.0  0.71983  0.42614  0.28041  1.0000
  H   H2086     1.0  0.62681  0.42573  0.69158  1.0000
  H   H2087     1.0  0.66804  0.28525  0.05883  1.0000
  C   C1218     1.0  0.65799  0.24818  0.04964  1.0000
  H   H2088     1.0  0.62729  0.27438  0.69160  1.0000
  H   H2089     1.0  0.65975  0.47479  0.79462  1.0000
  C   C1219     1.0  0.72758  0.42883  0.25468  1.0000
  H   H2090     1.0  0.51651  0.47695  0.63020  1.0000
  H   H2091     1.0  0.67278  0.28612  0.69792  1.0000
  C   C1220     1.0  0.63830  0.48575  0.51025  1.0000
  S   S357      1.0  0.59091  0.47882  0.67364  1.0000
  H   H2092     1.0  0.61105  0.48121  0.19170  1.0000
  H   H2093     1.0  0.66104  0.27883  0.64480  1.0000
  C   C1221     1.0  0.60212  0.47834  0.18197  1.0000
  H   H2094     1.0  0.65460  0.30734  0.04137  1.0000
  C   C1222     1.0  0.62378  0.43442  0.69692  1.0000
  H   H2095     1.0  0.62614  0.43626  0.62813  1.0000
  H   H2096     1.0  0.53944  0.48220  0.56358  1.0000
  S   S358      1.0  0.69362  0.27081  0.04071  1.0000
  H   H2097     1.0  0.55867  0.49471  0.60400  1.0000
  C   C1223     1.0  0.73644  0.44699  0.97597  1.0000
  C   C1224     1.0  0.74269  0.46565  0.23674  1.0000
  C   C1225     1.0  0.74587  0.44742  0.27944  1.0000
  H   H2098     1.0  0.68034  0.27985  0.66304  1.0000
  H   H2099     1.0  0.51967  0.46419  0.60839  1.0000
  H   H2100     1.0  0.65136  0.30174  0.14821  1.0000
  C   C1226     1.0  0.59435  0.43685  0.65597  1.0000
  S   S359      1.0  0.66083  0.49587  0.24434  1.0000
  H   H2101     1.0  0.63639  0.48485  0.56798  1.0000
  C   C1227     1.0  0.67678  0.48420  0.20506  1.0000
  H   H2102     1.0  0.73049  0.47217  0.29779  1.0000
  H   H2103     1.0  0.74097  0.30130  0.89989  1.0000
  H   H2104     1.0  0.61269  0.42617  0.58847  1.0000
  H   H2105     1.0  0.55325  0.49294  0.72924  1.0000
  H   H2106     1.0  0.53542  0.47971  0.01486  1.0000
  H   H2107     1.0  0.51216  0.47665  0.24394  1.0000
  H   H2108     1.0  0.56060  0.48848  0.54194  1.0000
  C   C1228     1.0  0.60796  0.25132  0.85253  1.0000
  C   C1229     1.0  0.63414  0.47634  0.80966  1.0000
  H   H2109     1.0  0.57155  0.47440  0.78826  1.0000
  C   C1230     1.0  0.53195  0.48516  0.20938  1.0000
  S   S360      1.0  0.74333  0.43274  0.14689  1.0000
  C   C1231     1.0  0.64153  0.48865  0.81868  1.0000
  H   H2110     1.0  0.67954  0.47568  0.81338  1.0000
  H   H2111     1.0  0.56947  0.47090  0.30111  1.0000
  C   C1232     1.0  0.56551  0.48486  0.56317  1.0000
  N   N88       1.0  0.74089  0.44381  0.93967  1.0000
  H   H2112     1.0  0.68899  0.25709  0.96460  1.0000
  S   S361      1.0  0.74219  0.25350  0.06436  1.0000
  H   H2113     1.0  0.51067  0.49153  0.96870  1.0000
  H   H2114     1.0  0.51052  0.49226  0.90802  1.0000
  H   H2115     1.0  0.73111  0.31325  0.83502  1.0000
  H   H2116     1.0  0.63944  0.25332  0.66504  1.0000
  C   C1233     1.0  0.73137  0.44354  0.23707  1.0000
  H   H2117     1.0  0.73994  0.47027  0.87110  1.0000
  H   H2118     1.0  0.67651  0.25322  0.91530  1.0000
  H   H2119     1.0  0.64965  0.24900  0.03878  1.0000
  C   C1234     1.0  0.74263  0.46063  0.97994  1.0000
  H   H2120     1.0  0.59166  0.49065  0.47716  1.0000
  H   H2121     1.0  0.73861  0.44529  0.21068  1.0000
  H   H2122     1.0  0.58224  0.48445  0.29921  1.0000
  C   C1235     1.0  0.64291  0.49353  0.47420  1.0000
  H   H2123     1.0  0.61509  0.49253  0.51308  1.0000
  H   H2124     1.0  0.73689  0.42340  0.96714  1.0000
  H   H2125     1.0  0.60803  0.24761  0.82744  1.0000
  N   N89       1.0  0.65599  0.49317  0.80137  1.0000
  H   H2126     1.0  0.56814  0.48681  0.28238  1.0000
  S   S362      1.0  0.70296  0.25265  0.80974  1.0000
  Fe  Fe180     1.0  0.63880  0.49548  0.37972  1.0000
  H   H2127     1.0  0.68242  0.49064  0.78085  1.0000
  H   H2128     1.0  0.58887  0.24701  0.80929  1.0000
  N   N90       1.0  0.58300  0.24874  0.86514  1.0000
  H   H2129     1.0  0.61519  0.24762  0.86575  1.0000
  C   C1236     1.0  0.69186  0.24783  0.96577  1.0000
  H   H2130     1.0  0.69806  0.24810  0.93885  1.0000
  H   H2131     1.0  0.69799  0.24728  0.98594  1.0000
  C   C1237     1.0  0.60658  0.49618  0.50781  1.0000
  H   H2132     1.0  0.63654  0.49629  0.81004  1.0000
  H   H2133     1.0  0.57158  0.49623  0.21674  1.0000
  C   C1238     1.0  0.65551  0.24675  0.92682  1.0000
  C   C1239     1.0  0.66841  0.24708  0.93880  1.0000
  H   H2134     1.0  0.51198  0.64501  0.51836  1.0000
  H   H2135     1.0  0.56768  0.51431  0.70718  1.0000
  H   H2136     1.0  0.68185  0.51846  0.14808  1.0000
  Fe  Fe181     1.0  0.50597  0.63890  0.34567  1.0000
  S   S363      1.0  0.51822  0.64001  0.28968  1.0000
  H   H2137     1.0  0.63679  0.52815  0.45460  1.0000
  S   S364      1.0  0.62036  0.50106  0.37344  1.0000
  H   H2138     1.0  0.60198  0.53365  0.45202  1.0000
  Fe  Fe182     1.0  0.50880  0.61857  0.30177  1.0000
  S   S365      1.0  0.51577  0.60039  0.29945  1.0000
  H   H2139     1.0  0.51612  0.52143  0.84558  1.0000
  H   H2140     1.0  0.51592  0.66259  0.72570  1.0000
  H   H2141     1.0  0.50827  0.64132  0.72146  1.0000
  S   S366      1.0  0.51588  0.63158  0.64014  1.0000
  H   H2142     1.0  0.52491  0.59066  0.19390  1.0000
  S   S367      1.0  0.62972  0.50191  0.28584  1.0000
  H   H2143     1.0  0.65737  0.52152  0.49409  1.0000
  H   H2144     1.0  0.66503  0.53906  0.28213  1.0000
  H   H2145     1.0  0.57964  0.51926  0.18354  1.0000
  C   C1240     1.0  0.57841  0.51616  0.70135  1.0000
  H   H2146     1.0  0.54382  0.51472  0.14787  1.0000
  C   C1241     1.0  0.54808  0.55004  0.67581  1.0000
  C   C1242     1.0  0.67498  0.54112  0.26441  1.0000
  H   H2147     1.0  0.59364  0.50981  0.72278  1.0000
  H   H2148     1.0  0.54852  0.54550  0.65205  1.0000
  Fe  Fe183     1.0  0.57488  0.57384  0.86570  1.0000
  S   S368      1.0  0.58502  0.58387  0.80642  1.0000
  S   S369      1.0  0.58015  0.58243  0.91233  1.0000
  Fe  Fe184     1.0  0.55456  0.55551  0.84417  1.0000
  S   S370      1.0  0.56266  0.56427  0.78415  1.0000
  S   S371      1.0  0.53697  0.53867  0.86254  1.0000
  Fe  Fe185     1.0  0.58198  0.56371  0.79663  1.0000
  S   S372      1.0  0.59355  0.55704  0.75073  1.0000
  Fe  Fe186     1.0  0.56492  0.58345  0.79830  1.0000
  S   S373      1.0  0.56134  0.60042  0.75978  1.0000
  S   S374      1.0  0.57355  0.55369  0.85662  1.0000
  S   S375      1.0  0.55499  0.57473  0.85780  1.0000
  Fe  Fe187     1.0  0.57089  0.54674  0.20934  1.0000
  S   S376      1.0  0.56158  0.53879  0.16819  1.0000
  S   S377      1.0  0.57639  0.53112  0.24789  1.0000
  Fe  Fe188     1.0  0.56533  0.57298  0.18404  1.0000
  S   S378      1.0  0.55619  0.56715  0.13962  1.0000
  S   S379      1.0  0.56517  0.59310  0.19293  1.0000
  Fe  Fe189     1.0  0.54615  0.54895  0.18280  1.0000
  S   S380      1.0  0.52509  0.54053  0.18594  1.0000
  Fe  Fe190     1.0  0.57233  0.55748  0.12709  1.0000
  S   S381      1.0  0.57963  0.55228  0.07324  1.0000
  S   S382      1.0  0.55416  0.55514  0.22823  1.0000
  S   S383      1.0  0.58285  0.56501  0.16755  1.0000
  S   S384      1.0  0.53513  0.51328  0.72797  1.0000
  H   H2149     1.0  0.65120  0.50351  0.75321  1.0000
  Fe  Fe191     1.0  0.63257  0.51550  0.32207  1.0000
  H   H2150     1.0  0.52051  0.50763  0.15941  1.0000
  S   S385      1.0  0.62919  0.53504  0.30019  1.0000
  C   C1243     1.0  0.67554  0.53332  0.23460  1.0000
  H   H2151     1.0  0.67217  0.50744  0.80852  1.0000
  H   H2152     1.0  0.51253  0.61033  0.48045  1.0000
  H   H2153     1.0  0.53823  0.62482  0.39317  1.0000
  H   H2154     1.0  0.53500  0.57360  0.05431  1.0000
  H   H2155     1.0  0.55252  0.57871  0.04327  1.0000
  H   H2156     1.0  0.64575  0.54477  0.18521  1.0000
  S   S386      1.0  0.65151  0.51141  0.33090  1.0000
  Fe  Fe192     1.0  0.62863  0.50434  0.70777  1.0000
  Fe  Fe193     1.0  0.50216  0.61453  0.68266  1.0000
  S   S387      1.0  0.62719  0.51537  0.75273  1.0000
  H   H2157     1.0  0.66169  0.52410  0.81963  1.0000
  H   H2158     1.0  0.49914  0.65169  0.78284  1.0000
  C   C1244     1.0  0.61209  0.50866  0.20909  1.0000
  S   S388      1.0  0.52319  0.51718  0.04842  1.0000
  H   H2159     1.0  0.63332  0.52858  0.41074  1.0000
  H   H2160     1.0  0.52645  0.62174  0.77812  1.0000
  H   H2161     1.0  0.65934  0.50083  0.84791  1.0000
  S   S389      1.0  0.62128  0.50695  0.65645  1.0000
  H   H2162     1.0  0.58266  0.52617  0.70330  1.0000
  H   H2163     1.0  0.55203  0.50297  0.16322  1.0000
  H   H2164     1.0  0.55457  0.63276  0.37363  1.0000
  H   H2165     1.0  0.53482  0.56512  0.78482  1.0000
  H   H2166     1.0  0.53607  0.64986  0.78575  1.0000
  H   H2167     1.0  0.52299  0.54564  0.74328  1.0000
  H   H2168     1.0  0.65248  0.54036  0.24362  1.0000
  H   H2169     1.0  0.53389  0.66769  0.67840  1.0000
  H   H2170     1.0  0.61285  0.51287  0.43477  1.0000
  H   H2171     1.0  0.51701  0.57386  0.20830  1.0000
  H   H2172     1.0  0.60220  0.51768  0.56214  1.0000
  Fe  Fe194     1.0  0.63838  0.50016  0.63097  1.0000
  C   C1245     1.0  0.51604  0.58336  0.19380  1.0000
  H   H2173     1.0  0.54069  0.62045  0.29989  1.0000
  H   H2174     1.0  0.55673  0.50510  0.76999  1.0000
  H   H2175     1.0  0.58451  0.50886  0.15594  1.0000
  C   C1246     1.0  0.59126  0.53267  0.26153  1.0000
  C   C1247     1.0  0.59312  0.52187  0.28478  1.0000
  C   C1248     1.0  0.60479  0.52249  0.29609  1.0000
  C   C1249     1.0  0.61463  0.53406  0.28507  1.0000
  C   C1250     1.0  0.61277  0.54492  0.26198  1.0000
  C   C1251     1.0  0.60116  0.54421  0.24996  1.0000
  H   H2176     1.0  0.58544  0.51299  0.29442  1.0000
  H   H2177     1.0  0.60604  0.51408  0.31407  1.0000
  H   H2178     1.0  0.62032  0.55391  0.25336  1.0000
  H   H2179     1.0  0.59982  0.55261  0.23214  1.0000
  C   C1252     1.0  0.52432  0.53582  0.14489  1.0000
  C   C1253     1.0  0.53580  0.53686  0.11917  1.0000
  C   C1254     1.0  0.53542  0.53140  0.08898  1.0000
  C   C1255     1.0  0.52350  0.52531  0.08365  1.0000
  C   C1256     1.0  0.51193  0.52508  0.10781  1.0000
  C   C1257     1.0  0.51232  0.53023  0.13870  1.0000
  H   H2180     1.0  0.54507  0.54158  0.12280  1.0000
  H   H2181     1.0  0.54441  0.53162  0.07037  1.0000
  S   S390      1.0  0.51291  0.64891  0.38774  1.0000
  H   H2182     1.0  0.50339  0.52959  0.15816  1.0000
  C   C1258     1.0  0.61795  0.52705  0.75214  1.0000
  C   C1259     1.0  0.61420  0.53136  0.78407  1.0000
  C   C1260     1.0  0.60670  0.54054  0.78436  1.0000
  C   C1261     1.0  0.60308  0.54563  0.75244  1.0000
  C   C1262     1.0  0.60697  0.54140  0.72050  1.0000
  C   C1263     1.0  0.61425  0.53209  0.72040  1.0000
  H   H2183     1.0  0.61709  0.52758  0.80870  1.0000
  H   H2184     1.0  0.60384  0.54379  0.80904  1.0000
  H   H2185     1.0  0.60432  0.54537  0.69563  1.0000
  H   H2186     1.0  0.61721  0.52900  0.69553  1.0000
  C   C1264     1.0  0.53575  0.51948  0.76682  1.0000
  C   C1265     1.0  0.52451  0.51718  0.79479  1.0000
  C   C1266     1.0  0.52494  0.52284  0.82470  1.0000
  C   C1267     1.0  0.53667  0.53056  0.82710  1.0000
  C   C1268     1.0  0.54805  0.53216  0.80032  1.0000
  C   C1269     1.0  0.54753  0.52692  0.76972  1.0000
  H   H2187     1.0  0.50381  0.58842  0.58138  1.0000
  H   H2188     1.0  0.68602  0.53478  0.22207  1.0000
  H   H2189     1.0  0.55726  0.53755  0.80291  1.0000
  H   H2190     1.0  0.55623  0.52875  0.74813  1.0000
  C   C1270     1.0  0.57993  0.57381  0.95683  1.0000
  C   C1271     1.0  0.58091  0.58062  0.98442  1.0000
  C   C1272     1.0  0.58035  0.57409  0.02054  1.0000
  C   C1273     1.0  0.57918  0.56072  0.02914  1.0000
  C   C1274     1.0  0.57830  0.55392  0.00148  1.0000
  C   C1275     1.0  0.57851  0.56039  0.96557  1.0000
  H   H2191     1.0  0.58205  0.59100  0.97784  1.0000
  H   H2192     1.0  0.58120  0.57945  0.04146  1.0000
  H   H2193     1.0  0.57752  0.54360  0.00785  1.0000
  H   H2194     1.0  0.57781  0.55506  0.94455  1.0000
  H   H2195     1.0  0.51053  0.51268  0.92346  1.0000
  H   H2196     1.0  0.55569  0.51805  0.89516  1.0000
  H   H2197     1.0  0.54406  0.65637  0.72187  1.0000
  H   H2198     1.0  0.51620  0.52135  0.95583  1.0000
  H   H2199     1.0  0.54221  0.65758  0.65662  1.0000
  C   C1276     1.0  0.51234  0.64661  0.46082  1.0000
  C   C1277     1.0  0.66143  0.50417  0.81740  1.0000
  C   C1278     1.0  0.64707  0.50382  0.53483  1.0000
  H   H2200     1.0  0.52491  0.65260  0.67214  1.0000
  C   C1279     1.0  0.68698  0.55597  0.16676  1.0000
  C   C1280     1.0  0.52127  0.60138  0.73856  1.0000
  C   C1281     1.0  0.52224  0.59312  0.77052  1.0000
  C   C1282     1.0  0.53446  0.59288  0.77771  1.0000
  C   C1283     1.0  0.54577  0.60104  0.75318  1.0000
  C   C1284     1.0  0.54476  0.60965  0.72195  1.0000
  C   C1285     1.0  0.53256  0.60976  0.71445  1.0000
  H   H2201     1.0  0.51353  0.58666  0.78940  1.0000
  H   H2202     1.0  0.53514  0.58636  0.80211  1.0000
  H   H2203     1.0  0.55351  0.61600  0.70293  1.0000
  H   H2204     1.0  0.53193  0.61613  0.68972  1.0000
  S   S391      1.0  0.51292  0.61842  0.54737  1.0000
  C   C1286     1.0  0.54251  0.62524  0.32227  1.0000
  H   H2205     1.0  0.57323  0.61132  0.28843  1.0000
  C   C1287     1.0  0.53112  0.55375  0.74395  1.0000
  C   C1288     1.0  0.61818  0.51629  0.51853  1.0000
  H   H2206     1.0  0.58920  0.51971  0.77393  1.0000
  C   C1289     1.0  0.51241  0.64016  0.43227  1.0000
  H   H2207     1.0  0.65825  0.52048  0.77838  1.0000
  H   H2208     1.0  0.59308  0.49863  0.78437  1.0000
  C   C1290     1.0  0.51216  0.62686  0.50374  1.0000
  C   C1291     1.0  0.51234  0.62043  0.47510  1.0000
  C   C1292     1.0  0.51226  0.62700  0.43963  1.0000
  H   H2209     1.0  0.52686  0.50499  0.24449  1.0000
  H   H2210     1.0  0.54035  0.50138  0.88916  1.0000
  C   C1293     1.0  0.52823  0.64207  0.78224  1.0000
  H   H2211     1.0  0.51237  0.62197  0.41784  1.0000
  C   C1294     1.0  0.52914  0.59875  0.26764  1.0000
  C   C1295     1.0  0.53138  0.58638  0.27028  1.0000
  C   C1296     1.0  0.54218  0.58454  0.24692  1.0000
  C   C1297     1.0  0.55103  0.59509  0.22096  1.0000
  C   C1298     1.0  0.54877  0.60750  0.21816  1.0000
  C   C1299     1.0  0.53777  0.60931  0.24112  1.0000
  H   H2212     1.0  0.52477  0.57814  0.29068  1.0000
  H   H2213     1.0  0.54380  0.57498  0.24964  1.0000
  H   H2214     1.0  0.55554  0.61571  0.19807  1.0000
  H   H2215     1.0  0.53609  0.61889  0.23856  1.0000
  H   H2216     1.0  0.57780  0.50930  0.83880  1.0000
  C   C1300     1.0  0.61898  0.51391  0.45483  1.0000
  C   C1301     1.0  0.53545  0.65021  0.71605  1.0000
  C   C1302     1.0  0.51945  0.65906  0.75036  1.0000
  C   C1303     1.0  0.55215  0.61544  0.41429  1.0000
  H   H2217     1.0  0.58199  0.49740  0.71540  1.0000
  C   C1304     1.0  0.56115  0.61628  0.33349  1.0000
  C   C1305     1.0  0.53080  0.50201  0.90467  1.0000
  C   C1306     1.0  0.64977  0.50647  0.46844  1.0000
  C   C1307     1.0  0.61083  0.51366  0.55909  1.0000
  C   C1308     1.0  0.53387  0.65742  0.67890  1.0000
  H   H2218     1.0  0.53835  0.64132  0.71106  1.0000
  C   C1309     1.0  0.67245  0.55061  0.18582  1.0000
  C   C1310     1.0  0.54777  0.62291  0.38220  1.0000
  C   C1311     1.0  0.57860  0.51534  0.77951  1.0000
  H   H2219     1.0  0.69329  0.55485  0.18618  1.0000
  H   H2220     1.0  0.60805  0.50320  0.57305  1.0000
  H   H2221     1.0  0.59118  0.51146  0.52057  1.0000
  C   C1312     1.0  0.62876  0.52737  0.44027  1.0000
  C   C1313     1.0  0.51198  0.63993  0.49660  1.0000
  H   H2222     1.0  0.51736  0.62973  0.72837  1.0000
  H   H2223     1.0  0.54294  0.63188  0.76308  1.0000
  H   H2224     1.0  0.59829  0.49949  0.25981  1.0000
  C   C1314     1.0  0.54250  0.50410  0.15838  1.0000
  H   H2225     1.0  0.62503  0.50686  0.45219  1.0000
  H   H2226     1.0  0.50266  0.52079  0.10296  1.0000
  H   H2227     1.0  0.50643  0.66802  0.78112  1.0000
  H   H2228     1.0  0.62162  0.50817  0.21516  1.0000
  H   H2229     1.0  0.54600  0.57824  0.73110  1.0000
  H   H2230     1.0  0.51540  0.51131  0.79302  1.0000
  C   C1315     1.0  0.58176  0.50130  0.21568  1.0000
  C   C1316     1.0  0.57276  0.51444  0.82039  1.0000
  C   C1317     1.0  0.50837  0.65827  0.78333  1.0000
  H   H2231     1.0  0.53510  0.62642  0.81071  1.0000
  N   N91       1.0  0.61055  0.51077  0.49347  1.0000
  C   C1318     1.0  0.50233  0.62826  0.77562  1.0000
  C   C1319     1.0  0.65642  0.51645  0.80841  1.0000
  C   C1320     1.0  0.51114  0.51183  0.95241  1.0000
  H   H2232     1.0  0.69081  0.53167  0.16200  1.0000
  C   C1321     1.0  0.53873  0.60339  0.36079  1.0000
  H   H2233     1.0  0.50580  0.54891  0.05114  1.0000
  H   H2234     1.0  0.65352  0.51249  0.44076  1.0000
  H   H2235     1.0  0.65072  0.52368  0.24405  1.0000
  H   H2236     1.0  0.66148  0.51853  0.18970  1.0000
  C   C1322     1.0  0.65199  0.51153  0.49866  1.0000
  H   H2237     1.0  0.54710  0.61706  0.44058  1.0000
  H   H2238     1.0  0.53962  0.51512  0.97385  1.0000
  N   N92       1.0  0.54756  0.61695  0.34974  1.0000
  C   C1323     1.0  0.55441  0.51629  0.92538  1.0000
  H   H2239     1.0  0.68892  0.56655  0.15466  1.0000
  H   H2240     1.0  0.66993  0.55678  0.20487  1.0000
  H   H2241     1.0  0.50099  0.50951  0.96910  1.0000
  H   H2242     1.0  0.58109  0.50585  0.23946  1.0000
  H   H2243     1.0  0.52785  0.66698  0.75043  1.0000
  H   H2244     1.0  0.68278  0.51645  0.19474  1.0000
  H   H2245     1.0  0.67886  0.55171  0.25258  1.0000
  S   S392      1.0  0.50252  0.66208  0.66078  1.0000
  H   H2246     1.0  0.57467  0.52269  0.76383  1.0000
  N   N93       1.0  0.52374  0.64679  0.74824  1.0000
  C   C1324     1.0  0.52670  0.55836  0.77908  1.0000
  H   H2247     1.0  0.51483  0.56390  0.71859  1.0000
  H   H2248     1.0  0.56103  0.61849  0.27463  1.0000
  S   S393      1.0  0.64910  0.51082  0.57223  1.0000
  H   H2249     1.0  0.55004  0.59273  0.67412  1.0000
  H   H2250     1.0  0.64445  0.52807  0.18227  1.0000
  H   H2251     1.0  0.51076  0.51180  0.21636  1.0000
  H   H2252     1.0  0.51253  0.65681  0.45528  1.0000
  H   H2253     1.0  0.53933  0.56394  0.65000  1.0000
  H   H2254     1.0  0.51930  0.59162  0.38955  1.0000
  C   C1325     1.0  0.50404  0.58687  0.21418  1.0000
  H   H2255     1.0  0.52332  0.54984  0.80302  1.0000
  Fe  Fe195     1.0  0.50526  0.62440  0.59949  1.0000
  C   C1326     1.0  0.52454  0.57085  0.70593  1.0000
  C   C1327     1.0  0.55118  0.63909  0.30403  1.0000
  H   H2256     1.0  0.55179  0.64522  0.32405  1.0000
  H   H2257     1.0  0.52795  0.54993  0.67917  1.0000
  H   H2258     1.0  0.52591  0.60292  0.41380  1.0000
  H   H2259     1.0  0.59315  0.51139  0.47421  1.0000
  H   H2260     1.0  0.55681  0.60181  0.30081  1.0000
  C   C1328     1.0  0.53715  0.55718  0.67739  1.0000
  C   C1329     1.0  0.54771  0.57331  0.70843  1.0000
  H   H2261     1.0  0.62420  0.53549  0.44209  1.0000
  C   C1330     1.0  0.58592  0.51246  0.18055  1.0000
  H   H2262     1.0  0.66715  0.55260  0.16400  1.0000
  H   H2263     1.0  0.54961  0.60481  0.41762  1.0000
  C   C1331     1.0  0.65397  0.53362  0.22560  1.0000
  H   H2264     1.0  0.56214  0.50999  0.82875  1.0000
  H   H2265     1.0  0.54675  0.64386  0.28304  1.0000
  N   N94       1.0  0.53529  0.56402  0.70810  1.0000
  H   H2266     1.0  0.51994  0.60833  0.37389  1.0000
  H   H2267     1.0  0.53917  0.54928  0.74867  1.0000
  H   H2268     1.0  0.56444  0.60951  0.35334  1.0000
  H   H2269     1.0  0.56827  0.62582  0.32854  1.0000
  C   C1332     1.0  0.66920  0.52784  0.17920  1.0000
  H   H2270     1.0  0.62685  0.51238  0.51833  1.0000
  H   H2271     1.0  0.53283  0.58449  0.65088  1.0000
  H   H2272     1.0  0.55509  0.56814  0.71532  1.0000
  H   H2273     1.0  0.52526  0.57830  0.72215  1.0000
  C   C1333     1.0  0.56296  0.61171  0.29737  1.0000
  H   H2274     1.0  0.55851  0.50816  0.93547  1.0000
  H   H2275     1.0  0.50517  0.58600  0.24281  1.0000
  C   C1334     1.0  0.55429  0.58429  0.67364  1.0000
  H   H2276     1.0  0.52015  0.57047  0.65213  1.0000
  H   H2277     1.0  0.51632  0.58345  0.67094  1.0000
  C   C1335     1.0  0.52361  0.57765  0.66751  1.0000
  H   H2278     1.0  0.51085  0.65564  0.81011  1.0000
  H   H2279     1.0  0.54621  0.54205  0.70049  1.0000
  C   C1336     1.0  0.64425  0.53467  0.20104  1.0000
  H   H2280     1.0  0.50182  0.63171  0.80103  1.0000
  H   H2281     1.0  0.52948  0.51136  0.89056  1.0000
  H   H2282     1.0  0.66748  0.53243  0.15249  1.0000
  H   H2283     1.0  0.63425  0.53181  0.21907  1.0000
  N   N95       1.0  0.66811  0.53647  0.20587  1.0000
  H   H2284     1.0  0.55777  0.55675  0.67168  1.0000
  H   H2285     1.0  0.51767  0.50118  0.99529  1.0000
  S   S394      1.0  0.50587  0.60033  0.72888  1.0000
  C   C1337     1.0  0.54004  0.51419  0.94518  1.0000
  H   H2286     1.0  0.61746  0.51854  0.57403  1.0000
  H   H2287     1.0  0.56481  0.58753  0.67269  1.0000
  H   H2288     1.0  0.68979  0.55151  0.14371  1.0000
  H   H2289     1.0  0.60768  0.53584  0.49252  1.0000
  H   H2290     1.0  0.67197  0.52283  0.24906  1.0000
  N   N96       1.0  0.53687  0.56358  0.99244  1.0000
  C   C1338     1.0  0.54304  0.55992  0.95823  1.0000
  C   C1339     1.0  0.53532  0.57712  0.98033  1.0000
  C   C1340     1.0  0.52365  0.55422  0.00848  1.0000
  C   C1341     1.0  0.54545  0.56261  0.01906  1.0000
  C   C1342     1.0  0.54470  0.54597  0.96335  1.0000
  C   C1343     1.0  0.54806  0.58771  0.96136  1.0000
  C   C1344     1.0  0.51539  0.55614  0.04360  1.0000
  Fe  Fe196     1.0  0.50046  0.64296  0.26952  1.0000
  H   H2291     1.0  0.53740  0.56130  0.93689  1.0000
  H   H2292     1.0  0.55299  0.56633  0.94555  1.0000
  H   H2293     1.0  0.53032  0.58047  0.00335  1.0000
  H   H2294     1.0  0.52888  0.57731  0.96081  1.0000
  H   H2295     1.0  0.51774  0.55435  0.98760  1.0000
  H   H2296     1.0  0.52454  0.54411  0.01620  1.0000
  H   H2297     1.0  0.54422  0.55232  0.03283  1.0000
  H   H2298     1.0  0.55577  0.56605  0.00384  1.0000
  H   H2299     1.0  0.55068  0.54513  0.93723  1.0000
  H   H2300     1.0  0.54986  0.54348  0.98509  1.0000
  H   H2301     1.0  0.53524  0.53873  0.96906  1.0000
  H   H2302     1.0  0.55568  0.58738  0.97689  1.0000
  H   H2303     1.0  0.56027  0.52516  0.93051  1.0000
  H   H2304     1.0  0.54609  0.59743  0.95904  1.0000
  H   H2305     1.0  0.58198  0.51583  0.67237  1.0000
  H   H2306     1.0  0.51339  0.56583  0.03998  1.0000
  H   H2307     1.0  0.51982  0.55409  0.06726  1.0000
  H   H2308     1.0  0.55197  0.58703  0.93291  1.0000
  H   H2309     1.0  0.55398  0.58122  0.64783  1.0000
  H   H2310     1.0  0.68115  0.53814  0.28290  1.0000
  H   H2311     1.0  0.67782  0.51016  0.75053  1.0000
  C   C1345     1.0  0.68197  0.52355  0.17067  1.0000
  H   H2312     1.0  0.64594  0.51470  0.82136  1.0000
  H   H2313     1.0  0.53695  0.60000  0.33608  1.0000
  H   H2314     1.0  0.59094  0.53245  0.49513  1.0000
  C   C1346     1.0  0.52524  0.60164  0.38605  1.0000
  H   H2315     1.0  0.54336  0.59620  0.37434  1.0000
  H   H2316     1.0  0.53287  0.62639  0.33541  1.0000
  C   C1347     1.0  0.58294  0.50608  0.72679  1.0000
  H   H2317     1.0  0.53706  0.52274  0.93187  1.0000
  H   H2318     1.0  0.56283  0.61885  0.41067  1.0000
  H   H2319     1.0  0.56106  0.63918  0.28926  1.0000
  H   H2320     1.0  0.62221  0.52694  0.50892  1.0000
  H   H2321     1.0  0.51841  0.56282  0.77841  1.0000
  C   C1348     1.0  0.54397  0.57027  0.04924  1.0000
  C   C1349     1.0  0.67164  0.50430  0.73678  1.0000
  N   N97       1.0  0.57619  0.50284  0.76707  1.0000
  H   H2322     1.0  0.51627  0.58367  0.16456  1.0000
  H   H2323     1.0  0.53512  0.51783  0.20570  1.0000
  C   C1350     1.0  0.60003  0.53016  0.48236  1.0000
  H   H2324     1.0  0.55613  0.51125  0.20899  1.0000
  H   H2325     1.0  0.50322  0.61809  0.78156  1.0000
  H   H2326     1.0  0.67097  0.51134  0.71235  1.0000
  Fe  Fe197     1.0  0.49973  0.64164  0.65226  1.0000
  H   H2327     1.0  0.54408  0.56397  0.07571  1.0000
  H   H2328     1.0  0.61363  0.50919  0.17940  1.0000
  C   C1351     1.0  0.59837  0.51539  0.49357  1.0000
  H   H2329     1.0  0.50509  0.59739  0.20267  1.0000
  H   H2330     1.0  0.60993  0.51777  0.21468  1.0000
  C   C1352     1.0  0.53343  0.62984  0.78310  1.0000
  H   H2331     1.0  0.50245  0.56076  0.18786  1.0000
  H   H2332     1.0  0.57426  0.52446  0.82458  1.0000
  C   C1353     1.0  0.51312  0.63669  0.74163  1.0000
  H   H2333     1.0  0.59599  0.51832  0.17563  1.0000
  S   S395      1.0  0.49987  0.65588  0.21583  1.0000
  S   S396      1.0  0.64691  0.49959  0.68074  1.0000
  S   S397      1.0  0.49765  0.61748  0.35883  1.0000
  C   C1354     1.0  0.54736  0.50776  0.23201  1.0000
  H   H2334     1.0  0.54837  0.51469  0.24990  1.0000
  H   H2335     1.0  0.52051  0.63992  0.80773  1.0000
  H   H2336     1.0  0.49742  0.54881  0.22996  1.0000
  C   C1355     1.0  0.53472  0.50763  0.21899  1.0000
  C   C1356     1.0  0.50824  0.50171  0.21296  1.0000
  H   H2337     1.0  0.49669  0.57675  0.15783  1.0000
  N   N98       1.0  0.53087  0.50181  0.94418  1.0000
  Fe  Fe198     1.0  0.51651  0.49780  0.74092  1.0000
  H   H2338     1.0  0.49915  0.50053  0.20322  1.0000
  C   C1357     1.0  0.51750  0.50099  0.96643  1.0000
  H   H2339     1.0  0.54868  0.50268  0.10195  1.0000
  C   C1358     1.0  0.56170  0.49716  0.77478  1.0000
  H   H2340     1.0  0.54719  0.49816  0.24876  1.0000
  C   C1359     1.0  0.51905  0.49952  0.18379  1.0000
  H   H2341     1.0  0.49608  0.56622  0.62363  1.0000
  N   N99       1.0  0.53187  0.49896  0.19346  1.0000
  Fe  Fe199     1.0  0.50709  0.49909  0.07149  1.0000
  H   H2342     1.0  0.67670  0.49728  0.72681  1.0000
  C   C1360     1.0  0.54049  0.49771  0.12629  1.0000
  C   C1361     1.0  0.65779  0.49731  0.76035  1.0000
  H   H2343     1.0  0.59962  0.49706  0.16044  1.0000
  H   H2344     1.0  0.53148  0.49873  0.11757  1.0000
  S   S398      1.0  0.49634  0.50043  0.75523  1.0000
  C   C1362     1.0  0.60154  0.49670  0.23372  1.0000
  Fe  Fe200     1.0  0.64771  0.49660  0.29750  1.0000
  H   H2345     1.0  0.52736  0.90711  0.45381  1.0000
  H   H2346     1.0  0.50840  0.88074  0.88064  1.0000
  S   S399      1.0  0.54296  0.96326  0.19975  1.0000
  H   H2347     1.0  0.49816  0.94430  0.43162  1.0000
  H   H2348     1.0  0.50942  0.98761  0.58363  1.0000
  S   S400      1.0  0.53574  0.94489  0.50912  1.0000
  H   H2349     1.0  0.49753  0.98797  0.70718  1.0000
  H   H2350     1.0  0.51842  0.86970  0.87959  1.0000
  Fe  Fe201     1.0  0.53676  0.95148  0.63809  1.0000
  H   H2351     1.0  0.52579  0.89063  0.36477  1.0000
  S   S401      1.0  0.54700  0.97132  0.64638  1.0000
  S   S402      1.0  0.51592  0.93417  0.22768  1.0000
  Fe  Fe202     1.0  0.50426  0.93294  0.28348  1.0000
  H   H2352     1.0  0.51217  0.85006  0.85887  1.0000
  S   S403      1.0  0.54411  0.93626  0.61281  1.0000
  H   H2353     1.0  0.52483  0.97855  0.23221  1.0000
  S   S404      1.0  0.52043  0.94492  0.30061  1.0000
  H   H2354     1.0  0.50259  0.95297  0.15474  1.0000
  S   S405      1.0  0.53803  0.92635  0.26699  1.0000
  Fe  Fe203     1.0  0.52575  0.92191  0.65065  1.0000
  S   S406      1.0  0.51938  0.93696  0.67806  1.0000
  H   H2355     1.0  0.54771  0.88508  0.28408  1.0000
  Fe  Fe204     1.0  0.52462  0.92569  0.32135  1.0000
  C   C1363     1.0  0.51924  0.98002  0.12466  1.0000
  H   H2356     1.0  0.50263  0.99191  0.15671  1.0000
  C   C1364     1.0  0.58920  0.98318  0.08252  1.0000
  C   C1365     1.0  0.49891  0.86605  0.72787  1.0000
  H   H2357     1.0  0.51350  0.97210  0.27558  1.0000
  C   C1366     1.0  0.49641  0.92634  0.47336  1.0000
  C   C1367     1.0  0.53175  0.93853  0.40945  1.0000
  S   S407      1.0  0.52547  0.95493  0.59502  1.0000
  H   H2358     1.0  0.51000  0.96695  0.64982  1.0000
  Fe  Fe205     1.0  0.52003  0.91560  0.25298  1.0000
  C   C1368     1.0  0.51032  0.88089  0.18671  1.0000
  H   H2359     1.0  0.52237  0.89201  0.82435  1.0000
  H   H2360     1.0  0.51843  0.87065  0.39512  1.0000
  S   S408      1.0  0.52423  0.90187  0.68616  1.0000
  C   C1369     1.0  0.49825  0.95007  0.53754  1.0000
  C   C1370     1.0  0.55425  0.97818  0.67914  1.0000
  C   C1371     1.0  0.53379  0.94436  0.43858  1.0000
  H   H2361     1.0  0.51988  0.88388  0.16818  1.0000
  H   H2362     1.0  0.60939  0.99226  0.05824  1.0000
  C   C1372     1.0  0.56384  0.97673  0.73223  1.0000
  C   C1373     1.0  0.55773  0.97072  0.70802  1.0000
  C   C1374     1.0  0.49781  0.92283  0.53717  1.0000
  S   S409      1.0  0.50718  0.91366  0.30842  1.0000
  H   H2363     1.0  0.56673  0.97085  0.75389  1.0000
  H   H2364     1.0  0.55597  0.96034  0.71127  1.0000
  C   C1375     1.0  0.53749  0.88428  0.28203  1.0000
  H   H2365     1.0  0.53033  0.90108  0.32092  1.0000
  H   H2366     1.0  0.50213  0.86721  0.36652  1.0000
  C   C1376     1.0  0.49816  0.89076  0.69094  1.0000
  C   C1377     1.0  0.52908  0.91753  0.44945  1.0000
  H   H2367     1.0  0.54713  0.90213  0.35937  1.0000
  H   H2368     1.0  0.51187  0.87185  0.30079  1.0000
  Fe  Fe206     1.0  0.53151  0.93894  0.57222  1.0000
  C   C1378     1.0  0.49767  0.98378  0.68286  1.0000
  C   C1379     1.0  0.55381  0.97805  0.19947  1.0000
  C   C1380     1.0  0.56110  0.97904  0.22577  1.0000
  H   H2369     1.0  0.54943  0.88692  0.35159  1.0000
  C   C1381     1.0  0.51237  0.87341  0.81574  1.0000
  C   C1382     1.0  0.50374  0.87710  0.34908  1.0000
  C   C1383     1.0  0.50249  0.85168  0.85666  1.0000
  H   H2370     1.0  0.55994  0.97068  0.24789  1.0000
  C   C1384     1.0  0.55675  0.99172  0.67553  1.0000
  C   C1385     1.0  0.50332  0.98822  0.18537  1.0000
  H   H2371     1.0  0.53454  0.86451  0.27215  1.0000
  H   H2372     1.0  0.52318  0.97913  0.62050  1.0000
  H   H2373     1.0  0.53574  0.95480  0.43404  1.0000
  C   C1386     1.0  0.54623  0.89558  0.34040  1.0000
  H   H2374     1.0  0.51010  0.97781  0.11563  1.0000
  S   S410      1.0  0.52016  0.90007  0.21955  1.0000
  H   H2375     1.0  0.50299  0.86602  0.15977  1.0000
  H   H2376     1.0  0.52004  0.89273  0.77904  1.0000
  H   H2377     1.0  0.53062  0.91743  0.50530  1.0000
  C   C1387     1.0  0.53091  0.92335  0.47878  1.0000
  Fe  Fe207     1.0  0.53269  0.94501  0.24568  1.0000
  H   H2378     1.0  0.50200  0.96079  0.52947  1.0000
  C   C1388     1.0  0.53334  0.93684  0.47346  1.0000
  S   S411      1.0  0.52693  0.91718  0.37877  1.0000
  H   H2379     1.0  0.53216  0.94448  0.38286  1.0000
  C   C1389     1.0  0.50815  0.87034  0.88222  1.0000
  C   C1390     1.0  0.52946  0.92506  0.41462  1.0000
  C   C1391     1.0  0.52060  0.98453  0.68590  1.0000
  C   C1392     1.0  0.51806  0.97115  0.71222  1.0000
  C   C1393     1.0  0.50985  0.88894  0.69867  1.0000
  H   H2380     1.0  0.49679  0.95126  0.48197  1.0000
  H   H2381     1.0  0.49753  0.93008  0.41500  1.0000
  H   H2382     1.0  0.51813  0.96325  0.69777  1.0000
  C   C1394     1.0  0.52565  0.86570  0.38400  1.0000
  C   C1395     1.0  0.51537  0.88833  0.80870  1.0000
  H   H2383     1.0  0.50552  0.91393  0.06436  1.0000
  H   H2384     1.0  0.50411  0.86815  0.94158  1.0000
  H   H2385     1.0  0.60847  0.99445  0.11910  1.0000
  H   H2386     1.0  0.59925  0.99432  0.02727  1.0000
  H   H2387     1.0  0.51434  0.88885  0.29571  1.0000
  C   C1396     1.0  0.60002  0.99462  0.05578  1.0000
  C   C1397     1.0  0.52959  0.86827  0.34155  1.0000
  N   N100      1.0  0.50482  0.97454  0.19090  1.0000
  C   C1398     1.0  0.53202  0.89215  0.33696  1.0000
  H   H2388     1.0  0.52184  0.87075  0.81378  1.0000
  H   H2389     1.0  0.53989  0.86768  0.33466  1.0000
  H   H2390     1.0  0.52384  0.85993  0.33362  1.0000
  N   N101      1.0  0.52836  0.88094  0.31974  1.0000
  H   H2391     1.0  0.50480  0.84978  0.79911  1.0000
  S   S412      1.0  0.51404  0.92371  0.60826  1.0000
  H   H2392     1.0  0.50698  0.92693  0.46649  1.0000
  H   H2393     1.0  0.50865  0.92545  0.53013  1.0000
  C   C1399     1.0  0.51477  0.87980  0.31438  1.0000
  H   H2394     1.0  0.50195  0.85305  0.92900  1.0000
  H   H2395     1.0  0.51210  0.99500  0.18828  1.0000
  C   C1400     1.0  0.51458  0.97726  0.24665  1.0000
  Fe  Fe208     1.0  0.50891  0.93957  0.63324  1.0000
  H   H2396     1.0  0.53743  0.89399  0.26594  1.0000
  C   C1401     1.0  0.50073  0.87074  0.18180  1.0000
  H   H2397     1.0  0.49779  0.90022  0.67661  1.0000
  H   H2398     1.0  0.55294  0.90102  0.31353  1.0000
  H   H2399     1.0  0.50480  0.97036  0.59232  1.0000
  H   H2400     1.0  0.51042  0.94626  0.49142  1.0000
  C   C1402     1.0  0.51015  0.87651  0.71714  1.0000
  H   H2401     1.0  0.52606  0.97134  0.72664  1.0000
  H   H2402     1.0  0.50415  0.94638  0.55588  1.0000
  H   H2403     1.0  0.54298  0.87746  0.23281  1.0000
  H   H2404     1.0  0.50645  0.91313  0.16086  1.0000
  H   H2405     1.0  0.50524  0.88454  0.36510  1.0000
  C   C1403     1.0  0.50487  0.97860  0.60564  1.0000
  H   H2406     1.0  0.55002  0.98836  0.15012  1.0000
  H   H2407     1.0  0.50901  0.87087  0.79188  1.0000
  H   H2408     1.0  0.52593  0.87469  0.24829  1.0000
  H   H2409     1.0  0.49933  0.83496  0.83334  1.0000
  C   C1404     1.0  0.51277  0.97732  0.63515  1.0000
  H   H2410     1.0  0.53439  0.86808  0.39505  1.0000
  H   H2411     1.0  0.52339  0.99072  0.11642  1.0000
  C   C1405     1.0  0.56627  0.99025  0.72872  1.0000
  H   H2412     1.0  0.51975  0.96508  0.17119  1.0000
  H   H2413     1.0  0.52132  0.85513  0.39576  1.0000
  C   C1406     1.0  0.49845  0.84512  0.82689  1.0000
  C   C1407     1.0  0.50491  0.96896  0.23014  1.0000
  C   C1408     1.0  0.50762  0.88725  0.21508  1.0000
  C   C1409     1.0  0.49979  0.94471  0.50277  1.0000
  H   H2414     1.0  0.51921  0.87494  0.72261  1.0000
  H   H2415     1.0  0.49795  0.90431  0.52156  1.0000
  H   H2416     1.0  0.53076  0.98706  0.66919  1.0000
  H   H2417     1.0  0.59311  0.97800  0.10414  1.0000
  C   C1410     1.0  0.55555  0.98901  0.17075  1.0000
  C   C1411     1.0  0.57030  0.99077  0.22265  1.0000
  H   H2418     1.0  0.58594  0.97591  0.06714  1.0000
  H   H2419     1.0  0.50736  0.95942  0.23282  1.0000
  H   H2420     1.0  0.49938  0.85648  0.74108  1.0000
  C   C1412     1.0  0.51756  0.97476  0.16633  1.0000
  H   H2421     1.0  0.50651  0.89181  0.81560  1.0000
  H   H2422     1.0  0.57615  0.99133  0.24255  1.0000
  H   H2423     1.0  0.58037  0.98570  0.09564  1.0000
  N   N102      1.0  0.50289  0.86590  0.85159  1.0000
  H   H2424     1.0  0.52577  0.98104  0.17330  1.0000
  H   H2425     1.0  0.52054  0.99137  0.70393  1.0000
  H   H2426     1.0  0.52590  0.97535  0.10915  1.0000
  H   H2427     1.0  0.50455  0.90384  0.10824  1.0000
  H   H2428     1.0  0.51265  0.98684  0.24733  1.0000
  C   C1413     1.0  0.49881  0.90639  0.08810  1.0000
  C   C1414     1.0  0.53491  0.87454  0.25799  1.0000
  H   H2429     1.0  0.49611  0.90347  0.56931  1.0000
  N   N103      1.0  0.51148  0.98609  0.66107  1.0000
  C   C1415     1.0  0.50047  0.86294  0.92175  1.0000
  C   C1416     1.0  0.49650  0.91407  0.17176  1.0000
  H   H2430     1.0  0.50896  0.96904  0.73389  1.0000
  H   H2431     1.0  0.49600  0.91429  0.20094  1.0000
  H   H2432     1.0  0.49596  0.94679  0.20398  1.0000
  H   H2433     1.0  0.95746  0.44540  0.55009  1.0000
  H   H2434     1.0  0.80966  0.33745  0.61376  1.0000
  S   S413      1.0  0.93607  0.47343  0.33774  1.0000
  H   H2435     1.0  0.77940  0.39452  0.71085  1.0000
  H   H2436     1.0  0.76872  0.27670  0.78815  1.0000
  H   H2437     1.0  0.90425  0.44535  0.19435  1.0000
  H   H2438     1.0  0.78947  0.31535  0.70241  1.0000
  C   C1417     1.0  0.96172  0.44334  0.69878  1.0000
  Fe  Fe209     1.0  0.91116  0.40004  0.30399  1.0000
  S   S414      1.0  0.91308  0.39193  0.25335  1.0000
  S   S415      1.0  0.91497  0.39078  0.35850  1.0000
  Fe  Fe210     1.0  0.90247  0.42254  0.26676  1.0000
  S   S416      1.0  0.90399  0.41700  0.21300  1.0000
  S   S417      1.0  0.89515  0.43966  0.27565  1.0000
  Fe  Fe211     1.0  0.89414  0.39681  0.24719  1.0000
  S   S418      1.0  0.87477  0.38604  0.23861  1.0000
  Fe  Fe212     1.0  0.92276  0.41278  0.22230  1.0000
  S   S419      1.0  0.94098  0.41878  0.17547  1.0000
  S   S420      1.0  0.89148  0.40291  0.30085  1.0000
  S   S421      1.0  0.92205  0.42032  0.27292  1.0000
  C   C1418     1.0  0.78619  0.29796  0.68239  1.0000
  H   H2439     1.0  0.75203  0.46032  0.14622  1.0000
  H   H2440     1.0  0.90206  0.48894  0.12107  1.0000
  S   S422      1.0  0.93607  0.47673  0.70082  1.0000
  H   H2441     1.0  0.78976  0.29393  0.65902  1.0000
  H   H2442     1.0  0.87453  0.44410  0.97451  1.0000
  Fe  Fe213     1.0  0.91977  0.41519  0.54799  1.0000
  S   S423      1.0  0.92596  0.40112  0.58872  1.0000
  S   S424      1.0  0.92390  0.42051  0.48485  1.0000
  Fe  Fe214     1.0  0.90975  0.42817  0.60800  1.0000
  S   S425      1.0  0.91485  0.41501  0.65281  1.0000
  S   S426      1.0  0.90158  0.44494  0.61772  1.0000
  Fe  Fe215     1.0  0.93382  0.41815  0.61171  1.0000
  Fe  Fe216     1.0  0.90641  0.39928  0.62690  1.0000
  S   S427      1.0  0.89325  0.38067  0.66732  1.0000
  S   S428      1.0  0.92894  0.43220  0.56843  1.0000
  S   S429      1.0  0.89994  0.41242  0.58488  1.0000
  Fe  Fe217     1.0  0.83704  0.35985  0.09373  1.0000
  S   S430      1.0  0.83159  0.37595  0.05887  1.0000
  S   S431      1.0  0.85681  0.36398  0.10796  1.0000
  Fe  Fe218     1.0  0.81310  0.33936  0.08956  1.0000
  S   S432      1.0  0.80590  0.35416  0.05525  1.0000
  S   S433      1.0  0.80410  0.31750  0.10279  1.0000
  Fe  Fe219     1.0  0.82667  0.36219  0.02397  1.0000
  S   S434      1.0  0.83066  0.36994  0.96277  1.0000
  Fe  Fe220     1.0  0.81138  0.36669  0.09302  1.0000
  S   S435      1.0  0.79960  0.38057  0.10691  1.0000
  S   S436      1.0  0.83378  0.34664  0.05543  1.0000
  S   S437      1.0  0.81693  0.35131  0.13084  1.0000
  Fe  Fe221     1.0  0.81787  0.34611  0.74249  1.0000
  S   S438      1.0  0.79634  0.34332  0.74569  1.0000
  S   S439      1.0  0.83231  0.35708  0.68824  1.0000
  Fe  Fe222     1.0  0.81296  0.33355  0.82416  1.0000
  S   S440      1.0  0.79136  0.32993  0.83388  1.0000
  S   S441      1.0  0.82198  0.32767  0.87100  1.0000
  Fe  Fe223     1.0  0.79372  0.32331  0.78122  1.0000
  S   S442      1.0  0.78243  0.30293  0.78162  1.0000
  Fe  Fe224     1.0  0.79582  0.35006  0.79798  1.0000
  S   S443      1.0  0.78592  0.36484  0.81646  1.0000
  S   S444      1.0  0.81536  0.32564  0.77389  1.0000
  S   S445      1.0  0.81732  0.35412  0.79231  1.0000
  C   C1419     1.0  0.78813  0.31793  0.94540  1.0000
  C   C1420     1.0  0.78868  0.40547  0.74616  1.0000
  H   H2443     1.0  0.85480  0.33216  0.21708  1.0000
  Fe  Fe225     1.0  0.84109  0.46338  0.19152  1.0000
  S   S446      1.0  0.82077  0.45044  0.21791  1.0000
  S   S447      1.0  0.85333  0.46931  0.23201  1.0000
  Fe  Fe226     1.0  0.83857  0.45885  0.11547  1.0000
  S   S448      1.0  0.81853  0.44564  0.13645  1.0000
  S   S449      1.0  0.84873  0.46309  0.05524  1.0000
  Fe  Fe227     1.0  0.81449  0.46004  0.16894  1.0000
  S   S450      1.0  0.79569  0.46655  0.16981  1.0000
  Fe  Fe228     1.0  0.82626  0.43707  0.18307  1.0000
  S   S451      1.0  0.82347  0.41559  0.20432  1.0000
  S   S452      1.0  0.83431  0.47418  0.14492  1.0000
  S   S453      1.0  0.84677  0.44915  0.15971  1.0000
  Fe  Fe229     1.0  0.82556  0.43154  0.82687  1.0000
  S   S454      1.0  0.83921  0.43971  0.85841  1.0000
  S   S455      1.0  0.82980  0.41531  0.80179  1.0000
  Fe  Fe230     1.0  0.81137  0.45274  0.82941  1.0000
  S   S456      1.0  0.82466  0.46315  0.85959  1.0000
  S   S457      1.0  0.79450  0.45995  0.81303  1.0000
  Fe  Fe231     1.0  0.84117  0.45909  0.82073  1.0000
  S   S458      1.0  0.86304  0.46778  0.79750  1.0000
  Fe  Fe232     1.0  0.82195  0.44307  0.89388  1.0000
  S   S459      1.0  0.81658  0.43635  0.95585  1.0000
  S   S460      1.0  0.82810  0.45057  0.78765  1.0000
  S   S461      1.0  0.80789  0.43291  0.86583  1.0000
  C   C1421     1.0  0.84036  0.45517  0.02721  1.0000
  C   C1422     1.0  0.83049  0.44373  0.04241  1.0000
  C   C1423     1.0  0.82357  0.43784  0.01995  1.0000
  C   C1424     1.0  0.82653  0.44327  0.98204  1.0000
  C   C1425     1.0  0.83674  0.45442  0.96645  1.0000
  C   C1426     1.0  0.84365  0.46035  0.98905  1.0000
  H   H2444     1.0  0.82816  0.43936  0.07146  1.0000
  H   H2445     1.0  0.81574  0.42916  0.03221  1.0000
  H   H2446     1.0  0.83910  0.45867  0.93717  1.0000
  H   H2447     1.0  0.85138  0.46912  0.97702  1.0000
  H   H2448     1.0  0.79500  0.40332  0.76505  1.0000
  C   C1427     1.0  0.76195  0.42977  0.85031  1.0000
  C   C1428     1.0  0.77478  0.43734  0.84373  1.0000
  C   C1429     1.0  0.77836  0.45017  0.82290  1.0000
  C   C1430     1.0  0.76887  0.45540  0.80940  1.0000
  C   C1431     1.0  0.75600  0.44782  0.81607  1.0000
  H   H2449     1.0  0.75926  0.41988  0.86667  1.0000
  H   H2450     1.0  0.78190  0.43323  0.85469  1.0000
  H   H2451     1.0  0.77152  0.46534  0.79335  1.0000
  H   H2452     1.0  0.75834  0.42754  0.95921  1.0000
  H   H2453     1.0  0.94855  0.48118  0.52529  1.0000
  C   C1432     1.0  0.77125  0.46289  0.15660  1.0000
  C   C1433     1.0  0.78135  0.45706  0.16267  1.0000
  C   C1434     1.0  0.77974  0.44391  0.16295  1.0000
  C   C1435     1.0  0.76810  0.43666  0.15781  1.0000
  H   H2454     1.0  0.77244  0.47307  0.15610  1.0000
  H   H2455     1.0  0.78739  0.43926  0.16771  1.0000
  H   H2456     1.0  0.76689  0.42645  0.15869  1.0000
  C   C1436     1.0  0.79767  0.37928  0.81186  1.0000
  C   C1437     1.0  0.80881  0.38311  0.78295  1.0000
  C   C1438     1.0  0.81841  0.39439  0.77975  1.0000
  C   C1439     1.0  0.81696  0.40193  0.80535  1.0000
  C   C1440     1.0  0.80561  0.39842  0.83361  1.0000
  C   C1441     1.0  0.79597  0.38704  0.83693  1.0000
  H   H2457     1.0  0.80998  0.37744  0.76272  1.0000
  H   H2458     1.0  0.82699  0.39731  0.75722  1.0000
  H   H2459     1.0  0.80442  0.40429  0.85322  1.0000
  H   H2460     1.0  0.78733  0.38413  0.85924  1.0000
  H   H2461     1.0  0.82772  0.39858  0.93968  1.0000
  H   H2462     1.0  0.80668  0.31504  0.61290  1.0000
  C   C1442     1.0  0.76337  0.28292  0.77549  1.0000
  C   C1443     1.0  0.76788  0.29648  0.76903  1.0000
  H   H2463     1.0  0.87239  0.49150  0.17701  1.0000
  C   C1444     1.0  0.79722  0.37855  0.96223  1.0000
  H   H2464     1.0  0.83123  0.31318  0.59515  1.0000
  H   H2465     1.0  0.83404  0.41429  0.10450  1.0000
  H   H2466     1.0  0.81489  0.46043  0.04300  1.0000
  C   C1445     1.0  0.80626  0.39027  0.13396  1.0000
  C   C1446     1.0  0.80254  0.40174  0.13645  1.0000
  C   C1447     1.0  0.80778  0.40957  0.15802  1.0000
  C   C1448     1.0  0.81656  0.40582  0.17773  1.0000
  C   C1449     1.0  0.82021  0.39430  0.17544  1.0000
  C   C1450     1.0  0.81523  0.38664  0.15311  1.0000
  H   H2467     1.0  0.79556  0.40454  0.12182  1.0000
  H   H2468     1.0  0.80473  0.41831  0.16020  1.0000
  H   H2469     1.0  0.82703  0.39138  0.19054  1.0000
  H   H2470     1.0  0.81814  0.37780  0.15135  1.0000
  C   C1451     1.0  0.82737  0.35768  0.93938  1.0000
  C   C1452     1.0  0.83139  0.34627  0.94812  1.0000
  C   C1453     1.0  0.82967  0.33705  0.92707  1.0000
  C   C1454     1.0  0.82362  0.33905  0.89796  1.0000
  C   C1455     1.0  0.81910  0.35018  0.89033  1.0000
  C   C1456     1.0  0.82120  0.35960  0.91051  1.0000
  H   H2471     1.0  0.83619  0.34475  0.97034  1.0000
  H   H2472     1.0  0.83316  0.32843  0.93315  1.0000
  H   H2473     1.0  0.81408  0.35164  0.86867  1.0000
  H   H2474     1.0  0.81803  0.36836  0.90360  1.0000
  C   C1457     1.0  0.78886  0.31051  0.09449  1.0000
  C   C1458     1.0  0.78079  0.31815  0.08297  1.0000
  C   C1459     1.0  0.86908  0.42727  0.02124  1.0000
  H   H2475     1.0  0.78375  0.32856  0.07918  1.0000
  H   H2476     1.0  0.88706  0.48634  0.29342  1.0000
  C   C1460     1.0  0.87630  0.37438  0.67241  1.0000
  C   C1461     1.0  0.86917  0.38066  0.65131  1.0000
  C   C1462     1.0  0.85572  0.37528  0.65648  1.0000
  C   C1463     1.0  0.84919  0.36373  0.68329  1.0000
  C   C1464     1.0  0.85630  0.35749  0.70451  1.0000
  C   C1465     1.0  0.86978  0.36274  0.69888  1.0000
  H   H2477     1.0  0.87406  0.38956  0.63067  1.0000
  H   H2478     1.0  0.85036  0.38011  0.63959  1.0000
  H   H2479     1.0  0.85146  0.34846  0.72468  1.0000
  H   H2480     1.0  0.87525  0.35771  0.71490  1.0000
  C   C1466     1.0  0.88396  0.48750  0.26796  1.0000
  C   C1467     1.0  0.91891  0.46897  0.19687  1.0000
  H   H2481     1.0  0.77717  0.38503  0.75732  1.0000
  C   C1468     1.0  0.87325  0.48184  0.76453  1.0000
  C   C1469     1.0  0.88665  0.48271  0.75453  1.0000
  H   H2482     1.0  0.76584  0.45535  0.24452  1.0000
  C   C1470     1.0  0.76365  0.39114  0.81282  1.0000
  C   C1471     1.0  0.86858  0.49212  0.74866  1.0000
  H   H2483     1.0  0.89041  0.47490  0.76674  1.0000
  C   C1472     1.0  0.98497  0.48783  0.20248  1.0000
  C   C1473     1.0  0.92506  0.46656  0.68417  1.0000
  C   C1474     1.0  0.92820  0.45566  0.67436  1.0000
  C   C1475     1.0  0.92102  0.44904  0.65376  1.0000
  C   C1476     1.0  0.91028  0.45289  0.64464  1.0000
  C   C1477     1.0  0.90652  0.46318  0.65695  1.0000
  C   C1478     1.0  0.91393  0.47002  0.67671  1.0000
  H   H2484     1.0  0.93663  0.45282  0.68078  1.0000
  H   H2485     1.0  0.92415  0.44127  0.64397  1.0000
  H   H2486     1.0  0.89804  0.46601  0.65073  1.0000
  H   H2487     1.0  0.91104  0.47797  0.68619  1.0000
  C   C1479     1.0  0.87021  0.38136  0.19976  1.0000
  C   C1480     1.0  0.85698  0.37862  0.19902  1.0000
  C   C1481     1.0  0.85274  0.37385  0.17031  1.0000
  C   C1482     1.0  0.86169  0.37148  0.14237  1.0000
  C   C1483     1.0  0.87494  0.37447  0.14269  1.0000
  C   C1484     1.0  0.87921  0.37949  0.17099  1.0000
  H   H2488     1.0  0.84992  0.38000  0.22115  1.0000
  H   H2489     1.0  0.84251  0.37160  0.17053  1.0000
  H   H2490     1.0  0.88195  0.37267  0.12128  1.0000
  H   H2491     1.0  0.88939  0.38146  0.17127  1.0000
  C   C1485     1.0  0.91660  0.39909  0.39402  1.0000
  C   C1486     1.0  0.92064  0.41263  0.38623  1.0000
  C   C1487     1.0  0.92298  0.41892  0.41422  1.0000
  C   C1488     1.0  0.92077  0.41185  0.45085  1.0000
  C   C1489     1.0  0.91650  0.39830  0.45882  1.0000
  C   C1490     1.0  0.91464  0.39197  0.43044  1.0000
  H   H2492     1.0  0.92232  0.41826  0.35840  1.0000
  H   H2493     1.0  0.92664  0.42934  0.40721  1.0000
  H   H2494     1.0  0.91486  0.39269  0.48670  1.0000
  H   H2495     1.0  0.91160  0.38148  0.43682  1.0000
  C   C1491     1.0  0.79223  0.30353  0.99862  1.0000
  H   H2496     1.0  0.95124  0.38665  0.25794  1.0000
  H   H2497     1.0  0.77567  0.29722  0.68441  1.0000
  H   H2498     1.0  0.76048  0.42821  0.75575  1.0000
  C   C1492     1.0  0.86799  0.48047  0.23302  1.0000
  C   C1493     1.0  0.96931  0.48126  0.76099  1.0000
  H   H2499     1.0  0.78995  0.31787  0.65483  1.0000
  H   H2500     1.0  0.74990  0.41688  0.73991  1.0000
  H   H2501     1.0  0.96875  0.48119  0.52676  1.0000
  H   H2502     1.0  0.78677  0.29182  0.70853  1.0000
  C   C1494     1.0  0.82629  0.30931  0.69809  1.0000
  C   C1495     1.0  0.79917  0.47178  0.00102  1.0000
  H   H2503     1.0  0.86686  0.44723  0.01630  1.0000
  C   C1496     1.0  0.86664  0.43979  0.99995  1.0000
  H   H2504     1.0  0.94477  0.43416  0.68191  1.0000
  C   C1497     1.0  0.92368  0.46369  0.32430  1.0000
  C   C1498     1.0  0.91515  0.46929  0.30729  1.0000
  C   C1499     1.0  0.90567  0.46165  0.29481  1.0000
  C   C1500     1.0  0.90487  0.44845  0.29868  1.0000
  C   C1501     1.0  0.91278  0.44269  0.31785  1.0000
  C   C1502     1.0  0.92233  0.45032  0.33022  1.0000
  H   H2505     1.0  0.91602  0.47956  0.30273  1.0000
  H   H2506     1.0  0.89933  0.46610  0.28078  1.0000
  H   H2507     1.0  0.91151  0.43234  0.32323  1.0000
  H   H2508     1.0  0.92871  0.44588  0.34403  1.0000
  N   N104      1.0  0.91630  0.46047  0.45014  1.0000
  C   C1503     1.0  0.91514  0.45015  0.42863  1.0000
  C   C1504     1.0  0.93058  0.46538  0.44815  1.0000
  C   C1505     1.0  0.91144  0.47138  0.43127  1.0000
  C   C1506     1.0  0.90818  0.45445  0.48893  1.0000
  H   H2509     1.0  0.79496  0.42285  0.80694  1.0000
  C   C1507     1.0  0.93732  0.45500  0.46298  1.0000
  C   C1508     1.0  0.91227  0.48335  0.44758  1.0000
  H   H2510     1.0  0.92238  0.45350  0.40171  1.0000
  N   N105      1.0  0.80804  0.31543  0.66837  1.0000
  H   H2511     1.0  0.93249  0.47313  0.46286  1.0000
  H   H2512     1.0  0.93604  0.47007  0.41910  1.0000
  H   H2513     1.0  0.91678  0.47486  0.40175  1.0000
  H   H2514     1.0  0.90101  0.46798  0.43142  1.0000
  H   H2515     1.0  0.89770  0.45377  0.49006  1.0000
  H   H2516     1.0  0.91748  0.44141  0.44324  1.0000
  C   C1509     1.0  0.77119  0.46143  0.04746  1.0000
  H   H2517     1.0  0.82363  0.33276  0.66169  1.0000
  H   H2518     1.0  0.96076  0.49424  0.70327  1.0000
  H   H2519     1.0  0.82733  0.30316  0.72365  1.0000
  H   H2520     1.0  0.75181  0.41241  0.78553  1.0000
  H   H2521     1.0  0.91000  0.47136  0.11526  1.0000
  C   C1510     1.0  0.81255  0.47298  0.97581  1.0000
  H   H2522     1.0  0.96040  0.47266  0.72107  1.0000
  N   N106      1.0  0.87259  0.43635  0.74330  1.0000
  C   C1511     1.0  0.86043  0.44121  0.74578  1.0000
  C   C1512     1.0  0.86957  0.42417  0.77350  1.0000
  C   C1513     1.0  0.87596  0.43335  0.70599  1.0000
  C   C1514     1.0  0.88328  0.44696  0.74750  1.0000
  C   C1515     1.0  0.86134  0.45339  0.71582  1.0000
  C   C1516     1.0  0.86525  0.42558  0.81308  1.0000
  C   C1517     1.0  0.88261  0.42215  0.70313  1.0000
  C   C1518     1.0  0.89601  0.44336  0.75163  1.0000
  H   H2523     1.0  0.85206  0.43344  0.74475  1.0000
  H   H2524     1.0  0.85755  0.44377  0.77246  1.0000
  H   H2525     1.0  0.87809  0.41996  0.77286  1.0000
  H   H2526     1.0  0.86167  0.41659  0.76933  1.0000
  H   H2527     1.0  0.86706  0.43057  0.69572  1.0000
  H   H2528     1.0  0.88218  0.44213  0.68501  1.0000
  H   H2529     1.0  0.88603  0.45546  0.72351  1.0000
  H   H2530     1.0  0.87984  0.45080  0.77155  1.0000
  H   H2531     1.0  0.86802  0.46212  0.71907  1.0000
  H   H2532     1.0  0.86432  0.45213  0.68759  1.0000
  H   H2533     1.0  0.85161  0.45541  0.71893  1.0000
  H   H2534     1.0  0.87184  0.43372  0.81920  1.0000
  H   H2535     1.0  0.85518  0.42666  0.81872  1.0000
  H   H2536     1.0  0.86516  0.41658  0.83275  1.0000
  H   H2537     1.0  0.88538  0.42184  0.67382  1.0000
  H   H2538     1.0  0.87584  0.41259  0.71778  1.0000
  H   H2539     1.0  0.89159  0.42328  0.71313  1.0000
  H   H2540     1.0  0.89459  0.43558  0.77659  1.0000
  H   H2541     1.0  0.90292  0.45203  0.75455  1.0000
  H   H2542     1.0  0.90078  0.44072  0.72692  1.0000
  N   N107      1.0  0.85818  0.37222  0.80582  1.0000
  C   C1519     1.0  0.84780  0.37381  0.83593  1.0000
  C   C1520     1.0  0.85461  0.35834  0.80266  1.0000
  C   C1521     1.0  0.85915  0.38117  0.76942  1.0000
  C   C1522     1.0  0.87111  0.37550  0.81549  1.0000
  C   C1523     1.0  0.84847  0.38779  0.84002  1.0000
  C   C1524     1.0  0.85649  0.34810  0.83384  1.0000
  C   C1525     1.0  0.84648  0.37987  0.75631  1.0000
  C   C1526     1.0  0.88289  0.37408  0.78783  1.0000
  H   H2543     1.0  0.83791  0.36980  0.83240  1.0000
  H   H2544     1.0  0.84803  0.36808  0.86316  1.0000
  H   H2545     1.0  0.86008  0.35716  0.77636  1.0000
  H   H2546     1.0  0.84423  0.35534  0.80173  1.0000
  H   H2547     1.0  0.86283  0.39149  0.76979  1.0000
  H   H2548     1.0  0.86646  0.37951  0.74720  1.0000
  H   H2549     1.0  0.87365  0.38577  0.81738  1.0000
  H   H2550     1.0  0.87077  0.36993  0.84354  1.0000
  H   H2551     1.0  0.84032  0.38748  0.86311  1.0000
  H   H2552     1.0  0.85755  0.39217  0.84712  1.0000
  H   H2553     1.0  0.84719  0.39417  0.81531  1.0000
  H   H2554     1.0  0.85152  0.34872  0.86136  1.0000
  H   H2555     1.0  0.85218  0.33826  0.83071  1.0000
  H   H2556     1.0  0.86694  0.34883  0.83253  1.0000
  H   H2557     1.0  0.83862  0.38179  0.77595  1.0000
  H   H2558     1.0  0.84311  0.37015  0.75143  1.0000
  H   H2559     1.0  0.84827  0.38702  0.72967  1.0000
  H   H2560     1.0  0.88757  0.38333  0.76666  1.0000
  H   H2561     1.0  0.88039  0.36636  0.77336  1.0000
  H   H2562     1.0  0.89016  0.37135  0.80269  1.0000
  H   H2563     1.0  0.81167  0.48494  0.04175  1.0000
  H   H2564     1.0  0.75593  0.38990  0.83795  1.0000
  H   H2565     1.0  0.74743  0.47206  0.25245  1.0000
  N   N108      1.0  0.77853  0.41161  0.76337  1.0000
  H   H2566     1.0  0.90898  0.49223  0.15866  1.0000
  H   H2567     1.0  0.90268  0.46058  0.53943  1.0000
  H   H2568     1.0  0.75250  0.27824  0.89890  1.0000
  H   H2569     1.0  0.75309  0.46430  0.96654  1.0000
  H   H2570     1.0  0.96451  0.48907  0.14479  1.0000
  C   C1527     1.0  0.90173  0.44525  0.42099  1.0000
  H   H2571     1.0  0.83378  0.32265  0.62734  1.0000
  H   H2572     1.0  0.76754  0.41090  0.81781  1.0000
  H   H2573     1.0  0.76076  0.45610  0.92337  1.0000
  C   C1528     1.0  0.94173  0.47635  0.55232  1.0000
  H   H2574     1.0  0.83157  0.30616  0.67497  1.0000
  C   C1529     1.0  0.75711  0.41773  0.75700  1.0000
  H   H2575     1.0  0.97127  0.45892  0.53396  1.0000
  C   C1530     1.0  0.75192  0.27726  0.76596  1.0000
  H   H2576     1.0  0.80675  0.30818  0.72613  1.0000
  H   H2577     1.0  0.98586  0.44461  0.11758  1.0000
  H   H2578     1.0  0.95547  0.49278  0.80107  1.0000
  H   H2579     1.0  0.94284  0.38932  0.36142  1.0000
  H   H2580     1.0  0.97765  0.42143  0.31525  1.0000
  C   C1531     1.0  0.97536  0.44610  0.69343  1.0000
  H   H2581     1.0  0.85831  0.49161  0.75620  1.0000
  H   H2582     1.0  0.97004  0.47594  0.16600  1.0000
  H   H2583     1.0  0.90879  0.44423  0.49791  1.0000
  H   H2584     1.0  0.93180  0.44890  0.49047  1.0000
  H   H2585     1.0  0.79240  0.38904  0.72528  1.0000
  N   N109      1.0  0.95751  0.40783  0.29352  1.0000
  C   C1532     1.0  0.94784  0.40494  0.27070  1.0000
  C   C1533     1.0  0.95200  0.41469  0.32127  1.0000
  C   C1534     1.0  0.95987  0.39554  0.31381  1.0000
  C   C1535     1.0  0.97018  0.41610  0.26822  1.0000
  C   C1536     1.0  0.95085  0.39642  0.24378  1.0000
  C   C1537     1.0  0.95253  0.42908  0.30627  1.0000
  H   H2586     1.0  0.77285  0.41761  0.71277  1.0000
  C   C1538     1.0  0.89532  0.49374  0.72942  1.0000
  H   H2587     1.0  0.93789  0.40019  0.28844  1.0000
  H   H2588     1.0  0.94698  0.41409  0.25370  1.0000
  H   H2589     1.0  0.95679  0.41415  0.34462  1.0000
  H   H2590     1.0  0.94161  0.40970  0.33449  1.0000
  H   H2591     1.0  0.96491  0.39069  0.29442  1.0000
  H   H2592     1.0  0.96664  0.39777  0.33161  1.0000
  H   H2593     1.0  0.75432  0.46484  0.87182  1.0000
  H   H2594     1.0  0.96881  0.42478  0.24997  1.0000
  H   H2595     1.0  0.94287  0.39489  0.22941  1.0000
  H   H2596     1.0  0.95987  0.40123  0.22199  1.0000
  H   H2597     1.0  0.97877  0.47958  0.74887  1.0000
  H   H2598     1.0  0.94808  0.43048  0.28258  1.0000
  H   H2599     1.0  0.94696  0.43260  0.32817  1.0000
  H   H2600     1.0  0.96263  0.43528  0.29835  1.0000
  H   H2601     1.0  0.89723  0.49250  0.61851  1.0000
  H   H2602     1.0  0.90545  0.48101  0.47494  1.0000
  H   H2603     1.0  0.92492  0.47778  0.12592  1.0000
  H   H2604     1.0  0.75780  0.29453  0.86906  1.0000
  C   C1539     1.0  0.98433  0.48950  0.12024  1.0000
  H   H2605     1.0  0.94047  0.38196  0.32375  1.0000
  N   N110      1.0  0.85443  0.42328  0.27006  1.0000
  C   C1540     1.0  0.86170  0.41452  0.28822  1.0000
  C   C1541     1.0  0.86280  0.43702  0.25907  1.0000
  C   C1542     1.0  0.85148  0.41950  0.23603  1.0000
  C   C1543     1.0  0.84180  0.42212  0.29676  1.0000
  C   C1544     1.0  0.85498  0.39985  0.29860  1.0000
  C   C1545     1.0  0.86472  0.44354  0.29085  1.0000
  C   C1546     1.0  0.86313  0.41821  0.20788  1.0000
  C   C1547     1.0  0.83353  0.43121  0.28360  1.0000
  H   H2606     1.0  0.87162  0.41600  0.27069  1.0000
  H   H2607     1.0  0.86339  0.41696  0.31413  1.0000
  H   H2608     1.0  0.85892  0.44345  0.24000  1.0000
  H   H2609     1.0  0.87270  0.43744  0.24328  1.0000
  H   H2610     1.0  0.84377  0.41023  0.24320  1.0000
  H   H2611     1.0  0.84741  0.42682  0.22074  1.0000
  H   H2612     1.0  0.83540  0.41212  0.30330  1.0000
  H   H2613     1.0  0.84358  0.42382  0.32339  1.0000
  H   H2614     1.0  0.84598  0.39737  0.32078  1.0000
  H   H2615     1.0  0.85282  0.39618  0.27475  1.0000
  H   H2616     1.0  0.86164  0.39442  0.30933  1.0000
  H   H2617     1.0  0.87251  0.45269  0.27958  1.0000
  H   H2618     1.0  0.85585  0.44618  0.30341  1.0000
  H   H2619     1.0  0.86791  0.43757  0.31253  1.0000
  H   H2620     1.0  0.86726  0.41024  0.21909  1.0000
  H   H2621     1.0  0.87088  0.42738  0.19760  1.0000
  H   H2622     1.0  0.85970  0.41576  0.18386  1.0000
  H   H2623     1.0  0.83867  0.44162  0.27728  1.0000
  H   H2624     1.0  0.82462  0.42963  0.30566  1.0000
  H   H2625     1.0  0.83028  0.42911  0.25915  1.0000
  N   N111      1.0  0.79557  0.46187  0.03730  1.0000
  C   C1548     1.0  0.79297  0.44853  0.02987  1.0000
  C   C1549     1.0  0.78374  0.46378  0.06138  1.0000
  C   C1550     1.0  0.80637  0.46329  0.05706  1.0000
  C   C1551     1.0  0.78781  0.43696  0.06396  1.0000
  H   H2626     1.0  0.89982  0.45250  0.39927  1.0000
  H   H2627     1.0  0.78603  0.44752  0.01195  1.0000
  H   H2628     1.0  0.80198  0.44699  0.01400  1.0000
  H   H2629     1.0  0.78153  0.45737  0.08932  1.0000
  C   C1552     1.0  0.92220  0.44990  0.15306  1.0000
  H   H2630     1.0  0.80324  0.45642  0.08464  1.0000
  H   H2631     1.0  0.77823  0.43698  0.08057  1.0000
  H   H2632     1.0  0.78642  0.42780  0.05463  1.0000
  H   H2633     1.0  0.79481  0.43651  0.08160  1.0000
  H   H2634     1.0  0.88751  0.46750  0.14449  1.0000
  H   H2635     1.0  0.89328  0.45964  0.22089  1.0000
  H   H2636     1.0  0.88866  0.48582  0.58848  1.0000
  H   H2637     1.0  0.81410  0.48057  0.95018  1.0000
  N   N112      1.0  0.80004  0.39126  0.97354  1.0000
  C   C1553     1.0  0.80812  0.40158  0.93994  1.0000
  C   C1554     1.0  0.78722  0.39430  0.98729  1.0000
  C   C1555     1.0  0.80726  0.38961  0.00352  1.0000
  C   C1556     1.0  0.82109  0.39932  0.92102  1.0000
  C   C1557     1.0  0.78718  0.40875  0.98289  1.0000
  C   C1558     1.0  0.81178  0.40164  0.01796  1.0000
  H   H2638     1.0  0.81063  0.41118  0.94624  1.0000
  H   H2639     1.0  0.80239  0.40281  0.91882  1.0000
  H   H2640     1.0  0.77996  0.39058  0.97227  1.0000
  H   H2641     1.0  0.78297  0.38925  0.01684  1.0000
  H   H2642     1.0  0.80122  0.38197  0.02799  1.0000
  H   H2643     1.0  0.81601  0.38615  0.99437  1.0000
  H   H2644     1.0  0.81959  0.39068  0.90945  1.0000
  H   H2645     1.0  0.82616  0.40777  0.89746  1.0000
  H   H2646     1.0  0.77757  0.40939  0.99788  1.0000
  H   H2647     1.0  0.78857  0.41369  0.95359  1.0000
  H   H2648     1.0  0.79462  0.41426  0.99403  1.0000
  H   H2649     1.0  0.81822  0.40995  0.99604  1.0000
  H   H2650     1.0  0.81749  0.39917  0.03829  1.0000
  H   H2651     1.0  0.80343  0.40443  0.03304  1.0000
  S   S462      1.0  0.99236  0.46200  0.16516  1.0000
  N   N113      1.0  0.97567  0.49359  0.18397  1.0000
  H   H2652     1.0  0.96166  0.48349  0.62921  1.0000
  H   H2653     1.0  0.98144  0.47707  0.21155  1.0000
  H   H2654     1.0  0.98434  0.48307  0.60975  1.0000
  H   H2655     1.0  0.81435  0.34925  0.63889  1.0000
  H   H2656     1.0  0.83918  0.40497  0.05692  1.0000
  N   N114      1.0  0.90955  0.46625  0.17307  1.0000
  H   H2657     1.0  0.75902  0.44027  0.98413  1.0000
  C   C1559     1.0  0.98120  0.42050  0.28698  1.0000
  H   H2658     1.0  0.96797  0.47812  0.79124  1.0000
  C   C1560     1.0  0.95874  0.47157  0.75119  1.0000
  H   H2659     1.0  0.98004  0.47817  0.55278  1.0000
  H   H2660     1.0  0.93353  0.48103  0.55403  1.0000
  H   H2661     1.0  0.75621  0.44277  0.22932  1.0000
  H   H2662     1.0  0.90561  0.49430  0.72254  1.0000
  H   H2663     1.0  0.79849  0.32332  0.93363  1.0000
  C   C1561     1.0  0.78160  0.32591  0.96911  1.0000
  C   C1562     1.0  0.79334  0.31232  0.67708  1.0000
  H   H2664     1.0  0.94710  0.45984  0.46541  1.0000
  C   C1563     1.0  0.75544  0.44578  0.92888  1.0000
  C   C1564     1.0  0.78523  0.42555  0.76102  1.0000
  C   C1565     1.0  0.98243  0.44181  0.66559  1.0000
  C   C1566     1.0  0.97117  0.48184  0.55337  1.0000
  H   H2665     1.0  0.94689  0.47797  0.25234  1.0000
  H   H2666     1.0  0.74960  0.45420  0.29566  1.0000
  H   H2667     1.0  0.90170  0.43642  0.41025  1.0000
  H   H2668     1.0  0.83990  0.42649  0.12661  1.0000
  H   H2669     1.0  0.87755  0.43026  0.03309  1.0000
  C   C1567     1.0  0.75796  0.44246  0.15198  1.0000
  H   H2670     1.0  0.84917  0.30865  0.11946  1.0000
  H   H2671     1.0  0.75825  0.44317  0.90230  1.0000
  H   H2672     1.0  0.92775  0.44880  0.17459  1.0000
  H   H2673     1.0  0.78009  0.29717  0.90473  1.0000
  H   H2674     1.0  0.97743  0.47206  0.65379  1.0000
  H   H2675     1.0  0.79192  0.46950  0.98463  1.0000
  H   H2676     1.0  0.95053  0.37685  0.35251  1.0000
  H   H2677     1.0  0.80612  0.37495  0.95716  1.0000
  H   H2678     1.0  0.79089  0.29094  0.10841  1.0000
  H   H2679     1.0  0.92822  0.45740  0.12832  1.0000
  C   C1568     1.0  0.84870  0.41008  0.99893  1.0000
  C   C1569     1.0  0.75967  0.45568  0.15098  1.0000
  H   H2680     1.0  0.79420  0.37987  0.93570  1.0000
  C   C1570     1.0  0.81115  0.47674  0.06459  1.0000
  C   C1571     1.0  0.76874  0.31231  0.07691  1.0000
  H   H2681     1.0  0.76255  0.31834  0.06831  1.0000
  H   H2682     1.0  0.77672  0.36863  0.99080  1.0000
  H   H2683     1.0  0.95348  0.47134  0.21599  1.0000
  H   H2684     1.0  0.78066  0.40399  0.81787  1.0000
  H   H2685     1.0  0.82071  0.47602  0.98851  1.0000
  C   C1572     1.0  0.78662  0.36722  0.98990  1.0000
  H   H2686     1.0  0.78685  0.35810  0.98095  1.0000
  H   H2687     1.0  0.84589  0.41236  0.13164  1.0000
  H   H2688     1.0  0.99472  0.48778  0.24712  1.0000
  C   C1573     1.0  0.89606  0.46619  0.19291  1.0000
  H   H2689     1.0  0.90296  0.45038  0.14844  1.0000
  H   H2690     1.0  0.78812  0.36564  0.01807  1.0000
  C   C1574     1.0  0.95525  0.43635  0.67700  1.0000
  H   H2691     1.0  0.93882  0.44867  0.44377  1.0000
  C   C1575     1.0  0.96300  0.49193  0.21123  1.0000
  H   H2692     1.0  0.86936  0.41114  0.08596  1.0000
  H   H2693     1.0  0.94030  0.47280  0.61007  1.0000
  H   H2694     1.0  0.75838  0.38909  0.79174  1.0000
  H   H2695     1.0  0.94736  0.45397  0.59873  1.0000
  H   H2696     1.0  0.94710  0.43722  0.22010  1.0000
  C   C1576     1.0  0.80842  0.33928  0.64161  1.0000
  H   H2697     1.0  0.76967  0.28069  0.09704  1.0000
  H   H2698     1.0  0.80865  0.31059  0.02061  1.0000
  H   H2699     1.0  0.76327  0.46322  0.06752  1.0000
  H   H2700     1.0  0.83097  0.31945  0.69778  1.0000
  H   H2701     1.0  0.85188  0.34779  0.20814  1.0000
  H   H2702     1.0  0.81194  0.30188  0.63537  1.0000
  H   H2703     1.0  0.98237  0.48720  0.68879  1.0000
  H   H2704     1.0  0.77097  0.32163  0.97940  1.0000
  H   H2705     1.0  0.87568  0.40375  0.02644  1.0000
  H   H2706     1.0  0.89374  0.44251  0.44619  1.0000
  C   C1577     1.0  0.86716  0.39851  0.04940  1.0000
  C   C1578     1.0  0.84282  0.41930  0.11187  1.0000
  H   H2707     1.0  0.95921  0.46155  0.76309  1.0000
  H   H2708     1.0  0.87267  0.42222  0.00040  1.0000
  C   C1579     1.0  0.78387  0.39282  0.73456  1.0000
  H   H2709     1.0  0.85920  0.33133  0.13168  1.0000
  H   H2710     1.0  0.84721  0.33695  0.11364  1.0000
  C   C1580     1.0  0.94794  0.47801  0.58465  1.0000
  H   H2711     1.0  0.94854  0.49264  0.76267  1.0000
  C   C1581     1.0  0.91418  0.47575  0.13587  1.0000
  C   C1582     1.0  0.96601  0.43346  0.14303  1.0000
  C   C1583     1.0  0.84906  0.32808  0.12950  1.0000
  C   C1584     1.0  0.85279  0.33946  0.19579  1.0000
  H   H2712     1.0  0.83759  0.34257  0.16885  1.0000
  H   H2713     1.0  0.77228  0.46819  0.02068  1.0000
  H   H2714     1.0  0.74854  0.26681  0.77131  1.0000
  C   C1585     1.0  0.82704  0.31967  0.61044  1.0000
  H   H2715     1.0  0.95634  0.46658  0.64411  1.0000
  H   H2716     1.0  0.78378  0.31822  0.92122  1.0000
  C   C1586     1.0  0.85395  0.42650  0.07783  1.0000
  H   H2717     1.0  0.83249  0.33119  0.21233  1.0000
  H   H2718     1.0  0.80516  0.30393  0.92967  1.0000
  H   H2719     1.0  0.85349  0.40083  0.09388  1.0000
  H   H2720     1.0  0.95606  0.44656  0.72011  1.0000
  S   S463      1.0  0.98295  0.45524  0.72157  1.0000
  H   H2721     1.0  0.76361  0.40221  0.73909  1.0000
  C   C1587     1.0  0.84891  0.31839  0.10475  1.0000
  H   H2722     1.0  0.85759  0.32210  0.08119  1.0000
  H   H2723     1.0  0.86117  0.34324  0.17153  1.0000
  H   H2724     1.0  0.86320  0.32041  0.17962  1.0000
  C   C1588     1.0  0.95556  0.43866  0.19809  1.0000
  H   H2725     1.0  0.94880  0.47224  0.76286  1.0000
  H   H2726     1.0  0.78578  0.30637  0.02018  1.0000
  H   H2727     1.0  0.76428  0.31481  0.74699  1.0000
  C   C1589     1.0  0.76092  0.30437  0.75234  1.0000
  H   H2728     1.0  0.79228  0.29341  0.01111  1.0000
  C   C1590     1.0  0.83994  0.33419  0.18578  1.0000
  H   H2729     1.0  0.92893  0.46907  0.18277  1.0000
  H   H2730     1.0  0.85075  0.43487  0.06438  1.0000
  C   C1591     1.0  0.74962  0.29871  0.74205  1.0000
  C   C1592     1.0  0.78474  0.29696  0.09949  1.0000
  H   H2731     1.0  0.84026  0.31753  0.09287  1.0000
  N   N115      1.0  0.83947  0.32325  0.16651  1.0000
  H   H2732     1.0  0.82469  0.32766  0.13863  1.0000
  H   H2733     1.0  0.84038  0.42108  0.03336  1.0000
  H   H2734     1.0  0.91719  0.47140  0.50987  1.0000
  H   H2735     1.0  0.85791  0.40731  0.99129  1.0000
  H   H2736     1.0  0.86646  0.47195  0.29003  1.0000
  C   C1593     1.0  0.82610  0.31969  0.15931  1.0000
  H   H2737     1.0  0.96340  0.45419  0.60017  1.0000
  C   C1594     1.0  0.85592  0.31094  0.18861  1.0000
  H   H2738     1.0  0.85881  0.30447  0.17106  1.0000
  C   C1595     1.0  0.84601  0.41362  0.03658  1.0000
  H   H2739     1.0  0.84083  0.40162  0.99931  1.0000
  H   H2740     1.0  0.79815  0.33922  0.65260  1.0000
  H   H2741     1.0  0.76078  0.28095  0.85240  1.0000
  H   H2742     1.0  0.79881  0.48159  0.00498  1.0000
  H   H2743     1.0  0.79540  0.28841  0.95251  1.0000
  C   C1596     1.0  0.91177  0.46109  0.51929  1.0000
  H   H2744     1.0  0.75079  0.46530  0.21445  1.0000
  H   H2745     1.0  0.85667  0.30642  0.21655  1.0000
  H   H2746     1.0  0.82492  0.31115  0.14694  1.0000
  H   H2747     1.0  0.77845  0.43040  0.77535  1.0000
  C   C1597     1.0  0.84164  0.31143  0.19020  1.0000
  S   S464      1.0  0.74944  0.29222  0.07261  1.0000
  N   N116      1.0  0.85767  0.41855  0.05102  1.0000
  S   S465      1.0  0.95472  0.42363  0.61974  1.0000
  H   H2748     1.0  0.96568  0.42776  0.12274  1.0000
  C   C1598     1.0  0.77271  0.29111  0.09310  1.0000
  H   H2749     1.0  0.80832  0.29658  0.69968  1.0000
  C   C1599     1.0  0.96231  0.43205  0.64924  1.0000
  H   H2750     1.0  0.94957  0.48840  0.58550  1.0000
  C   C1600     1.0  0.80608  0.31200  0.99356  1.0000
  C   C1601     1.0  0.79483  0.29821  0.93863  1.0000
  H   H2751     1.0  0.81546  0.30902  0.21629  1.0000
  H   H2752     1.0  0.83668  0.31018  0.21951  1.0000
  H   H2753     1.0  0.75936  0.27775  0.99832  1.0000
  H   H2754     1.0  0.85730  0.43800  0.99166  1.0000
  H   H2755     1.0  0.80541  0.42452  0.76220  1.0000
  C   C1602     1.0  0.76460  0.29878  0.08193  1.0000
  H   H2756     1.0  0.79177  0.28830  0.89513  1.0000
  C   C1603     1.0  0.96064  0.45608  0.54635  1.0000
  C   C1604     1.0  0.88517  0.46205  0.17357  1.0000
  C   C1605     1.0  0.81443  0.31623  0.19295  1.0000
  H   H2757     1.0  0.83702  0.30251  0.18242  1.0000
  C   C1606     1.0  0.77003  0.28190  0.98823  1.0000
  C   C1607     1.0  0.94764  0.38546  0.33909  1.0000
  H   H2758     1.0  0.79639  0.30575  0.87986  1.0000
  H   H2759     1.0  0.81280  0.32504  0.20181  1.0000
  H   H2760     1.0  0.77441  0.27870  0.01120  1.0000
  N   N117      1.0  0.78700  0.30413  0.96466  1.0000
  H   H2761     1.0  0.86248  0.43080  0.08784  1.0000
  H   H2762     1.0  0.77213  0.44109  0.94663  1.0000
  H   H2763     1.0  0.81307  0.46386  0.96740  1.0000
  H   H2764     1.0  0.98156  0.43161  0.62236  1.0000
  H   H2765     1.0  0.78302  0.33582  0.95186  1.0000
  C   C1608     1.0  0.97746  0.44301  0.14003  1.0000
  H   H2766     1.0  0.97900  0.49061  0.25869  1.0000
  H   H2767     1.0  0.80546  0.31190  0.18498  1.0000
  H   H2768     1.0  0.85945  0.39268  0.03963  1.0000
  C   C1609     1.0  0.86179  0.40743  0.07178  1.0000
  C   C1610     1.0  0.79045  0.29740  0.90271  1.0000
  H   H2769     1.0  0.78598  0.32707  0.99261  1.0000
  C   C1611     1.0  0.77282  0.29681  0.97631  1.0000
  H   H2770     1.0  0.76763  0.29986  0.99995  1.0000
  H   H2771     1.0  0.76764  0.29919  0.95445  1.0000
  C   C1612     1.0  0.97595  0.43486  0.64373  1.0000
  C   C1613     1.0  0.87228  0.47926  0.26583  1.0000
  H   H2772     1.0  0.87057  0.39142  0.06781  1.0000
  C   C1614     1.0  0.96707  0.44801  0.19555  1.0000
  C   C1615     1.0  0.81171  0.30704  0.69900  1.0000
  H   H2773     1.0  0.84813  0.41806  0.97672  1.0000
  N   N118      1.0  0.96017  0.47349  0.58497  1.0000
  C   C1616     1.0  0.95503  0.43117  0.17218  1.0000
  H   H2774     1.0  0.82716  0.32826  0.58905  1.0000
  C   C1617     1.0  0.81289  0.32952  0.66821  1.0000
  C   C1618     1.0  0.95760  0.45927  0.58428  1.0000
  H   H2775     1.0  0.78844  0.43130  0.73189  1.0000
  H   H2776     1.0  0.76203  0.43844  0.26862  1.0000
  H   H2777     1.0  0.96745  0.45352  0.21623  1.0000
  H   H2778     1.0  0.80677  0.32249  0.98443  1.0000
  C   C1619     1.0  0.77282  0.40489  0.80339  1.0000
  C   C1620     1.0  0.97808  0.45024  0.16651  1.0000
  C   C1621     1.0  0.90902  0.45270  0.16789  1.0000
  C   C1622     1.0  0.87553  0.49029  0.20239  1.0000
  C   C1623     1.0  0.75253  0.43492  0.83624  1.0000
  H   H2779     1.0  0.74884  0.45191  0.80509  1.0000
  H   H2780     1.0  0.99290  0.44384  0.66089  1.0000
  H   H2781     1.0  0.92041  0.44047  0.14515  1.0000
  H   H2782     1.0  0.80979  0.33101  0.69621  1.0000
  H   H2783     1.0  0.91618  0.46104  0.22238  1.0000
  H   H2784     1.0  0.90707  0.48288  0.55303  1.0000
  H   H2785     1.0  0.76787  0.45125  0.04568  1.0000
  H   H2786     1.0  0.91724  0.45557  0.53534  1.0000
  C   C1624     1.0  0.96325  0.47447  0.62147  1.0000
  H   H2787     1.0  0.92226  0.48787  0.44875  1.0000
  C   C1625     1.0  0.97711  0.47378  0.62445  1.0000
  H   H2788     1.0  0.78561  0.47381  0.06557  1.0000
  C   C1626     1.0  0.95612  0.47792  0.23375  1.0000
  C   C1627     1.0  0.91066  0.48897  0.13291  1.0000
  H   H2789     1.0  0.93753  0.46595  0.55411  1.0000
  H   H2790     1.0  0.80491  0.47770  0.09008  1.0000
  C   C1628     1.0  0.81290  0.31249  0.63187  1.0000
  H   H2791     1.0  0.80093  0.43822  0.77492  1.0000
  H   H2792     1.0  0.99413  0.49267  0.12499  1.0000
  C   C1629     1.0  0.76829  0.41196  0.74168  1.0000
  H   H2793     1.0  0.97420  0.41078  0.24850  1.0000
  C   C1630     1.0  0.76137  0.43814  0.95673  1.0000
  H   H2794     1.0  0.95559  0.46059  0.52689  1.0000
  C   C1631     1.0  0.97295  0.48664  0.15459  1.0000
  H   H2795     1.0  0.77324  0.27766  0.96494  1.0000
  H   H2796     1.0  0.79530  0.41238  0.72082  1.0000
  C   C1632     1.0  0.75815  0.44604  0.25382  1.0000
  H   H2797     1.0  0.98726  0.43029  0.27113  1.0000
  H   H2798     1.0  0.88290  0.45148  0.17535  1.0000
  H   H2799     1.0  0.98748  0.41361  0.28802  1.0000
  C   C1633     1.0  0.75355  0.28414  0.87096  1.0000
  H   H2800     1.0  0.89548  0.47574  0.19814  1.0000
  H   H2801     1.0  0.87610  0.46399  0.18777  1.0000
  H   H2802     1.0  0.91105  0.48312  0.22328  1.0000
  H   H2803     1.0  0.81349  0.30921  0.97452  1.0000
  C   C1634     1.0  0.79729  0.42766  0.77733  1.0000
  H   H2804     1.0  0.91265  0.48331  0.59329  1.0000
  H   H2805     1.0  0.96194  0.47385  0.25168  1.0000
  C   C1635     1.0  0.90949  0.48928  0.57139  1.0000
  H   H2806     1.0  0.76905  0.38363  0.81857  1.0000
  H   H2807     1.0  0.82129  0.47792  0.06782  1.0000
  H   H2808     1.0  0.98265  0.49171  0.80923  1.0000
  H   H2809     1.0  0.98011  0.46575  0.61402  1.0000
  H   H2810     1.0  0.98413  0.48048  0.11039  1.0000
  H   H2811     1.0  0.99454  0.48960  0.18289  1.0000
  C   C1636     1.0  0.98784  0.49281  0.23606  1.0000
  H   H2812     1.0  0.89051  0.48877  0.52622  1.0000
  H   H2813     1.0  0.90925  0.49088  0.42944  1.0000
  C   C1637     1.0  0.89733  0.49334  0.58890  1.0000
  C   C1638     1.0  0.92037  0.48186  0.20857  1.0000
  H   H2814     1.0  0.92535  0.49030  0.18510  1.0000
  Fe  Fe233     1.0  0.93482  0.49389  0.32035  1.0000
  H   H2815     1.0  0.92667  0.48186  0.22827  1.0000
  H   H2816     1.0  0.95582  0.49533  0.19708  1.0000
  N   N119      1.0  0.96944  0.49539  0.74958  1.0000
  H   H2817     1.0  0.74731  0.47149  0.90862  1.0000
  C   C1639     1.0  0.97480  0.49649  0.55237  1.0000
  H   H2818     1.0  0.89690  0.53288  0.57714  1.0000
  H   H2819     1.0  0.93223  0.53082  0.51584  1.0000
  H   H2820     1.0  0.98731  0.56869  0.68686  1.0000
  S   S466      1.0  0.96793  0.52865  0.22331  1.0000
  Fe  Fe234     1.0  0.94193  0.51546  0.59752  1.0000
  S   S467      1.0  0.94684  0.51204  0.53962  1.0000
  Fe  Fe235     1.0  0.95186  0.52566  0.66117  1.0000
  S   S468      1.0  0.97141  0.53657  0.66916  1.0000
  S   S469      1.0  0.95519  0.50982  0.63288  1.0000
  S   S470      1.0  0.93952  0.53226  0.62283  1.0000
  H   H2821     1.0  0.89261  0.50645  0.18111  1.0000
  C   C1640     1.0  0.99550  0.55408  0.25174  1.0000
  H   H2822     1.0  0.91802  0.49743  0.55659  1.0000
  C   C1641     1.0  0.89012  0.49887  0.51552  1.0000
  C   C1642     1.0  0.95719  0.49743  0.77134  1.0000
  C   C1643     1.0  0.89897  0.50881  0.52984  1.0000
  C   C1644     1.0  0.88705  0.49876  0.20481  1.0000
  C   C1645     1.0  0.99176  0.57694  0.66250  1.0000
  H   H2823     1.0  0.91876  0.49665  0.11311  1.0000
  C   C1646     1.0  0.90640  0.51661  0.58036  1.0000
  S   S471      1.0  0.94858  0.51083  0.32908  1.0000
  C   C1647     1.0  0.98001  0.56073  0.12902  1.0000
  C   C1648     1.0  0.92943  0.52829  0.46276  1.0000
  C   C1649     1.0  0.97662  0.54177  0.70673  1.0000
  H   H2824     1.0  0.94144  0.50770  0.41734  1.0000
  Fe  Fe236     1.0  0.94960  0.52039  0.27043  1.0000
  H   H2825     1.0  0.99256  0.56495  0.62297  1.0000
  C   C1650     1.0  0.97373  0.55212  0.75796  1.0000
  C   C1651     1.0  0.96857  0.54605  0.73246  1.0000
  H   H2826     1.0  0.90535  0.51472  0.61054  1.0000
  C   C1652     1.0  0.98971  0.54304  0.70823  1.0000
  H   H2827     1.0  0.96751  0.55586  0.77669  1.0000
  H   H2828     1.0  0.95852  0.54525  0.73160  1.0000
  S   S472      1.0  0.93730  0.50256  0.26092  1.0000
  C   C1653     1.0  0.93923  0.51261  0.43895  1.0000
  C   C1654     1.0  0.94361  0.50973  0.47131  1.0000
  C   C1655     1.0  0.94096  0.51611  0.49960  1.0000
  C   C1656     1.0  0.99312  0.54288  0.19280  1.0000
  H   H2829     1.0  0.92404  0.53560  0.45940  1.0000
  C   C1657     1.0  0.98253  0.53957  0.22364  1.0000
  C   C1658     1.0  0.89075  0.50417  0.71421  1.0000
  H   H2830     1.0  0.97797  0.58013  0.11703  1.0000
  H   H2831     1.0  0.89779  0.51846  0.51702  1.0000
  C   C1659     1.0  0.99101  0.59080  0.70637  1.0000
  C   C1660     1.0  0.98381  0.54515  0.25323  1.0000
  C   C1661     1.0  0.96985  0.49933  0.70926  1.0000
  C   C1662     1.0  0.89141  0.49742  0.23752  1.0000
  H   H2832     1.0  0.87990  0.49956  0.52176  1.0000
  H   H2833     1.0  0.97574  0.54269  0.27715  1.0000
  C   C1663     1.0  0.87733  0.50327  0.72378  1.0000
  H   H2834     1.0  0.99225  0.53861  0.16979  1.0000
  H   H2835     1.0  0.88469  0.51690  0.63205  1.0000
  H   H2836     1.0  0.96956  0.55674  0.13051  1.0000
  H   H2837     1.0  0.95748  0.51682  0.73952  1.0000
  S   S473      1.0  0.93214  0.52837  0.28474  1.0000
  H   H2838     1.0  0.97030  0.50981  0.70083  1.0000
  Fe  Fe237     1.0  0.91966  0.50964  0.27871  1.0000
  S   S474      1.0  0.93472  0.51236  0.70501  1.0000
  H   H2839     1.0  0.98274  0.51399  0.74461  1.0000
  H   H2840     1.0  0.97276  0.59482  0.72857  1.0000
  H   H2841     1.0  0.98080  0.56050  0.15763  1.0000
  N   N120      1.0  0.89639  0.50667  0.57106  1.0000
  H   H2842     1.0  0.99239  0.58872  0.14821  1.0000
  H   H2843     1.0  0.89350  0.50110  0.48507  1.0000
  C   C1664     1.0  0.98695  0.55387  0.75850  1.0000
  S   S475      1.0  0.92442  0.50157  0.63701  1.0000
  C   C1665     1.0  0.99589  0.60309  0.61597  1.0000
  H   H2844     1.0  0.91369  0.53708  0.57705  1.0000
  Fe  Fe238     1.0  0.92264  0.51752  0.66530  1.0000
  H   H2845     1.0  0.91639  0.51588  0.56915  1.0000
  C   C1666     1.0  0.90637  0.53092  0.56663  1.0000
  C   C1667     1.0  0.97400  0.51513  0.14468  1.0000
  C   C1668     1.0  0.97821  0.59411  0.70156  1.0000
  S   S476      1.0  0.90615  0.50840  0.23863  1.0000
  H   H2846     1.0  0.88113  0.51681  0.56938  1.0000
  H   H2847     1.0  0.97120  0.50202  0.53060  1.0000
  H   H2848     1.0  0.90929  0.53417  0.53622  1.0000
  H   H2849     1.0  0.98555  0.50021  0.54475  1.0000
  C   C1669     1.0  0.93203  0.52186  0.43454  1.0000
  H   H2850     1.0  0.98533  0.55412  0.11780  1.0000
  C   C1670     1.0  0.98142  0.50346  0.75658  1.0000
  S   S477      1.0  0.90167  0.51836  0.68348  1.0000
  C   C1671     1.0  0.98455  0.57468  0.10454  1.0000
  H   H2851     1.0  0.94920  0.50259  0.47427  1.0000
  H   H2852     1.0  0.87369  0.51129  0.71227  1.0000
  H   H2853     1.0  0.98533  0.59925  0.62784  1.0000
  H   H2854     1.0  0.98297  0.51304  0.18975  1.0000
  C   C1672     1.0  0.93395  0.52551  0.49497  1.0000
  H   H2855     1.0  0.90920  0.50903  0.51762  1.0000
  S   S478      1.0  0.92589  0.52550  0.39478  1.0000
  Fe  Fe239     1.0  0.93040  0.51760  0.34358  1.0000
  H   H2856     1.0  0.99117  0.50837  0.79849  1.0000
  H   H2857     1.0  0.98333  0.57908  0.65253  1.0000
  H   H2858     1.0  0.94701  0.51187  0.78445  1.0000
  C   C1673     1.0  0.95661  0.51168  0.76816  1.0000
  H   H2859     1.0  0.96413  0.51723  0.77915  1.0000
  H   H2860     1.0  0.98003  0.60373  0.68248  1.0000
  C   C1674     1.0  0.88284  0.50789  0.58548  1.0000
  S   S479      1.0  0.99331  0.56346  0.78725  1.0000
  H   H2861     1.0  0.98013  0.49960  0.65429  1.0000
  H   H2862     1.0  0.96452  0.51528  0.16166  1.0000
  S   S480      1.0  0.91647  0.49978  0.33860  1.0000
  H   H2863     1.0  0.88056  0.49934  0.64470  1.0000
  H   H2864     1.0  0.87544  0.49971  0.58196  1.0000
  H   H2865     1.0  0.97122  0.49890  0.57863  1.0000
  H   H2866     1.0  0.99077  0.50402  0.68253  1.0000
  C   C1675     1.0  0.98209  0.50166  0.79718  1.0000
  C   C1676     1.0  0.99482  0.54893  0.73412  1.0000
  H   H2867     1.0  0.99542  0.60707  0.10277  1.0000
  H   H2868     1.0  0.97961  0.52543  0.13359  1.0000
  H   H2869     1.0  0.99170  0.50965  0.15031  1.0000
  H   H2870     1.0  0.98392  0.60023  0.07842  1.0000
  H   H2871     1.0  0.97173  0.58647  0.69323  1.0000
  H   H2872     1.0  0.97389  0.50401  0.81443  1.0000
  Fe  Fe240     1.0  0.93736  0.49729  0.67391  1.0000
  H   H2873     1.0  0.98225  0.57442  0.07750  1.0000
  H   H2874     1.0  0.99255  0.50335  0.22875  1.0000
  H   H2875     1.0  0.86873  0.50780  0.63461  1.0000
  H   H2876     1.0  0.97246  0.51115  0.12084  1.0000
  C   C1677     1.0  0.98172  0.50789  0.16770  1.0000
  H   H2877     1.0  0.98840  0.58224  0.73028  1.0000
  C   C1678     1.0  0.87918  0.50796  0.62652  1.0000
  C   C1679     1.0  0.98150  0.49731  0.68267  1.0000
  H   H2878     1.0  0.96433  0.49818  0.23090  1.0000
  C   C1680     1.0  0.99437  0.60391  0.07734  1.0000
  H   H2879     1.0  0.99028  0.50114  0.74236  1.0000
  H   H2880     1.0  0.98307  0.49664  0.09708  1.0000
