data_image0
_chemical_formula_structural       FeS2FeS2FeSFeS3H3CH2CSH2C4HNFeS2HCHCSCHC3HCHCHFeC2H5C6H4C6H4C6H4SNC2FeHCHC2H2CH4CH10SCNH2FeH2CH8CSCH10CHC2HCH5CFeCH4C2SHNHC2H2C2HSH3FeSCHSCH2SH4CSCH11CHC3H3CFeCHCH2CFeSCHSHSCFeSHFeS2FeHFeSHSFeH3FeSH3NH2C4H3CNCFeNSH2NSFeCHC2SC3HSH2C4H6CHCHCHSCHSC2H2CHC2SH2CHCH4C3H5C2H3SH2CHCH2CFeSH3C2SHCH2CHC2NC8H21CHFeCSH2C2HC2H3FeSH2SCH2SHCH2CHCH8CHFeH2C2H2C3H9C2H2CH2CH5SFeCSH4CH2FeCSC3FeS2FeS2FeSFeS3HCH4CSHN2H5FeS2HCFeCHCHCH3C2HCH3CH2FeHC2H2C2H4C6H4C6H2CHSCH2FeHSHFeSHCHFeSCHNH2CH2CH3CH2C2SH4CHCH3CHSH2FeH2NC4HFeC4HCH8CH5CH5CSCHSCH3C2HSCH2C2H7FeH2NH4CH2S3CHCH2CH2CH2C3H3FeH2CHCHCS2Fe2S2FeCFeSHSH5SHSHCSHC2SCHCH3CH2SH2SFeCH2C6H4C4HNH2CH2CNHCSH2SH2CFeH3SCHFeH4CHCH2FeHC2HSHSHNH4SCH2C3HCHCHSHSH5FeHCSH2CH5CSHSC2H2NC8H14CH2CH3CHCH2CH5C3HCH2CHFeSHS2CHFeS2C2HFeSNHCHFeC6H4CH2C2HCH4CSH2CHSH3CH4FeS2HC2HCH2C8H3C7HFeCHSC2H4CSH2CH3NHC2HC2S2HFeHCHCSCH4FeNCHCHSCHC2H2CNH2CHNHCNCH2SHCHCH5CH4FeSH3CH8CH5C2H2FeH3NH2C3H4SH2CHCSHC2H4FeHCH3C3SH2C2H6FeHCH3CH2SH2CFeS2FeS2FeSFeS3C2HCHC3H2C3H3C3H9CHCHS2HC2FeHC4H3CHC2H5C2HCHFeHSHCHCH2CH4CNH7SHCHCH3CSH2CHNH2CH4CHCHNH2C2H5CH4CH5CSCHCHC2HCHFeCSC3HCH2SH4CH5FeH8CH2NH3C2NC7H2SH7CHCHCHCHSH3CHC2HCH5C2HCH4CHC4HFeSCSH2Fe2S2H2NH2C2HCHC6H5CHCH7FeHSH3SC2HCH3CFeS4H2CH4NC5H3C7H4FeNC6H6FeH6NHCHCH3C2H2SCH3CHC3H3SH3SFeHC2H2C2SH4CHCHC2HCH3SH2SHS2HCFeHSCH5CHFe2HCH3CHCHCHCH4C2H6CH3C2FeH3SHCH3CSH2NH3NH2C2SCSC3H3CH3CFeS2FeS2FeSFeS3C2HCHC2H3FeHCHC6NSH4CH2C2HSH2SHSC5H4C3NCH2CHCH3CH2CH3CHCHC3NH6CH7FeSHNC8H22C2HCH4C2HSC7HCH3CH3CH6SH8SHNH3CSH3FeSHFeCHCH11CHC2HCHCH4CH3C2H4CHCH2CH2C3HC2HCH3C3HCFeHSFeS2FeS2H2FeHCFeSCSH7C4HNC2SCH5C6HNH2CFeHSCH4CH5C2H2C6H4C2S2HCH4CHCH3SH2FeH2CHCSCH2NH3CH3SC2H4CHCHCHCHCHCHC2H5SH3CH3C2H3C2H2NH3CH2NHSH4C5H3CHCH2CH2C2H2CHSCHCHCH3C2HCH4C2H4CFeCFeCSH3SH2FeSHFeS2FeSFeHS2HFeS2FeSCFeSHS3FeCH2C7H4C2HCH4C5H2C6H6C2HCHC4H6NH5C2H3C3HC2S2CHC2HCH4CH2CH4C3HFeH3FeCSNH2C2SH2C4H6CH5CH3C2HCSH3SH2CSHCN2C3HC2H7SHC3H2C2H3CHCH7CHSHC2H2CH3CH6CFeS2FeS2FeS2HC3HFeSFeSH2NHCHCH3CH3CH3CSHC4HC2HCH3C2H3CSH3NC4H3C6H5CHCSH10SFeHCH5CNHFeHCHCNC8H21CH2C2HCHSH4C4HCHCHCHCSH4CH4C2H2CHC3NHCH3FeHNH2CH2SH4C2HCH2NH2CH2S2HCHCHCHCHC2H4CHCH2CHC2H2C2SH2CH2C2H7FeS2CH2SCHFeS2FeS2FeSFeHS2CFeS2FeSHFeSH2S2HCHC8H4C2HCNCH2CHC4HC6H7C2HC2H2CH2CH3NHNHC2HFeHNH2CH2CHCHC3H2CH4C2SHC2HSH5C2HCH2SHCH3CH2CHSHCH5SCH3FeHCH4NC4H12C2FeHCH6CNC6H3FeH6C2H4CH6CSHCH3NH2SCH4CHC
_chemical_formula_sum              "Fe128 S256 H1536 C896 N64"
_cell_length_a       44.3932
_cell_length_b       42.8247
_cell_length_c       45.6087
_cell_angle_alpha    89.8144
_cell_angle_beta     89.9268
_cell_angle_gamma    89.8852

_space_group_name_H-M_alt    "P 1"
_space_group_IT_number       1

loop_
  _space_group_symop_operation_xyz
  'x, y, z'

loop_
  _atom_site_type_symbol
  _atom_site_label
  _atom_site_symmetry_multiplicity
  _atom_site_fract_x
  _atom_site_fract_y
  _atom_site_fract_z
  _atom_site_occupancy
  Fe  Fe1       1.0  0.19101  0.34769  0.27530  1.0000
  S   S1        1.0  0.17943  0.34240  0.22750  1.0000
  S   S2        1.0  0.17179  0.31312  0.30794  1.0000
  Fe  Fe2       1.0  0.23929  0.39723  0.26283  1.0000
  S   S3        1.0  0.23178  0.39513  0.21434  1.0000
  S   S4        1.0  0.27176  0.43032  0.28511  1.0000
  Fe  Fe3       1.0  0.18247  0.39488  0.22558  1.0000
  S   S5        1.0  0.15159  0.43243  0.20713  1.0000
  Fe  Fe4       1.0  0.22969  0.34299  0.22086  1.0000
  S   S6        1.0  0.25580  0.30991  0.19163  1.0000
  S   S7        1.0  0.19010  0.40001  0.27417  1.0000
  S   S8        1.0  0.24112  0.34521  0.26857  1.0000
  H   H1        1.0  0.21370  0.33296  0.39345  1.0000
  H   H2        1.0  0.04259  0.30325  0.35530  1.0000
  H   H3        1.0  0.04366  0.17002  0.06159  1.0000
  C   C1        1.0  0.28603  0.02926  0.26080  1.0000
  H   H4        1.0  0.17459  0.40393  0.05550  1.0000
  H   H5        1.0  0.29098  0.00432  0.18999  1.0000
  C   C2        1.0  0.20628  0.34484  0.41381  1.0000
  S   S9        1.0  0.07579  0.42946  0.08908  1.0000
  H   H6        1.0  0.12352  0.10377  0.09233  1.0000
  H   H7        1.0  0.09258  0.06384  0.04409  1.0000
  C   C3        1.0  0.09924  0.09776  0.09423  1.0000
  C   C4        1.0  0.09620  0.08942  0.04150  1.0000
  C   C5        1.0  0.18682  0.43573  0.11851  1.0000
  C   C6        1.0  0.13259  0.01696  0.01049  1.0000
  H   H8        1.0  0.22792  0.48167  0.28484  1.0000
  N   N1        1.0  0.18389  0.29642  0.43975  1.0000
  Fe  Fe5       1.0  0.05050  0.29319  0.42050  1.0000
  S   S10       1.0  0.05715  0.24961  0.39454  1.0000
  S   S11       1.0  0.07491  0.33749  0.40751  1.0000
  H   H9        1.0  0.13644  0.08479  0.01452  1.0000
  C   C7        1.0  0.17528  0.01815  0.97664  1.0000
  H   H10       1.0  0.20831  0.23413  0.43960  1.0000
  C   C8        1.0  0.08892  0.11285  0.12315  1.0000
  S   S12       1.0  0.00992  0.01992  0.05507  1.0000
  C   C9        1.0  0.19397  0.27614  0.41448  1.0000
  H   H11       1.0  0.04939  0.07098  0.07513  1.0000
  C   C10       1.0  0.11264  0.02218  0.98730  1.0000
  C   C11       1.0  0.26027  0.01129  0.25511  1.0000
  C   C12       1.0  0.31057  0.01605  0.27549  1.0000
  H   H12       1.0  0.30321  0.20607  0.19211  1.0000
  C   C13       1.0  0.31297  0.47199  0.21576  1.0000
  H   H13       1.0  0.21706  0.28255  0.40710  1.0000
  C   C14       1.0  0.29367  0.45562  0.26321  1.0000
  H   H14       1.0  0.17436  0.00665  0.18211  1.0000
  Fe  Fe6       1.0  0.06140  0.22603  0.43823  1.0000
  C   C15       1.0  0.03908  0.27881  0.27129  1.0000
  C   C16       1.0  0.13026  0.09436  0.03636  1.0000
  H   H15       1.0  0.05284  0.15436  0.09737  1.0000
  H   H16       1.0  0.23424  0.47080  0.23787  1.0000
  H   H17       1.0  0.12563  0.40419  0.03101  1.0000
  H   H18       1.0  0.31502  0.46809  0.19243  1.0000
  H   H19       1.0  0.19611  0.47291  0.22928  1.0000
  C   C17       1.0  0.26168  0.27194  0.20573  1.0000
  C   C18       1.0  0.28142  0.25138  0.19129  1.0000
  C   C19       1.0  0.28787  0.22171  0.20325  1.0000
  C   C20       1.0  0.27413  0.21228  0.22945  1.0000
  C   C21       1.0  0.25388  0.23258  0.24345  1.0000
  C   C22       1.0  0.24785  0.26237  0.23179  1.0000
  H   H20       1.0  0.29202  0.25860  0.17101  1.0000
  H   H21       1.0  0.15016  0.42999  0.01158  1.0000
  H   H22       1.0  0.24296  0.22536  0.26357  1.0000
  H   H23       1.0  0.23243  0.27789  0.24299  1.0000
  C   C23       1.0  0.14602  0.32176  0.33611  1.0000
  C   C24       1.0  0.13468  0.35183  0.34097  1.0000
  C   C25       1.0  0.11318  0.35682  0.36330  1.0000
  C   C26       1.0  0.10296  0.33177  0.38060  1.0000
  C   C27       1.0  0.11510  0.30208  0.37611  1.0000
  C   C28       1.0  0.13627  0.29705  0.35387  1.0000
  H   H24       1.0  0.14218  0.37106  0.32737  1.0000
  H   H25       1.0  0.10408  0.37998  0.36680  1.0000
  H   H26       1.0  0.10869  0.28297  0.39014  1.0000
  H   H27       1.0  0.14511  0.27379  0.35034  1.0000
  C   C29       1.0  0.09588  0.42972  0.12254  1.0000
  C   C30       1.0  0.11112  0.40270  0.13198  1.0000
  C   C31       1.0  0.12818  0.40288  0.15805  1.0000
  C   C32       1.0  0.12992  0.43012  0.17481  1.0000
  C   C33       1.0  0.11424  0.45687  0.16560  1.0000
  C   C34       1.0  0.09731  0.45668  0.13964  1.0000
  H   H28       1.0  0.10993  0.38165  0.11898  1.0000
  H   H29       1.0  0.14007  0.38208  0.16507  1.0000
  H   H30       1.0  0.28680  0.43033  0.22313  1.0000
  H   H31       1.0  0.01252  0.30796  0.32906  1.0000
  S   S13       1.0  0.07342  0.02531  0.99363  1.0000
  N   N2        1.0  0.06188  0.28205  0.29556  1.0000
  C   C35       1.0  0.09294  0.28046  0.28196  1.0000
  C   C36       1.0  0.03042  0.10094  0.04200  1.0000
  Fe  Fe7       1.0  0.00743  0.24281  0.39879  1.0000
  H   H32       1.0  0.09829  0.07195  0.09741  1.0000
  C   C37       1.0  0.10213  0.30839  0.26238  1.0000
  H   H33       1.0  0.00637  0.09753  0.04797  1.0000
  C   C38       1.0  0.19509  0.46160  0.03705  1.0000
  C   C39       1.0  0.06183  0.22254  0.30531  1.0000
  H   H34       1.0  0.11058  0.27836  0.29923  1.0000
  H   H35       1.0  0.09550  0.25927  0.26813  1.0000
  C   C40       1.0  0.30749  0.02008  0.17925  1.0000
  H   H36       1.0  0.21233  0.45576  0.18432  1.0000
  H   H37       1.0  0.08047  0.31999  0.32100  1.0000
  H   H38       1.0  0.03271  0.12461  0.03245  1.0000
  H   H39       1.0  0.14564  0.03232  0.26383  1.0000
  C   C41       1.0  0.32963  0.28232  0.25278  1.0000
  H   H40       1.0  0.08671  0.31182  0.24357  1.0000
  H   H41       1.0  0.10413  0.33036  0.27506  1.0000
  H   H42       1.0  0.12488  0.30368  0.25316  1.0000
  H   H43       1.0  0.29884  0.22701  0.39595  1.0000
  H   H44       1.0  0.08513  0.09579  0.02041  1.0000
  H   H45       1.0  0.17523  0.41289  0.11717  1.0000
  H   H46       1.0  0.08500  0.47731  0.13315  1.0000
  H   H47       1.0  0.16964  0.34507  0.44431  1.0000
  H   H48       1.0  0.16072  0.32818  0.41053  1.0000
  H   H49       1.0  0.10173  0.10209  0.14151  1.0000
  S   S14       1.0  0.01194  0.21408  0.44007  1.0000
  C   C42       1.0  0.20064  0.44518  0.08879  1.0000
  N   N3        1.0  0.08231  0.10702  0.06686  1.0000
  H   H50       1.0  0.21645  0.46450  0.09339  1.0000
  H   H51       1.0  0.30593  0.32678  0.25059  1.0000
  Fe  Fe8       1.0  0.05443  0.00497  0.03572  1.0000
  H   H52       1.0  0.11061  0.00397  0.23234  1.0000
  H   H53       1.0  0.26776  0.20092  0.39880  1.0000
  C   C43       1.0  0.19455  0.24058  0.42026  1.0000
  H   H54       1.0  0.25063  0.46804  0.19050  1.0000
  H   H55       1.0  0.29784  0.04399  0.18052  1.0000
  H   H56       1.0  0.29811  0.15554  0.38684  1.0000
  H   H57       1.0  0.19995  0.36902  0.40732  1.0000
  H   H58       1.0  0.13558  0.02735  0.21159  1.0000
  H   H59       1.0  0.03879  0.25678  0.33061  1.0000
  H   H60       1.0  0.30950  0.01444  0.15564  1.0000
  H   H61       1.0  0.28661  0.05354  0.25432  1.0000
  C   C44       1.0  0.15980  0.42464  0.05909  1.0000
  S   S15       1.0  0.00018  0.28832  0.42232  1.0000
  C   C45       1.0  0.05994  0.25592  0.31773  1.0000
  H   H62       1.0  0.24123  0.02192  0.24414  1.0000
  H   H63       1.0  0.11507  0.47787  0.17867  1.0000
  H   H64       1.0  0.05377  0.33210  0.29442  1.0000
  H   H65       1.0  0.14027  0.47117  0.09012  1.0000
  H   H66       1.0  0.23103  0.29951  0.45299  1.0000
  H   H67       1.0  0.17801  0.01638  0.24623  1.0000
  H   H68       1.0  0.10814  0.14990  0.06647  1.0000
  H   H69       1.0  0.00212  0.26209  0.30059  1.0000
  H   H70       1.0  0.20465  0.22870  0.40097  1.0000
  H   H71       1.0  0.22526  0.34665  0.42948  1.0000
  C   C46       1.0  0.16375  0.01560  0.00524  1.0000
  H   H72       1.0  0.04347  0.21779  0.28948  1.0000
  C   C47       1.0  0.17860  0.32880  0.42761  1.0000
  C   C48       1.0  0.11716  0.99909  0.15964  1.0000
  H   H73       1.0  0.12258  0.32208  0.45434  1.0000
  C   C49       1.0  0.15483  0.28316  0.45172  1.0000
  H   H74       1.0  0.17145  0.23103  0.42270  1.0000
  H   H75       1.0  0.03803  0.10748  0.08801  1.0000
  H   H76       1.0  0.99749  0.07409  0.18642  1.0000
  H   H77       1.0  0.12090  0.44505  0.03554  1.0000
  H   H78       1.0  0.03313  0.34094  0.34194  1.0000
  C   C50       1.0  0.13445  0.00555  0.22487  1.0000
  Fe  Fe9       1.0  0.32280  0.14583  0.23674  1.0000
  C   C51       1.0  0.08506  0.14163  0.06093  1.0000
  H   H79       1.0  0.11082  0.02196  0.16915  1.0000
  H   H80       1.0  0.17987  0.47376  0.02157  1.0000
  H   H81       1.0  0.05899  0.20566  0.32367  1.0000
  H   H82       1.0  0.07378  0.18567  0.08211  1.0000
  C   C52       1.0  0.05877  0.31329  0.31064  1.0000
  C   C53       1.0  0.13813  0.42657  0.03266  1.0000
  S   S16       1.0  0.28153  0.17556  0.24568  1.0000
  H   H83       1.0  0.32563  0.28392  0.27682  1.0000
  N   N4        1.0  0.17845  0.45345  0.06496  1.0000
  H   H84       1.0  0.32237  0.31587  0.21667  1.0000
  C   C54       1.0  0.05007  0.09627  0.06956  1.0000
  C   C55       1.0  0.29259  0.20260  0.40137  1.0000
  H   H85       1.0  0.08218  0.14633  0.03703  1.0000
  H   H86       1.0  0.21536  0.42554  0.08149  1.0000
  C   C56       1.0  0.06230  0.16340  0.07662  1.0000
  C   C57       1.0  0.29678  0.45066  0.23309  1.0000
  H   H87       1.0  0.12415  0.01433  0.03255  1.0000
  S   S17       1.0  0.32332  0.09689  0.21896  1.0000
  H   H88       1.0  0.04469  0.25897  0.25650  1.0000
  H   H89       1.0  0.14042  0.27414  0.43362  1.0000
  H   H90       1.0  0.06481  0.10877  0.12807  1.0000
  Fe  Fe10      1.0  0.03337  0.01683  0.09845  1.0000
  S   S18       1.0  0.21437  0.01278  0.97146  1.0000
  C   C58       1.0  0.30754  0.48168  0.27601  1.0000
  H   H91       1.0  0.08406  0.21757  0.29525  1.0000
  S   S19       1.0  0.07864  0.00685  0.07865  1.0000
  C   C59       1.0  0.15426  0.01140  0.25215  1.0000
  H   H92       1.0  0.17918  0.27982  0.39506  1.0000
  H   H93       1.0  0.32198  0.23196  0.29122  1.0000
  S   S20       1.0  0.02865  0.05155  0.13525  1.0000
  H   H94       1.0  0.14395  0.08129  0.05267  1.0000
  H   H95       1.0  0.13670  0.11934  0.03624  1.0000
  H   H96       1.0  0.24233  0.46917  0.05003  1.0000
  H   H97       1.0  0.13814  0.00137  0.14663  1.0000
  C   C60       1.0  0.03518  0.31605  0.33540  1.0000
  S   S21       1.0  0.10232  0.19522  0.44434  1.0000
  C   C61       1.0  0.32627  0.31586  0.24073  1.0000
  H   H98       1.0  0.31741  0.11838  0.35830  1.0000
  H   H99       1.0  0.03580  0.08320  0.02503  1.0000
  H   H100      1.0  0.14539  0.41876  0.07830  1.0000
  H   H101      1.0  0.20267  0.44004  0.02549  1.0000
  H   H102      1.0  0.09411  0.13816  0.12353  1.0000
  H   H103      1.0  0.03997  0.29944  0.25644  1.0000
  H   H104      1.0  0.31039  0.26861  0.24419  1.0000
  H   H105      1.0  0.15358  0.99178  0.26804  1.0000
  H   H106      1.0  0.17125  0.45376  0.12716  1.0000
  H   H107      1.0  0.29751  0.19779  0.42479  1.0000
  H   H108      1.0  0.07822  0.25841  0.33429  1.0000
  C   C62       1.0  0.22344  0.48214  0.03969  1.0000
  H   H109      1.0  0.29946  0.18364  0.35811  1.0000
  C   C63       1.0  0.30776  0.17864  0.38075  1.0000
  C   C64       1.0  0.00570  0.27564  0.28027  1.0000
  C   C65       1.0  0.16285  0.48141  0.96302  1.0000
  H   H110      1.0  0.20515  0.43271  0.13483  1.0000
  H   H111      1.0  0.09906  0.99273  0.14394  1.0000
  H   H112      1.0  0.16494  0.18202  0.45533  1.0000
  C   C66       1.0  0.22666  0.47537  0.19182  1.0000
  Fe  Fe11      1.0  0.06034  0.47610  0.07063  1.0000
  C   C67       1.0  0.15713  0.47932  0.07369  1.0000
  H   H113      1.0  0.17903  0.01178  0.02338  1.0000
  C   C68       1.0  0.30920  0.98458  0.28426  1.0000
  H   H114      1.0  0.19110  0.98446  0.21033  1.0000
  H   H115      1.0  0.29625  0.17936  0.72444  1.0000
  C   C69       1.0  0.29628  0.15422  0.71826  1.0000
  Fe  Fe12      1.0  0.28743  0.04083  0.88791  1.0000
  S   S22       1.0  0.29022  0.02216  0.93383  1.0000
  C   C70       1.0  0.02329  0.01352  0.80406  1.0000
  H   H116      1.0  0.02183  0.08522  0.64081  1.0000
  S   S23       1.0  0.10689  0.41532  0.67475  1.0000
  H   H117      1.0  0.06536  0.02801  0.78428  1.0000
  S   S24       1.0  0.23734  0.03271  0.88511  1.0000
  C   C71       1.0  0.21711  0.39408  0.78267  1.0000
  Fe  Fe13      1.0  0.30058  0.24110  0.52043  1.0000
  S   S25       1.0  0.27527  0.19825  0.53504  1.0000
  H   H118      1.0  0.03319  0.33844  0.49022  1.0000
  Fe  Fe14      1.0  0.28272  0.27764  0.57496  1.0000
  S   S26       1.0  0.25803  0.23693  0.59372  1.0000
  S   S27       1.0  0.27837  0.31988  0.60413  1.0000
  Fe  Fe15      1.0  0.29694  0.20802  0.57860  1.0000
  H   H119      1.0  0.10886  0.02979  0.94069  1.0000
  Fe  Fe16      1.0  0.23877  0.23179  0.54860  1.0000
  S   S28       1.0  0.18780  0.23212  0.54979  1.0000
  H   H120      1.0  0.15951  0.26271  0.46608  1.0000
  S   S29       1.0  0.26218  0.27382  0.53017  1.0000
  Fe  Fe17      1.0  0.25611  0.48000  0.90622  1.0000
  H   H121      1.0  0.23830  0.41077  0.63456  1.0000
  H   H122      1.0  0.22455  0.47047  0.80145  1.0000
  H   H123      1.0  0.30517  0.14027  0.80585  1.0000
  Fe  Fe18      1.0  0.32370  0.46658  0.89669  1.0000
  S   S30       1.0  0.08180  0.27961  0.70954  1.0000
  H   H124      1.0  0.13261  0.37946  0.88303  1.0000
  H   H125      1.0  0.27788  0.13112  0.67913  1.0000
  H   H126      1.0  0.23850  0.47333  0.67231  1.0000
  N   N5        1.0  0.04895  0.34542  0.55366  1.0000
  H   H127      1.0  0.09411  0.35763  0.56701  1.0000
  H   H128      1.0  0.19005  0.45425  0.68986  1.0000
  C   C72       1.0  0.04598  0.26291  0.71589  1.0000
  C   C73       1.0  0.04307  0.23026  0.71560  1.0000
  C   C74       1.0  0.07986  0.33646  0.56456  1.0000
  C   C75       1.0  0.02063  0.28135  0.72169  1.0000
  H   H129      1.0  0.06259  0.21582  0.71138  1.0000
  H   H130      1.0  0.07318  0.33320  0.49604  1.0000
  H   H131      1.0  0.02266  0.30651  0.72209  1.0000
  C   C76       1.0  0.04768  0.98812  0.69461  1.0000
  N   N6        1.0  0.25384  0.43130  0.69479  1.0000
  C   C77       1.0  0.04820  0.02079  0.69778  1.0000
  Fe  Fe19      1.0  0.12032  0.36940  0.65539  1.0000
  N   N7        1.0  0.32323  0.13725  0.73064  1.0000
  S   S31       1.0  0.28220  0.43676  0.89379  1.0000
  H   H132      1.0  0.06842  0.03365  0.69235  1.0000
  H   H133      1.0  0.03812  0.30353  0.52849  1.0000
  N   N8        1.0  0.14675  0.42471  0.86632  1.0000
  S   S32       1.0  0.13687  0.42646  0.75198  1.0000
  Fe  Fe20      1.0  0.08762  0.33150  0.70156  1.0000
  C   C78       1.0  0.12564  0.42777  0.84062  1.0000
  H   H134      1.0  0.17425  0.47275  0.77785  1.0000
  C   C79       1.0  0.24046  0.33195  0.60648  1.0000
  C   C80       1.0  0.22135  0.32889  0.58232  1.0000
  S   S33       1.0  0.13554  0.34877  0.69814  1.0000
  C   C81       1.0  0.18000  0.35163  0.60998  1.0000
  C   C82       1.0  0.19883  0.35429  0.63443  1.0000
  C   C83       1.0  0.22915  0.34472  0.63258  1.0000
  H   H135      1.0  0.22984  0.31936  0.56208  1.0000
  S   S34       1.0  0.07094  0.37405  0.72563  1.0000
  H   H136      1.0  0.19003  0.36374  0.65464  1.0000
  H   H137      1.0  0.24373  0.34671  0.65143  1.0000
  C   C84       1.0  0.32567  0.14547  0.76275  1.0000
  C   C85       1.0  0.13372  0.40428  0.89014  1.0000
  C   C86       1.0  0.17601  0.20442  0.49631  1.0000
  C   C87       1.0  0.16489  0.22152  0.52006  1.0000
  H   H138      1.0  0.22902  0.37207  0.78420  1.0000
  H   H139      1.0  0.13040  0.46768  0.88558  1.0000
  H   H140      1.0  0.29529  0.37994  0.71418  1.0000
  H   H141      1.0  0.19944  0.19743  0.49583  1.0000
  H   H142      1.0  0.17685  0.33672  0.56503  1.0000
  H   H143      1.0  0.13621  0.44191  0.82283  1.0000
  C   C88       1.0  0.18618  0.45072  0.77914  1.0000
  H   H144      1.0  0.04245  0.45016  0.74371  1.0000
  C   C89       1.0  0.13437  0.22995  0.52083  1.0000
  H   H145      1.0  0.06439  0.46341  0.68750  1.0000
  C   C90       1.0  0.12605  0.20479  0.47393  1.0000
  H   H146      1.0  0.28633  0.38711  0.75164  1.0000
  S   S35       1.0  0.14206  0.36330  0.61119  1.0000
  C   C91       1.0  0.22312  0.41628  0.69695  1.0000
  H   H147      1.0  0.02853  0.02924  0.60041  1.0000
  S   S36       1.0  0.07371  0.34974  0.65762  1.0000
  C   C92       1.0  0.18866  0.39533  0.76910  1.0000
  C   C93       1.0  0.19134  0.33898  0.58396  1.0000
  H   H148      1.0  0.03263  0.35016  0.59848  1.0000
  H   H149      1.0  0.05912  0.36809  0.47973  1.0000
  C   C94       1.0  0.30050  0.13279  0.78298  1.0000
  H   H150      1.0  0.29983  0.10690  0.78349  1.0000
  C   C95       1.0  0.27125  0.42425  0.72252  1.0000
  C   C96       1.0  0.02943  0.31744  0.54714  1.0000
  S   S37       1.0  0.31385  0.08451  0.87602  1.0000
  H   H151      1.0  0.07033  0.38282  0.52898  1.0000
  H   H152      1.0  0.07907  0.32692  0.58728  1.0000
  C   C97       1.0  0.21459  0.44947  0.79262  1.0000
  H   H153      1.0  0.08538  0.29578  0.53441  1.0000
  C   C98       1.0  0.11507  0.22178  0.49779  1.0000
  H   H154      1.0  0.07094  0.39222  0.59538  1.0000
  H   H155      1.0  0.12558  0.24273  0.53938  1.0000
  H   H156      1.0  0.16515  0.45580  0.89942  1.0000
  H   H157      1.0  0.10202  0.43655  0.91225  1.0000
  C   C99       1.0  0.09867  0.31408  0.54545  1.0000
  C   C100      1.0  0.10210  0.41342  0.90139  1.0000
  C   C101      1.0  0.27165  0.41792  0.66954  1.0000
  H   H158      1.0  0.18248  0.41909  0.83430  1.0000
  H   H159      1.0  0.11475  0.30115  0.55968  1.0000
  H   H160      1.0  0.25900  0.43299  0.74213  1.0000
  H   H161      1.0  0.10500  0.44104  0.84670  1.0000
  H   H162      1.0  0.04672  0.28521  0.58110  1.0000
  C   C102      1.0  0.05112  0.36626  0.52689  1.0000
  C   C103      1.0  0.15202  0.45679  0.87873  1.0000
  H   H163      1.0  0.29534  0.09560  0.73237  1.0000
  H   H164      1.0  0.19813  0.40469  0.89908  1.0000
  H   H165      1.0  0.09150  0.22788  0.49889  1.0000
  S   S38       1.0  0.02270  0.07805  0.70836  1.0000
  H   H166      1.0  0.01218  0.27369  0.56444  1.0000
  H   H167      1.0  0.19244  0.30583  0.50738  1.0000
  C   C104      1.0  0.05087  0.00679  0.78422  1.0000
  H   H168      1.0  0.10334  0.38155  0.84170  1.0000
  C   C105      1.0  0.11591  0.39680  0.82633  1.0000
  H   H169      1.0  0.00662  0.32519  0.53983  1.0000
  H   H170      1.0  0.09500  0.39619  0.91830  1.0000
  C   C106      1.0  0.03350  0.36377  0.57767  1.0000
  Fe  Fe21      1.0  0.06137  0.39401  0.68095  1.0000
  S   S39       1.0  0.30014  0.99543  0.86731  1.0000
  H   H171      1.0  0.17694  0.41628  0.68124  1.0000
  H   H172      1.0  0.11195  0.32737  0.52902  1.0000
  H   H173      1.0  0.32586  0.17121  0.76593  1.0000
  C   C107      1.0  0.31923  0.10226  0.72830  1.0000
  C   C108      1.0  0.20298  0.41286  0.87650  1.0000
  S   S40       1.0  0.01822  0.41936  0.66941  1.0000
  H   H174      1.0  0.29332  0.43666  0.72252  1.0000
  C   C109      1.0  0.04812  0.39529  0.58589  1.0000
  H   H175      1.0  0.00619  0.03397  0.64653  1.0000
  H   H176      1.0  0.21538  0.41551  0.72008  1.0000
  C   C110      1.0  0.04414  0.47623  0.68231  1.0000
  H   H177      1.0  0.10064  0.40210  0.80766  1.0000
  C   C111      1.0  0.29127  0.15210  0.68487  1.0000
  C   C112      1.0  0.01508  0.21606  0.72118  1.0000
  N   N9        1.0  0.15860  0.24692  0.64097  1.0000
  C   C113      1.0  0.17254  0.27810  0.64823  1.0000
  C   C114      1.0  0.13653  0.25259  0.61639  1.0000
  C   C115      1.0  0.18361  0.22602  0.63019  1.0000
  C   C116      1.0  0.14408  0.23370  0.66829  1.0000
  C   C117      1.0  0.19804  0.27766  0.67122  1.0000
  C   C118      1.0  0.11091  0.27582  0.62335  1.0000
  C   C119      1.0  0.17470  0.19320  0.61971  1.0000
  C   C120      1.0  0.11818  0.21001  0.66389  1.0000
  H   H178      1.0  0.18192  0.28914  0.62804  1.0000
  H   H179      1.0  0.15529  0.29466  0.65674  1.0000
  H   H180      1.0  0.12574  0.23081  0.60884  1.0000
  H   H181      1.0  0.14853  0.26160  0.59658  1.0000
  H   H182      1.0  0.19571  0.23759  0.61175  1.0000
  H   H183      1.0  0.20074  0.22206  0.64757  1.0000
  H   H184      1.0  0.16129  0.22238  0.68256  1.0000
  H   H185      1.0  0.13433  0.25299  0.68164  1.0000
  H   H186      1.0  0.19184  0.26451  0.69128  1.0000
  H   H187      1.0  0.21930  0.26835  0.66178  1.0000
  H   H188      1.0  0.20285  0.30202  0.67805  1.0000
  H   H189      1.0  0.11902  0.30024  0.62181  1.0000
  H   H190      1.0  0.09276  0.27310  0.60690  1.0000
  H   H191      1.0  0.10082  0.27205  0.64529  1.0000
  H   H192      1.0  0.19517  0.18146  0.61096  1.0000
  H   H193      1.0  0.15834  0.19368  0.60140  1.0000
  H   H194      1.0  0.16646  0.17852  0.63809  1.0000
  H   H195      1.0  0.11878  0.19268  0.68207  1.0000
  H   H196      1.0  0.11897  0.19660  0.64329  1.0000
  H   H197      1.0  0.09596  0.22179  0.66603  1.0000
  H   H198      1.0  0.31448  0.04336  0.82571  1.0000
  C   C121      1.0  0.01150  0.01303  0.59127  1.0000
  H   H199      1.0  0.99877  0.27194  0.66066  1.0000
  Fe  Fe22      1.0  0.11768  0.39309  0.71831  1.0000
  C   C122      1.0  0.22995  0.42107  0.79483  1.0000
  S   S41       1.0  0.26540  0.41876  0.81197  1.0000
  H   H200      1.0  0.02159  0.03913  0.80762  1.0000
  H   H201      1.0  0.14875  0.40412  0.90968  1.0000
  C   C123      1.0  0.17566  0.40977  0.85594  1.0000
  C   C124      1.0  0.32903  0.08651  0.69942  1.0000
  H   H202      1.0  0.17865  0.37436  0.76025  1.0000
  C   C125      1.0  0.01857  0.46045  0.67241  1.0000
  C   C126      1.0  0.02236  0.03696  0.70706  1.0000
  H   H203      1.0  0.08486  0.41282  0.88386  1.0000
  H   H204      1.0  0.18311  0.47019  0.84259  1.0000
  H   H205      1.0  0.27586  0.41489  0.62229  1.0000
  Fe  Fe23      1.0  0.27705  0.45384  0.84753  1.0000
  S   S42       1.0  0.21542  0.46765  0.93457  1.0000
  H   H206      1.0  0.29524  0.42687  0.66996  1.0000
  H   H207      1.0  0.03087  0.45047  0.78107  1.0000
  S   S43       1.0  0.31535  0.16843  0.60629  1.0000
  C   C127      1.0  0.02499  0.29416  0.57264  1.0000
  H   H208      1.0  0.27511  0.47607  0.68713  1.0000
  H   H209      1.0  0.22186  0.39850  0.86783  1.0000
  S   S44       1.0  0.32093  0.47958  0.84903  1.0000
  H   H210      1.0  0.16404  0.02522  0.93121  1.0000
  C   C128      1.0  0.27760  0.38942  0.72888  1.0000
  H   H211      1.0  0.27347  0.39208  0.67139  1.0000
  H   H212      1.0  0.17252  0.38433  0.85201  1.0000
  C   C129      1.0  0.03008  0.46414  0.76036  1.0000
  H   H213      1.0  0.21126  0.43724  0.87716  1.0000
  C   C130      1.0  0.17313  0.42372  0.76734  1.0000
  H   H214      1.0  0.13543  0.38398  0.81703  1.0000
  H   H215      1.0  0.22419  0.39139  0.69005  1.0000
  H   H216      1.0  0.27893  0.17320  0.67720  1.0000
  H   H217      1.0  0.27518  0.14525  0.72836  1.0000
  H   H218      1.0  0.27803  0.14217  0.77708  1.0000
  H   H219      1.0  0.25617  0.44908  0.63349  1.0000
  H   H220      1.0  0.01319  0.19088  0.72115  1.0000
  H   H221      1.0  0.01874  0.00748  0.56854  1.0000
  C   C131      1.0  0.99739  0.46895  0.74977  1.0000
  H   H222      1.0  0.25698  0.37495  0.72755  1.0000
  Fe  Fe24      1.0  0.24144  0.00884  0.92912  1.0000
  H   H223      1.0  0.04178  0.00521  0.76151  1.0000
  H   H224      1.0  0.04901  0.41182  0.56716  1.0000
  C   C132      1.0  0.19696  0.43176  0.67991  1.0000
  C   C133      1.0  0.25225  0.46633  0.69155  1.0000
  H   H225      1.0  0.10039  0.99621  0.85996  1.0000
  H   H226      1.0  0.09873  0.01571  0.74798  1.0000
  C   C134      1.0  0.15646  0.19566  0.47349  1.0000
  C   C135      1.0  0.25932  0.42397  0.63850  1.0000
  C   C136      1.0  0.05445  0.35014  0.49680  1.0000
  H   H227      1.0  0.20178  0.43548  0.65641  1.0000
  H   H228      1.0  0.01146  0.30432  0.59068  1.0000
  H   H229      1.0  0.01171  0.99087  0.60391  1.0000
  H   H230      1.0  0.21933  0.47249  0.72773  1.0000
  H   H231      1.0  0.02380  0.00254  0.82597  1.0000
  H   H232      1.0  0.12935  0.99410  0.76523  1.0000
  H   H233      1.0  0.19426  0.34020  0.48415  1.0000
  H   H234      1.0  0.03057  0.38115  0.52485  1.0000
  H   H235      1.0  0.00299  0.08338  0.60679  1.0000
  C   C137      1.0  0.16675  0.48077  0.85786  1.0000
  C   C138      1.0  0.10892  0.99232  0.75135  1.0000
  H   H236      1.0  0.03423  0.40661  0.60319  1.0000
  H   H237      1.0  0.10746  0.00425  0.80779  1.0000
  C   C139      1.0  0.15537  0.02319  0.95332  1.0000
  H   H238      1.0  0.15539  0.45886  0.95532  1.0000
  H   H239      1.0  0.00960  0.36875  0.57170  1.0000
  C   C140      1.0  0.20492  0.31755  0.48928  1.0000
  H   H240      1.0  0.14626  0.31839  0.48644  1.0000
  H   H241      1.0  0.06927  0.01656  0.84457  1.0000
  H   H242      1.0  0.31229  0.15225  0.67197  1.0000
  H   H243      1.0  0.22765  0.32385  0.49751  1.0000
  H   H244      1.0  0.99876  0.47705  0.72673  1.0000
  S   S45       1.0  0.32393  0.24924  0.56345  1.0000
  Fe  Fe25      1.0  0.25034  0.98568  0.86678  1.0000
  C   C141      1.0  0.08080  0.99358  0.84500  1.0000
  S   S46       1.0  0.32555  0.23733  0.47727  1.0000
  H   H245      1.0  0.00209  0.00702  0.79268  1.0000
  H   H246      1.0  0.32161  0.06175  0.69975  1.0000
  H   H247      1.0  0.31915  0.09754  0.67972  1.0000
  H   H248      1.0  0.11671  0.98415  0.72952  1.0000
  C   C142      1.0  0.09261  0.98457  0.81444  1.0000
  H   H249      1.0  0.11669  0.29142  0.48036  1.0000
  H   H250      1.0  0.21030  0.27171  0.47234  1.0000
  Fe  Fe26      1.0  0.00756  0.26027  0.46330  1.0000
  C   C143      1.0  0.20833  0.29556  0.46274  1.0000
  S   S47       1.0  0.05724  0.27013  0.46410  1.0000
  C   C144      1.0  0.12415  0.02560  0.95874  1.0000
  C   C145      1.0  0.13431  0.30543  0.46920  1.0000
  C   C146      1.0  0.99936  0.08150  0.63070  1.0000
  Fe  Fe27      1.0  0.20190  0.84866  0.29686  1.0000
  S   S48       1.0  0.19770  0.81875  0.25679  1.0000
  S   S49       1.0  0.19471  0.82393  0.34024  1.0000
  Fe  Fe28      1.0  0.22036  0.90636  0.26094  1.0000
  S   S50       1.0  0.21761  0.88030  0.21836  1.0000
  S   S51       1.0  0.22546  0.95885  0.25675  1.0000
  Fe  Fe29      1.0  0.17473  0.86042  0.23653  1.0000
  S   S52       1.0  0.12833  0.85893  0.21590  1.0000
  Fe  Fe30      1.0  0.24103  0.84124  0.24276  1.0000
  S   S53       1.0  0.28273  0.81623  0.22577  1.0000
  S   S54       1.0  0.17589  0.88861  0.27784  1.0000
  S   S55       1.0  0.24687  0.86899  0.28418  1.0000
  H   H251      1.0  0.15926  0.90025  0.11982  1.0000
  C   C147      1.0  0.29129  0.70958  0.23150  1.0000
  H   H252      1.0  0.12268  0.95071  0.17174  1.0000
  H   H253      1.0  0.13295  0.74855  0.30541  1.0000
  H   H254      1.0  0.32809  0.97421  0.29570  1.0000
  H   H255      1.0  0.26714  0.87064  0.41956  1.0000
  C   C148      1.0  0.26286  0.84608  0.37922  1.0000
  S   S56       1.0  0.10644  0.92565  0.09316  1.0000
  H   H256      1.0  0.19068  0.95355  0.01316  1.0000
  N   N10       1.0  0.14294  0.97766  0.20652  1.0000
  N   N11       1.0  0.14130  0.91476  0.99261  1.0000
  H   H257      1.0  0.12215  0.49006  0.98771  1.0000
  H   H258      1.0  0.29858  0.77622  0.16352  1.0000
  H   H259      1.0  0.27935  0.57009  0.23191  1.0000
  H   H260      1.0  0.24596  0.86267  0.37028  1.0000
  H   H261      1.0  0.15221  0.53866  0.19314  1.0000
  Fe  Fe31      1.0  0.05106  0.77537  0.42156  1.0000
  S   S57       1.0  0.07290  0.73277  0.40287  1.0000
  S   S58       1.0  0.06941  0.82259  0.40781  1.0000
  H   H262      1.0  0.16862  0.87464  0.16784  1.0000
  C   C149      1.0  0.28350  0.96641  0.27822  1.0000
  Fe  Fe32      1.0  0.08821  0.52972  0.03684  1.0000
  C   C150      1.0  0.14398  0.49899  0.98151  1.0000
  H   H263      1.0  0.18295  0.94662  0.05093  1.0000
  C   C151      1.0  0.25413  0.77727  0.41895  1.0000
  H   H264      1.0  0.18036  0.85322  0.45952  1.0000
  C   C152      1.0  0.15394  0.52747  0.99281  1.0000
  H   H265      1.0  0.08507  0.82284  0.24629  1.0000
  H   H266      1.0  0.26603  0.51508  0.23967  1.0000
  H   H267      1.0  0.28326  0.83288  0.42065  1.0000
  C   C153      1.0  0.00601  0.57615  0.26515  1.0000
  C   C154      1.0  0.25000  0.52991  0.22730  1.0000
  H   H268      1.0  0.28796  0.69030  0.14742  1.0000
  C   C155      1.0  0.20104  0.52150  0.96538  1.0000
  H   H269      1.0  0.09939  0.76702  0.33947  1.0000
  H   H270      1.0  0.08091  0.82029  0.32739  1.0000
  H   H271      1.0  0.24282  0.70955  0.23408  1.0000
  C   C156      1.0  0.32604  0.49853  0.22837  1.0000
  H   H272      1.0  0.28256  0.94224  0.28513  1.0000
  H   H273      1.0  0.24133  0.58065  0.22368  1.0000
  Fe  Fe33      1.0  0.00201  0.73706  0.45326  1.0000
  H   H274      1.0  0.01013  0.57943  0.31272  1.0000
  C   C157      1.0  0.28566  0.77529  0.22980  1.0000
  C   C158      1.0  0.31420  0.76104  0.22893  1.0000
  H   H275      1.0  0.21467  0.87972  0.42295  1.0000
  H   H276      1.0  0.07713  0.78041  0.21135  1.0000
  C   C159      1.0  0.26284  0.72386  0.23283  1.0000
  C   C160      1.0  0.26002  0.75657  0.23213  1.0000
  H   H277      1.0  0.20372  0.85293  0.39587  1.0000
  H   H278      1.0  0.17865  0.93415  0.96755  1.0000
  H   H279      1.0  0.25889  0.82265  0.36977  1.0000
  H   H280      1.0  0.23794  0.76723  0.23259  1.0000
  C   C161      1.0  0.15956  0.82402  0.35832  1.0000
  C   C162      1.0  0.13958  0.84922  0.35604  1.0000
  C   C163      1.0  0.11225  0.84889  0.37179  1.0000
  C   C164      1.0  0.10440  0.82305  0.38925  1.0000
  C   C165      1.0  0.12457  0.79805  0.39162  1.0000
  C   C166      1.0  0.15205  0.79861  0.37634  1.0000
  H   H281      1.0  0.14537  0.86914  0.34254  1.0000
  H   H282      1.0  0.09694  0.86850  0.37015  1.0000
  H   H283      1.0  0.11930  0.77848  0.40566  1.0000
  H   H284      1.0  0.16747  0.77913  0.37844  1.0000
  C   C167      1.0  0.11181  0.90735  0.12747  1.0000
  C   C168      1.0  0.08805  0.90289  0.14721  1.0000
  C   C169      1.0  0.09331  0.88775  0.17420  1.0000
  C   C170      1.0  0.12240  0.87763  0.18183  1.0000
  C   C171      1.0  0.14618  0.88255  0.16226  1.0000
  C   C172      1.0  0.14081  0.89697  0.13503  1.0000
  H   H285      1.0  0.06560  0.91068  0.14152  1.0000
  H   H286      1.0  0.07480  0.88398  0.18924  1.0000
  C   C173      1.0  0.01380  0.53341  0.21249  1.0000
  H   H287      1.0  0.29198  0.75367  0.13142  1.0000
  S   S59       1.0  0.08432  0.51938  0.08496  1.0000
  C   C174      1.0  0.18457  0.95871  0.17096  1.0000
  H   H288      1.0  0.29117  0.73576  0.16768  1.0000
  H   H289      1.0  0.08190  0.74496  0.28686  1.0000
  Fe  Fe34      1.0  0.02560  0.71734  0.39296  1.0000
  H   H290      1.0  0.05211  0.80090  0.25368  1.0000
  S   S60       1.0  0.02316  0.57742  0.11706  1.0000
  H   H291      1.0  0.16214  0.76800  0.28619  1.0000
  Fe  Fe35      1.0  0.02257  0.51136  0.02504  1.0000
  S   S61       1.0  0.02107  0.69204  0.43590  1.0000
  H   H292      1.0  0.15440  0.51598  0.22609  1.0000
  C   C175      1.0  0.25542  0.56407  0.23643  1.0000
  H   H293      1.0  0.15490  0.52112  0.10046  1.0000
  Fe  Fe36      1.0  0.03843  0.54166  0.08334  1.0000
  S   S62       1.0  0.01253  0.70540  0.34623  1.0000
  C   C176      1.0  0.08483  0.85543  0.29440  1.0000
  H   H294      1.0  0.21942  0.80106  0.39455  1.0000
  N   N12       1.0  0.21831  0.51809  0.23104  1.0000
  H   H295      1.0  0.25179  0.56764  0.26024  1.0000
  H   H296      1.0  0.30126  0.65646  0.16600  1.0000
  C   C177      1.0  0.19762  0.53650  0.21117  1.0000
  H   H297      1.0  0.15010  0.96135  0.97697  1.0000
  H   H298      1.0  0.25054  0.51688  0.28636  1.0000
  C   C178      1.0  0.31705  0.72829  0.22994  1.0000
  H   H299      1.0  0.14121  0.91174  0.04024  1.0000
  H   H300      1.0  0.16943  0.95640  0.15180  1.0000
  H   H301      1.0  0.13198  0.75107  0.26598  1.0000
  C   C179      1.0  0.22792  0.80100  0.41746  1.0000
  H   H302      1.0  0.00024  0.51269  0.21857  1.0000
  H   H303      1.0  0.09645  0.97166  0.19310  1.0000
  C   C180      1.0  0.20886  0.85472  0.41962  1.0000
  C   C181      1.0  0.18236  0.53883  0.98435  1.0000
  S   S63       1.0  0.02282  0.96637  0.10664  1.0000
  H   H304      1.0  0.07843  0.87241  0.31171  1.0000
  H   H305      1.0  0.17096  0.82405  0.43239  1.0000
  H   H306      1.0  0.16117  0.86385  0.42658  1.0000
  H   H307      1.0  0.20939  0.79071  0.43067  1.0000
  C   C182      1.0  0.07677  0.76045  0.33137  1.0000
  H   H308      1.0  0.13477  0.94993  0.02632  1.0000
  C   C183      1.0  0.17889  0.84826  0.43574  1.0000
  H   H309      1.0  0.19015  0.56093  0.99289  1.0000
  H   H310      1.0  0.20451  0.54726  0.26760  1.0000
  H   H311      1.0  0.11960  0.91824  0.25477  1.0000
  C   C184      1.0  0.14449  0.94840  0.22495  1.0000
  H   H312      1.0  0.20693  0.96594  0.16239  1.0000
  S   S64       1.0  0.00384  0.76119  0.40946  1.0000
  H   H313      1.0  0.02163  0.52977  0.18957  1.0000
  H   H314      1.0  0.18138  0.88609  0.99087  1.0000
  Fe  Fe37      1.0  0.00157  0.96877  0.06175  1.0000
  H   H315      1.0  0.06726  0.88975  0.00640  1.0000
  H   H316      1.0  0.25743  0.52786  0.20405  1.0000
  N   N13       1.0  0.08707  0.79552  0.28639  1.0000
  C   C185      1.0  0.07450  0.82245  0.30393  1.0000
  C   C186      1.0  0.07300  0.76596  0.29812  1.0000
  C   C187      1.0  0.07717  0.80010  0.25504  1.0000
  C   C188      1.0  0.12104  0.79560  0.28884  1.0000
  H   H317      1.0  0.24544  0.75389  0.41273  1.0000
  Fe  Fe38      1.0  0.06605  0.71254  0.44781  1.0000
  C   C189      1.0  0.08838  0.77587  0.23270  1.0000
  C   C190      1.0  0.13745  0.76384  0.28626  1.0000
  C   C191      1.0  0.11930  0.97324  0.18321  1.0000
  C   C192      1.0  0.17350  0.98342  0.19309  1.0000
  H   H318      1.0  0.09366  0.89802  0.03453  1.0000
  C   C193      1.0  0.18140  0.93609  0.02874  1.0000
  H   H319      1.0  0.28520  0.85400  0.37115  1.0000
  H   H320      1.0  0.19190  0.50694  0.09773  1.0000
  H   H321      1.0  0.13106  0.81158  0.27215  1.0000
  H   H322      1.0  0.12826  0.80525  0.31028  1.0000
  H   H323      1.0  0.30540  0.48553  0.29936  1.0000
  H   H324      1.0  0.17499  0.52654  0.06661  1.0000
  H   H325      1.0  0.18787  0.93559  0.18148  1.0000
  H   H326      1.0  0.23111  0.48863  0.01725  1.0000
  C   C194      1.0  0.26301  0.84600  0.41310  1.0000
  H   H327      1.0  0.30990  0.71312  0.10631  1.0000
  H   H328      1.0  0.10960  0.85701  0.29160  1.0000
  H   H329      1.0  0.02370  0.59193  0.25617  1.0000
  H   H330      1.0  0.31909  0.97457  0.22426  1.0000
  H   H331      1.0  0.11288  0.77863  0.22858  1.0000
  C   C195      1.0  0.15379  0.93695  0.96984  1.0000
  H   H332      1.0  0.10019  0.86598  0.00934  1.0000
  H   H333      1.0  0.20821  0.54110  0.18946  1.0000
  H   H334      1.0  0.18468  0.51164  0.26495  1.0000
  H   H335      1.0  0.05955  0.77371  0.34396  1.0000
  H   H336      1.0  0.04831  0.76567  0.29362  1.0000
  C   C196      1.0  0.09173  0.89023  0.01147  1.0000
  S   S65       1.0  0.13239  0.54850  0.01881  1.0000
  C   C197      1.0  0.20742  0.52211  0.26216  1.0000
  H   H337      1.0  0.00012  0.61521  0.29600  1.0000
  S   S66       1.0  0.04487  0.55675  0.03659  1.0000
  C   C198      1.0  0.17100  0.50998  0.08501  1.0000
  H   H338      1.0  0.04937  0.82222  0.30366  1.0000
  H   H339      1.0  0.22316  0.49450  0.17589  1.0000
  H   H340      1.0  0.09600  0.93691  0.22864  1.0000
  C   C199      1.0  0.10747  0.91283  0.98997  1.0000
  C   C200      1.0  0.22731  0.50748  0.28632  1.0000
  H   H341      1.0  0.15173  0.83818  0.96941  1.0000
  S   S67       1.0  0.06661  0.48526  0.02230  1.0000
  C   C201      1.0  0.30259  0.75299  0.15337  1.0000
  H   H342      1.0  0.32989  0.91804  0.22577  1.0000
  H   H343      1.0  0.31844  0.95630  0.18948  1.0000
  C   C202      1.0  0.11591  0.94055  0.24283  1.0000
  C   C203      1.0  0.14806  0.92817  0.02252  1.0000
  H   H344      1.0  0.10022  0.90571  0.96776  1.0000
  H   H345      1.0  0.21740  0.51306  0.30806  1.0000
  H   H346      1.0  0.01133  0.58279  0.20666  1.0000
  H   H347      1.0  0.09725  0.93645  0.99304  1.0000
  H   H348      1.0  0.19340  0.56022  0.22027  1.0000
  H   H349      1.0  0.07346  0.86320  0.27398  1.0000
  H   H350      1.0  0.16824  0.50050  0.19182  1.0000
  Fe  Fe39      1.0  0.06619  0.95636  0.08299  1.0000
  H   H351      1.0  0.19586  0.91498  0.02894  1.0000
  H   H352      1.0  0.01752  0.55355  0.26980  1.0000
  N   N14       1.0  0.23490  0.83369  0.42762  1.0000
  H   H353      1.0  0.07324  0.73532  0.33634  1.0000
  H   H354      1.0  0.26356  0.77487  0.44131  1.0000
  H   H355      1.0  0.03424  0.53453  0.22639  1.0000
  H   H356      1.0  0.27244  0.78304  0.40332  1.0000
  C   C204      1.0  0.32355  0.50324  0.25861  1.0000
  H   H357      1.0  0.08295  0.75155  0.23903  1.0000
  H   H358      1.0  0.30818  0.66039  0.12765  1.0000
  S   S68       1.0  0.29337  0.66838  0.23075  1.0000
  S   S69       1.0  0.04409  0.95383  0.03864  1.0000
  S   S70       1.0  0.01370  0.49756  0.07205  1.0000
  C   C205      1.0  0.16644  0.52181  0.20550  1.0000
  H   H359      1.0  0.14907  0.92768  0.21108  1.0000
  C   C206      1.0  0.30691  0.67360  0.14852  1.0000
  H   H360      1.0  0.16376  0.94934  0.24044  1.0000
  H   H361      1.0  0.15202  0.86886  0.01058  1.0000
  C   C207      1.0  0.15646  0.88331  0.99067  1.0000
  H   H362      1.0  0.11083  0.95852  0.25955  1.0000
  H   H363      1.0  0.21927  0.50418  0.05150  1.0000
  C   C208      1.0  0.25885  0.97986  0.26380  1.0000
  H   H364      1.0  0.14288  0.48638  0.05472  1.0000
  H   H365      1.0  0.12175  0.74634  0.45389  1.0000
  C   C209      1.0  0.23967  0.83295  0.46034  1.0000
  C   C210      1.0  0.14963  0.86328  0.96345  1.0000
  C   C211      1.0  0.21811  0.48382  0.22374  1.0000
  H   H366      1.0  0.99742  0.63708  0.24840  1.0000
  H   H367      1.0  0.10663  0.78711  0.51901  1.0000
  H   H368      1.0  0.25677  0.48636  0.73576  1.0000
  Fe  Fe40      1.0  0.29379  0.52031  0.86465  1.0000
  H   H369      1.0  0.09161  0.75007  0.52825  1.0000
  H   H370      1.0  0.00013  0.74063  0.58393  1.0000
  C   C212      1.0  0.02699  0.93934  0.77781  1.0000
  H   H371      1.0  0.15478  0.67067  0.50691  1.0000
  C   C213      1.0  0.30651  0.69193  0.70371  1.0000
  H   H372      1.0  0.31765  0.52469  0.80131  1.0000
  C   C214      1.0  0.24488  0.86480  0.47519  1.0000
  S   S71       1.0  0.24924  0.49571  0.85946  1.0000
  S   S72       1.0  0.30633  0.73098  0.51558  1.0000
  Fe  Fe41      1.0  0.05943  0.89956  0.70026  1.0000
  Fe  Fe42      1.0  0.27520  0.76361  0.58934  1.0000
  S   S73       1.0  0.25576  0.72136  0.56753  1.0000
  S   S74       1.0  0.25621  0.77411  0.63420  1.0000
  Fe  Fe43      1.0  0.30412  0.70774  0.55978  1.0000
  C   C215      1.0  0.02670  0.67173  0.52220  1.0000
  Fe  Fe44      1.0  0.25984  0.74918  0.52599  1.0000
  S   S75       1.0  0.22337  0.76018  0.49274  1.0000
  H   H373      1.0  0.10771  0.96391  0.81735  1.0000
  S   S76       1.0  0.27655  0.79264  0.54836  1.0000
  H   H374      1.0  0.23219  0.85076  0.69043  1.0000
  H   H375      1.0  0.01324  0.95872  0.76884  1.0000
  H   H376      1.0  0.11711  0.94544  0.93834  1.0000
  H   H377      1.0  0.12641  0.86580  0.95513  1.0000
  H   H378      1.0  0.01226  0.66620  0.50308  1.0000
  S   S77       1.0  0.06250  0.78022  0.69148  1.0000
  H   H379      1.0  0.25313  0.93303  0.76670  1.0000
  S   S78       1.0  0.07396  0.86426  0.66672  1.0000
  H   H380      1.0  0.15404  0.95093  0.92406  1.0000
  C   C216      1.0  0.19771  0.91626  0.70896  1.0000
  S   S79       1.0  0.12250  0.83940  0.71647  1.0000
  H   H381      1.0  0.00195  0.60429  0.59607  1.0000
  C   C217      1.0  0.03094  0.75906  0.70418  1.0000
  C   C218      1.0  0.02713  0.72828  0.69443  1.0000
  S   S80       1.0  0.04692  0.75613  0.46751  1.0000
  C   C219      1.0  0.05049  0.95040  0.80041  1.0000
  H   H382      1.0  0.18804  0.81092  0.77856  1.0000
  C   C220      1.0  0.20830  0.85405  0.62276  1.0000
  H   H383      1.0  0.09861  0.94623  0.76770  1.0000
  H   H384      1.0  0.25103  0.88547  0.69859  1.0000
  H   H385      1.0  0.31804  0.62993  0.72183  1.0000
  C   C221      1.0  0.04341  0.50876  0.68619  1.0000
  H   H386      1.0  0.31563  0.61094  0.68628  1.0000
  H   H387      1.0  0.22604  0.88135  0.47154  1.0000
  S   S81       1.0  0.23170  0.97196  0.82215  1.0000
  H   H388      1.0  0.06329  0.52073  0.69396  1.0000
  H   H389      1.0  0.03809  0.95473  0.82102  1.0000
  S   S82       1.0  0.10076  0.68647  0.47473  1.0000
  Fe  Fe45      1.0  0.10448  0.87747  0.74543  1.0000
  C   C222      1.0  0.16167  0.91106  0.82951  1.0000
  H   H390      1.0  0.14054  0.91213  0.92907  1.0000
  H   H391      1.0  0.25425  0.92363  0.72887  1.0000
  C   C223      1.0  0.22841  0.80330  0.63652  1.0000
  C   C224      1.0  0.22982  0.83022  0.61914  1.0000
  C   C225      1.0  0.14033  0.93573  0.93869  1.0000
  C   C226      1.0  0.18486  0.85075  0.64318  1.0000
  C   C227      1.0  0.18302  0.82336  0.65989  1.0000
  C   C228      1.0  0.20500  0.79996  0.65691  1.0000
  H   H392      1.0  0.00643  0.48979  0.80589  1.0000
  H   H393      1.0  0.20990  0.81751  0.54210  1.0000
  H   H394      1.0  0.16473  0.82009  0.67512  1.0000
  H   H395      1.0  0.20366  0.77905  0.67024  1.0000
  C   C229      1.0  0.28582  0.72069  0.69981  1.0000
  C   C230      1.0  0.15806  0.69339  0.49698  1.0000
  C   C231      1.0  0.18540  0.70946  0.50127  1.0000
  C   C232      1.0  0.18983  0.73864  0.48809  1.0000
  H   H396      1.0  0.15238  0.89544  0.84586  1.0000
  N   N15       1.0  0.32099  0.67840  0.67663  1.0000
  H   H397      1.0  0.04970  0.66311  0.51691  1.0000
  H   H398      1.0  0.20306  0.69914  0.51446  1.0000
  C   C233      1.0  0.18618  0.93039  0.83680  1.0000
  H   H399      1.0  0.20395  0.82166  0.72693  1.0000
  H   H400      1.0  0.30927  0.64541  0.64257  1.0000
  C   C234      1.0  0.14969  0.91123  0.80101  1.0000
  N   N16       1.0  0.22239  0.86800  0.73398  1.0000
  H   H401      1.0  0.15224  0.93258  0.75832  1.0000
  C   C235      1.0  0.01699  0.52576  0.68065  1.0000
  S   S83       1.0  0.01671  0.56635  0.68723  1.0000
  H   H402      1.0  0.01140  0.92249  0.78843  1.0000
  H   H403      1.0  0.04345  0.71819  0.67956  1.0000
  S   S84       1.0  0.25179  0.96116  0.91063  1.0000
  H   H404      1.0  0.29317  0.69424  0.61944  1.0000
  H   H405      1.0  0.23291  0.50807  0.71163  1.0000
  C   C236      1.0  0.13940  0.73591  0.46702  1.0000
  Fe  Fe46      1.0  0.12108  0.87539  0.68079  1.0000
  H   H406      1.0  0.00255  0.70712  0.60707  1.0000
  H   H407      1.0  0.18752  0.84825  0.52697  1.0000
  H   H408      1.0  0.19753  0.84961  0.78957  1.0000
  S   S85       1.0  0.30641  0.56862  0.84818  1.0000
  C   C237      1.0  0.23616  0.88608  0.75899  1.0000
  H   H409      1.0  0.29199  0.73631  0.68149  1.0000
  Fe  Fe47      1.0  0.07438  0.82990  0.70399  1.0000
  H   H410      1.0  0.29234  0.67401  0.71476  1.0000
  H   H411      1.0  0.02782  0.71184  0.57607  1.0000
  H   H412      1.0  0.10317  0.82743  0.56635  1.0000
  H   H413      1.0  0.17536  0.92405  0.70079  1.0000
  C   C238      1.0  0.18617  0.95087  0.78734  1.0000
  H   H414      1.0  0.21820  0.89535  0.77365  1.0000
  C   C239      1.0  0.21339  0.83604  0.74510  1.0000
  H   H415      1.0  0.17749  0.88660  0.74074  1.0000
  H   H416      1.0  0.24985  0.87013  0.77303  1.0000
  Fe  Fe48      1.0  0.32283  0.77246  0.54079  1.0000
  H   H417      1.0  0.22028  0.82167  0.47157  1.0000
  C   C240      1.0  0.27267  0.84458  0.71563  1.0000
  C   C241      1.0  0.25720  0.91364  0.75100  1.0000
  H   H418      1.0  0.11051  0.83911  0.60319  1.0000
  S   S86       1.0  0.32263  0.66009  0.57128  1.0000
  H   H419      1.0  0.00069  0.68625  0.69719  1.0000
  S   S87       1.0  0.10664  0.91452  0.71063  1.0000
  H   H420      1.0  0.28115  0.90690  0.75414  1.0000
  N   N17       1.0  0.06935  0.97804  0.79115  1.0000
  H   H421      1.0  0.02896  0.53529  0.74749  1.0000
  H   H422      1.0  0.18580  0.84052  0.56566  1.0000
  H   H423      1.0  0.01710  0.62995  0.54648  1.0000
  H   H424      1.0  0.18299  0.86871  0.70628  1.0000
  S   S88       1.0  0.01875  0.93100  0.69496  1.0000
  C   C242      1.0  0.19037  0.83534  0.77058  1.0000
  H   H425      1.0  0.26643  0.87555  0.46818  1.0000
  H   H426      1.0  0.28172  0.64891  0.67085  1.0000
  C   C243      1.0  0.24377  0.86318  0.70862  1.0000
  C   C244      1.0  0.02128  0.97154  0.70071  1.0000
  C   C245      1.0  0.19418  0.88369  0.72287  1.0000
  H   H427      1.0  0.00900  0.56512  0.76720  1.0000
  C   C246      1.0  0.16163  0.93171  0.78013  1.0000
  H   H428      1.0  0.19583  0.92952  0.85856  1.0000
  C   C247      1.0  0.00279  0.71016  0.70430  1.0000
  H   H429      1.0  0.26227  0.66886  0.62532  1.0000
  S   S89       1.0  0.15842  0.88118  0.64735  1.0000
  H   H430      1.0  0.22312  0.53016  0.95950  1.0000
  S   S90       1.0  0.29834  0.50862  0.91281  1.0000
  H   H431      1.0  0.04257  0.48622  0.76292  1.0000
  H   H432      1.0  0.16758  0.84271  0.76353  1.0000
  H   H433      1.0  0.28386  0.85281  0.73588  1.0000
  H   H434      1.0  0.13558  0.85106  0.57496  1.0000
  H   H435      1.0  0.24657  0.86103  0.49926  1.0000
  Fe  Fe49      1.0  0.30052  0.97621  0.91306  1.0000
  H   H436      1.0  0.26790  0.81920  0.71739  1.0000
  C   C248      1.0  0.13503  0.70656  0.47976  1.0000
  S   S91       1.0  0.32313  0.74812  0.58449  1.0000
  H   H437      1.0  0.28887  0.84737  0.69721  1.0000
  H   H438      1.0  0.24795  0.83305  0.60348  1.0000
  C   C249      1.0  0.29797  0.66258  0.65736  1.0000
  H   H439      1.0  0.23333  0.82300  0.75340  1.0000
  H   H440      1.0  0.19570  0.96623  0.77091  1.0000
  H   H441      1.0  0.08752  0.78074  0.55408  1.0000
  H   H442      1.0  0.20984  0.87515  0.60971  1.0000
  H   H443      1.0  0.20482  0.93383  0.72528  1.0000
  C   C250      1.0  0.19882  0.94999  0.81553  1.0000
  S   S92       1.0  0.05624  0.86421  0.73673  1.0000
  H   H444      1.0  0.21280  0.91624  0.68960  1.0000
  S   S93       1.0  0.11988  0.88558  0.79229  1.0000
  C   C251      1.0  0.00988  0.77185  0.72362  1.0000
  C   C252      1.0  0.23947  0.48403  0.71831  1.0000
  H   H445      1.0  0.14945  0.49348  0.84488  1.0000
  H   H446      1.0  0.28733  0.73556  0.71967  1.0000
  N   N18       1.0  0.15380  0.78487  0.56287  1.0000
  C   C253      1.0  0.18240  0.76870  0.57263  1.0000
  C   C254      1.0  0.16180  0.80644  0.53784  1.0000
  C   C255      1.0  0.13278  0.75987  0.55184  1.0000
  C   C256      1.0  0.14028  0.80183  0.58881  1.0000
  C   C257      1.0  0.17861  0.74337  0.59653  1.0000
  C   C258      1.0  0.18774  0.82947  0.54382  1.0000
  C   C259      1.0  0.10314  0.77080  0.53760  1.0000
  C   C260      1.0  0.12133  0.83134  0.58244  1.0000
  H   H447      1.0  0.19405  0.75766  0.55361  1.0000
  H   H448      1.0  0.19872  0.78574  0.58177  1.0000
  H   H449      1.0  0.14215  0.82050  0.53060  1.0000
  H   H450      1.0  0.16841  0.79271  0.51821  1.0000
  H   H451      1.0  0.14449  0.74504  0.53538  1.0000
  H   H452      1.0  0.12601  0.74378  0.56987  1.0000
  H   H453      1.0  0.12592  0.78581  0.60209  1.0000
  H   H454      1.0  0.15817  0.80957  0.60417  1.0000
  H   H455      1.0  0.16499  0.75162  0.61537  1.0000
  H   H456      1.0  0.16877  0.72169  0.58737  1.0000
  H   H457      1.0  0.20115  0.73701  0.60531  1.0000
  H   H458      1.0  0.26196  0.71345  0.69717  1.0000
  H   H459      1.0  0.07029  0.96352  0.74567  1.0000
  H   H460      1.0  0.17986  0.49782  0.87100  1.0000
  C   C261      1.0  0.00441  0.71506  0.58397  1.0000
  H   H461      1.0  0.03786  0.92669  0.75945  1.0000
  H   H462      1.0  0.26640  0.70195  0.64843  1.0000
  C   C262      1.0  0.01554  0.65555  0.55051  1.0000
  H   H463      1.0  0.02839  0.69742  0.52455  1.0000
  H   H464      1.0  0.01265  0.79556  0.73125  1.0000
  H   H465      1.0  0.03232  0.66000  0.56812  1.0000
  C   C263      1.0  0.19153  0.49245  0.95507  1.0000
  H   H466      1.0  0.02194  0.53223  0.78649  1.0000
  C   C264      1.0  0.27908  0.68356  0.63684  1.0000
  H   H467      1.0  0.32364  0.69774  0.72065  1.0000
  H   H468      1.0  0.06527  0.92996  0.80549  1.0000
  C   C265      1.0  0.08618  0.96845  0.76384  1.0000
  H   H469      1.0  0.06743  0.97587  0.68675  1.0000
  H   H470      1.0  0.16589  0.86837  0.94552  1.0000
  H   H471      1.0  0.06624  0.97541  0.85491  1.0000
  H   H472      1.0  0.25952  0.81830  0.46613  1.0000
  H   H473      1.0  0.32327  0.72081  0.64990  1.0000
  C   C266      1.0  0.01230  0.53950  0.76526  1.0000
  C   C267      1.0  0.16671  0.75175  0.47103  1.0000
  C   C268      1.0  0.33026  0.62446  0.70127  1.0000
  H   H474      1.0  0.16966  0.77445  0.46110  1.0000
  C   C269      1.0  0.42181  0.05414  0.12549  1.0000
  H   H475      1.0  0.49207  0.40140  0.43287  1.0000
  H   H476      1.0  0.42046  0.38700  0.34854  1.0000
  C   C270      1.0  0.38573  0.21369  0.36373  1.0000
  H   H477      1.0  0.35091  0.22543  0.39463  1.0000
  Fe  Fe50      1.0  0.38838  0.14340  0.25448  1.0000
  S   S94       1.0  0.42229  0.17822  0.27116  1.0000
  H   H478      1.0  0.40332  0.34637  0.38102  1.0000
  S   S95       1.0  0.36518  0.15938  0.21321  1.0000
  S   S96       1.0  0.51330  0.05121  0.12067  1.0000
  C   C271      1.0  0.38194  0.99314  0.21524  1.0000
  H   H479      1.0  0.45510  0.03032  0.09909  1.0000
  Fe  Fe51      1.0  0.50040  0.21765  0.41303  1.0000
  S   S97       1.0  0.47454  0.17431  0.40033  1.0000
  S   S98       1.0  0.48198  0.26412  0.39926  1.0000
  C   C272      1.0  0.62511  0.03055  0.99021  1.0000
  C   C273      1.0  0.47070  0.07815  0.15641  1.0000
  H   H480      1.0  0.37793  0.15450  0.05290  1.0000
  Fe  Fe52      1.0  0.34981  0.08427  0.25899  1.0000
  S   S99       1.0  0.34591  0.13214  0.27866  1.0000
  N   N19       1.0  0.35517  0.98920  0.19518  1.0000
  H   H481      1.0  0.59836  0.04923  0.16273  1.0000
  C   C274      1.0  0.64380  0.03685  0.96603  1.0000
  H   H482      1.0  0.55190  0.44778  0.12473  1.0000
  Fe  Fe53      1.0  0.54715  0.46271  0.05911  1.0000
  C   C275      1.0  0.43747  0.17563  0.30669  1.0000
  C   C276      1.0  0.45564  0.20008  0.31672  1.0000
  C   C277      1.0  0.46748  0.19949  0.34522  1.0000
  C   C278      1.0  0.46127  0.17440  0.36392  1.0000
  C   C279      1.0  0.44352  0.14960  0.35372  1.0000
  C   C280      1.0  0.43149  0.15025  0.32517  1.0000
  H   H483      1.0  0.46080  0.21948  0.30234  1.0000
  H   H484      1.0  0.48177  0.21829  0.35252  1.0000
  H   H485      1.0  0.43919  0.12979  0.36788  1.0000
  H   H486      1.0  0.41786  0.13108  0.31738  1.0000
  C   C281      1.0  0.35554  0.23239  0.25580  1.0000
  H   H487      1.0  0.44249  0.15984  0.03513  1.0000
  H   H488      1.0  0.48225  0.12648  0.05449  1.0000
  C   C282      1.0  0.63558  0.39492  0.97712  1.0000
  C   C283      1.0  0.43605  0.46487  0.97129  1.0000
  H   H489      1.0  0.38712  0.14166  0.43392  1.0000
  C   C284      1.0  0.47194  0.11235  0.99987  1.0000
  H   H490      1.0  0.48960  0.08783  0.16824  1.0000
  H   H491      1.0  0.43743  0.10268  0.18229  1.0000
  H   H492      1.0  0.39118  0.30384  0.24978  1.0000
  H   H493      1.0  0.39373  0.22565  0.20798  1.0000
  C   C285      1.0  0.41810  0.32979  0.39275  1.0000
  S   S100      1.0  0.52911  0.46904  0.01340  1.0000
  H   H494      1.0  0.40467  0.31954  0.41099  1.0000
  H   H495      1.0  0.37549  0.10371  0.03125  1.0000
  C   C286      1.0  0.39041  0.00877  0.97448  1.0000
  H   H496      1.0  0.65297  0.44406  0.06641  1.0000
  S   S101      1.0  0.57516  0.42053  0.07132  1.0000
  H   H497      1.0  0.48683  0.35285  0.31180  1.0000
  H   H498      1.0  0.41147  0.25364  0.29204  1.0000
  H   H499      1.0  0.47317  0.08946  0.06980  1.0000
  C   C287      1.0  0.44113  0.08649  0.16448  1.0000
  H   H500      1.0  0.42461  0.06610  0.06395  1.0000
  H   H501      1.0  0.42767  0.09309  0.00165  1.0000
  H   H502      1.0  0.37623  0.21864  0.25214  1.0000
  H   H503      1.0  0.39755  0.03999  0.20143  1.0000
  Fe  Fe54      1.0  0.53066  0.27762  0.39415  1.0000
  S   S102      1.0  0.54918  0.22989  0.40453  1.0000
  S   S103      1.0  0.54167  0.30867  0.35551  1.0000
  H   H504      1.0  0.40551  0.18248  0.06223  1.0000
  C   C288      1.0  0.38500  0.15921  0.41605  1.0000
  C   C289      1.0  0.34642  0.22738  0.28809  1.0000
  H   H505      1.0  0.38952  0.03347  0.97918  1.0000
  C   C290      1.0  0.63789  0.01905  0.01611  1.0000
  H   H506      1.0  0.37564  0.29134  0.28381  1.0000
  H   H507      1.0  0.62371  0.01413  0.03483  1.0000
  C   C291      1.0  0.39229  0.25059  0.20162  1.0000
  C   C292      1.0  0.42390  0.14271  0.03834  1.0000
  C   C293      1.0  0.63910  0.32490  0.32614  1.0000
  C   C294      1.0  0.61533  0.34067  0.31252  1.0000
  C   C295      1.0  0.58554  0.33521  0.32158  1.0000
  C   C296      1.0  0.57931  0.31391  0.34422  1.0000
  C   C297      1.0  0.60304  0.29760  0.35745  1.0000
  C   C298      1.0  0.63287  0.30304  0.34834  1.0000
  H   H508      1.0  0.61993  0.35744  0.29528  1.0000
  H   H509      1.0  0.56728  0.34771  0.31109  1.0000
  H   H510      1.0  0.59835  0.28073  0.37455  1.0000
  C   C299      1.0  0.65992  0.99863  0.10781  1.0000
  C   C300      1.0  0.58837  0.42000  0.10778  1.0000
  C   C301      1.0  0.61488  0.40367  0.11487  1.0000
  C   C302      1.0  0.62586  0.40342  0.14385  1.0000
  C   C303      1.0  0.60995  0.41894  0.16596  1.0000
  C   C304      1.0  0.58301  0.43444  0.15894  1.0000
  C   C305      1.0  0.57255  0.43550  0.12990  1.0000
  H   H511      1.0  0.62707  0.39138  0.09789  1.0000
  Fe  Fe55      1.0  0.48725  0.27737  0.44633  1.0000
  C   C306      1.0  0.42411  0.40265  0.36740  1.0000
  H   H512      1.0  0.42638  0.25516  0.43745  1.0000
  S   S104      1.0  0.34333  0.03811  0.28269  1.0000
  C   C307      1.0  0.35304  0.21036  0.37490  1.0000
  C   C308      1.0  0.36395  0.26702  0.21353  1.0000
  H   H513      1.0  0.61839  0.21241  0.44436  1.0000
  H   H514      1.0  0.62437  0.46273  0.04568  1.0000
  H   H515      1.0  0.45134  0.40764  0.40536  1.0000
  H   H516      1.0  0.60833  0.02845  0.11326  1.0000
  C   C309      1.0  0.46380  0.11318  0.06517  1.0000
  S   S105      1.0  0.51181  0.04125  0.03495  1.0000
  H   H517      1.0  0.39588  0.14808  0.39702  1.0000
  H   H518      1.0  0.46694  0.13740  0.99608  1.0000
  C   C310      1.0  0.37497  0.48046  0.96422  1.0000
  H   H519      1.0  0.41825  0.24476  0.25387  1.0000
  H   H520      1.0  0.40293  0.04497  0.11328  1.0000
  H   H521      1.0  0.37647  0.22976  0.43938  1.0000
  N   N20       1.0  0.43665  0.11085  0.04538  1.0000
  H   H522      1.0  0.60667  0.46485  0.00104  1.0000
  C   C311      1.0  0.41396  0.08918  0.05930  1.0000
  C   C312      1.0  0.41469  0.99080  0.98474  1.0000
  H   H523      1.0  0.38808  0.20504  0.34092  1.0000
  C   C313      1.0  0.40997  0.26247  0.45358  1.0000
  C   C314      1.0  0.35140  0.16704  0.41148  1.0000
  S   S106      1.0  0.58592  0.03692  0.98711  1.0000
  S   S107      1.0  0.44317  0.01011  0.00485  1.0000
  H   H524      1.0  0.45485  0.07143  0.02160  1.0000
  Fe  Fe56      1.0  0.54921  0.24699  0.45130  1.0000
  H   H525      1.0  0.37539  0.00259  0.15341  1.0000
  C   C315      1.0  0.47595  0.05836  0.13244  1.0000
  H   H526      1.0  0.64849  0.99663  0.18295  1.0000
  C   C316      1.0  0.41663  0.07515  0.14850  1.0000
  S   S108      1.0  0.37962  0.08876  0.15495  1.0000
  C   C317      1.0  0.44679  0.09558  0.01721  1.0000
  H   H527      1.0  0.47779  0.38984  0.32759  1.0000
  H   H528      1.0  0.40242  0.20186  0.37781  1.0000
  H   H529      1.0  0.47838  0.32504  0.35838  1.0000
  H   H530      1.0  0.33880  0.22169  0.35776  1.0000
  Fe  Fe57      1.0  0.36857  0.10895  0.19963  1.0000
  N   N21       1.0  0.35909  0.26595  0.24628  1.0000
  C   C318      1.0  0.45135  0.04582  0.11742  1.0000
  H   H531      1.0  0.41721  0.00812  0.18389  1.0000
  C   C319      1.0  0.45446  0.39754  0.38312  1.0000
  H   H532      1.0  0.33828  0.22048  0.24213  1.0000
  S   S109      1.0  0.39520  0.09418  0.23898  1.0000
  C   C320      1.0  0.38163  0.24810  0.45464  1.0000
  H   H533      1.0  0.40619  0.09759  0.08094  1.0000
  C   C321      1.0  0.65872  0.04036  0.14481  1.0000
  C   C322      1.0  0.49958  0.37687  0.43036  1.0000
  H   H534      1.0  0.50774  0.34188  0.39774  1.0000
  H   H535      1.0  0.60272  0.31021  0.42292  1.0000
  C   C323      1.0  0.59439  0.02411  0.15837  1.0000
  N   N22       1.0  0.63725  0.42600  0.99281  1.0000
  H   H536      1.0  0.57003  0.02195  0.15304  1.0000
  H   H537      1.0  0.44621  0.34468  0.34571  1.0000
  C   C324      1.0  0.61297  0.01231  0.13198  1.0000
  H   H538      1.0  0.34580  0.33081  0.24618  1.0000
  N   N23       1.0  0.64652  0.00869  0.13674  1.0000
  H   H539      1.0  0.43245  0.27943  0.26971  1.0000
  C   C325      1.0  0.61905  0.31726  0.44010  1.0000
  N   N24       1.0  0.34180  0.17773  0.38134  1.0000
  C   C326      1.0  0.33836  0.01990  0.19491  1.0000
  H   H540      1.0  0.48715  0.36157  0.44587  1.0000
  H   H541      1.0  0.66218  0.26692  0.23979  1.0000
  S   S110      1.0  0.53405  0.29560  0.44010  1.0000
  H   H542      1.0  0.39052  0.06528  0.02340  1.0000
  C   C327      1.0  0.49724  0.36549  0.39831  1.0000
  H   H543      1.0  0.39191  0.23881  0.36326  1.0000
  C   C328      1.0  0.40638  0.01607  0.20450  1.0000
  H   H544      1.0  0.57025  0.44582  0.17606  1.0000
  H   H545      1.0  0.45970  0.32561  0.41514  1.0000
  H   H546      1.0  0.36825  0.07146  0.05533  1.0000
  H   H547      1.0  0.61252  0.38477  0.97902  1.0000
  H   H548      1.0  0.36572  0.29151  0.20555  1.0000
  C   C329      1.0  0.48721  0.36642  0.33252  1.0000
  H   H549      1.0  0.51238  0.38085  0.38527  1.0000
  H   H550      1.0  0.44099  0.11890  0.10807  1.0000
  H   H551      1.0  0.52361  0.37599  0.43713  1.0000
  H   H552      1.0  0.58985  0.42741  0.00449  1.0000
  Fe  Fe58      1.0  0.55412  0.01678  0.02116  1.0000
  S   S111      1.0  0.50232  0.23007  0.46079  1.0000
  H   H553      1.0  0.59835  0.01008  0.17847  1.0000
  H   H554      1.0  0.34421  0.25676  0.20201  1.0000
  H   H555      1.0  0.42430  0.31011  0.37812  1.0000
  C   C330      1.0  0.64648  0.45092  0.04377  1.0000
  H   H556      1.0  0.64814  0.04901  0.16535  1.0000
  H   H557      1.0  0.45496  0.15491  0.09189  1.0000
  H   H558      1.0  0.61962  0.34299  0.43991  1.0000
  H   H559      1.0  0.65301  0.05782  0.12747  1.0000
  H   H560      1.0  0.62792  0.40539  0.03517  1.0000
  H   H561      1.0  0.60262  0.98962  0.12592  1.0000
  H   H562      1.0  0.41157  0.14195  0.01707  1.0000
  H   H563      1.0  0.47413  0.10115  0.97802  1.0000
  C   C331      1.0  0.38554  0.08240  0.04098  1.0000
  H   H564      1.0  0.40308  0.14776  0.08336  1.0000
  H   H565      1.0  0.35038  0.20255  0.29403  1.0000
  H   H566      1.0  0.63780  0.35061  0.39333  1.0000
  H   H567      1.0  0.39154  0.25112  0.17727  1.0000
  H   H568      1.0  0.35305  0.46368  0.14627  1.0000
  C   C332      1.0  0.35176  0.15572  0.35745  1.0000
  C   C333      1.0  0.41272  0.26352  0.26952  1.0000
  H   H569      1.0  0.49421  0.10961  0.01061  1.0000
  H   H570      1.0  0.34597  0.18516  0.42811  1.0000
  Fe  Fe59      1.0  0.51981  0.02201  0.07987  1.0000
  H   H571      1.0  0.41306  0.26319  0.20802  1.0000
  H   H572      1.0  0.51126  0.36841  0.33871  1.0000
  H   H573      1.0  0.64654  0.39123  0.14910  1.0000
  N   N25       1.0  0.46593  0.36448  0.38536  1.0000
  H   H574      1.0  0.47146  0.41329  0.37287  1.0000
  H   H575      1.0  0.42366  0.42655  0.35783  1.0000
  C   C334      1.0  0.34204  0.12135  0.36113  1.0000
  C   C335      1.0  0.40149  0.15692  0.06076  1.0000
  C   C336      1.0  0.46848  0.34884  0.35583  1.0000
  H   H576      1.0  0.34937  0.11133  0.38239  1.0000
  H   H577      1.0  0.35295  0.10716  0.34368  1.0000
  H   H578      1.0  0.43894  0.35936  0.42494  1.0000
  H   H579      1.0  0.45949  0.45854  0.97400  1.0000
  S   S112      1.0  0.62360  0.42134  0.20220  1.0000
  H   H580      1.0  0.42437  0.01762  0.22134  1.0000
  H   H581      1.0  0.65736  0.47128  0.98722  1.0000
  C   C337      1.0  0.60647  0.44107  0.99131  1.0000
  H   H582      1.0  0.39799  0.18025  0.42231  1.0000
  C   C338      1.0  0.45912  0.12955  0.09480  1.0000
  S   S113      1.0  0.56496  0.00222  0.06714  1.0000
  H   H583      1.0  0.48013  0.12724  0.10789  1.0000
  C   C339      1.0  0.44642  0.34528  0.40575  1.0000
  C   C340      1.0  0.38406  0.28271  0.26228  1.0000
  H   H584      1.0  0.40500  0.40044  0.38303  1.0000
  H   H585      1.0  0.37652  0.15533  0.35480  1.0000
  H   H586      1.0  0.65113  0.29025  0.35843  1.0000
  H   H587      1.0  0.35972  0.24201  0.30325  1.0000
  Fe  Fe60      1.0  0.48766  0.99604  0.02621  1.0000
  H   H588      1.0  0.35182  0.03848  0.18416  1.0000
  C   C341      1.0  0.65666  0.36853  0.98790  1.0000
  H   H589      1.0  0.65604  0.01696  0.09078  1.0000
  H   H590      1.0  0.34323  0.16402  0.33583  1.0000
  H   H591      1.0  0.40762  0.46908  0.13840  1.0000
  C   C342      1.0  0.42128  0.48169  0.99327  1.0000
  C   C343      1.0  0.64479  0.42121  0.02478  1.0000
  C   C344      1.0  0.65175  0.98541  0.16116  1.0000
  S   S114      1.0  0.66046  0.34281  0.23220  1.0000
  H   H592      1.0  0.33801  0.14656  0.41906  1.0000
  H   H593      1.0  0.37435  0.00095  0.23736  1.0000
  C   C345      1.0  0.65928  0.44755  0.97786  1.0000
  C   C346      1.0  0.64955  0.30062  0.43451  1.0000
  H   H594      1.0  0.65725  0.26601  0.27866  1.0000
  H   H595      1.0  0.65077  0.28134  0.45079  1.0000
  H   H596      1.0  0.64798  0.28888  0.41285  1.0000
  H   H597      1.0  0.64900  0.35930  0.00946  1.0000
  H   H598      1.0  0.65571  0.34881  0.97216  1.0000
  H   H599      1.0  0.36090  0.47570  0.10973  1.0000
  Fe  Fe61      1.0  0.66361  0.39308  0.21834  1.0000
  H   H600      1.0  0.65698  0.38077  0.41442  1.0000
  C   C347      1.0  0.36177  0.48343  0.13290  1.0000
  H   H601      1.0  0.62091  0.48099  0.14118  1.0000
  H   H602      1.0  0.65537  0.48162  0.19816  1.0000
  H   H603      1.0  0.66374  0.46757  0.03576  1.0000
  C   C348      1.0  0.65974  0.36163  0.39839  1.0000
  H   H604      1.0  0.33433  0.02815  0.21770  1.0000
  H   H605      1.0  0.66004  0.36125  0.45853  1.0000
  S   S115      1.0  0.50585  0.48297  0.08022  1.0000
  H   H606      1.0  0.57000  0.45495  0.96220  1.0000
  H   H607      1.0  0.58874  0.14161  0.75864  1.0000
  C   C349      1.0  0.61954  0.10236  0.83266  1.0000
  Fe  Fe62      1.0  0.43499  0.10981  0.74932  1.0000
  S   S116      1.0  0.45486  0.09760  0.70518  1.0000
  S   S117      1.0  0.39488  0.07975  0.76132  1.0000
  Fe  Fe63      1.0  0.48144  0.16128  0.75992  1.0000
  S   S118      1.0  0.50380  0.15251  0.71693  1.0000
  S   S119      1.0  0.49905  0.19998  0.78910  1.0000
  Fe  Fe64      1.0  0.45716  0.14959  0.69864  1.0000
  S   S120      1.0  0.44680  0.17960  0.65900  1.0000
  Fe  Fe65      1.0  0.49944  0.10173  0.72819  1.0000
  S   S121      1.0  0.54292  0.07403  0.72625  1.0000
  S   S122      1.0  0.43457  0.16161  0.74115  1.0000
  S   S123      1.0  0.47946  0.11050  0.77270  1.0000
  C   C350      1.0  0.54727  0.21198  0.75267  1.0000
  C   C351      1.0  0.52794  0.22367  0.77421  1.0000
  H   H608      1.0  0.54535  0.18811  0.74564  1.0000
  C   C352      1.0  0.51834  0.01656  0.71271  1.0000
  H   H609      1.0  0.49879  0.02916  0.70483  1.0000
  C   C353      1.0  0.40999  0.17659  0.64521  1.0000
  C   C354      1.0  0.39684  0.20235  0.63113  1.0000
  C   C355      1.0  0.36777  0.20017  0.61921  1.0000
  H   H610      1.0  0.40903  0.22414  0.62967  1.0000
  H   H611      1.0  0.35361  0.13960  0.69322  1.0000
  C   C356      1.0  0.59315  0.44530  0.96021  1.0000
  C   C357      1.0  0.39572  0.29511  0.49454  1.0000
  C   C358      1.0  0.36751  0.28031  0.49589  1.0000
  H   H612      1.0  0.42994  0.15108  0.51537  1.0000
  H   H613      1.0  0.40113  0.31333  0.51003  1.0000
  H   H614      1.0  0.43158  0.44199  0.92941  1.0000
  C   C359      1.0  0.37823  0.10443  0.81522  1.0000
  C   C360      1.0  0.37371  0.08137  0.79403  1.0000
  C   C361      1.0  0.38959  0.46319  0.94247  1.0000
  H   H615      1.0  0.63629  0.12138  0.82984  1.0000
  H   H616      1.0  0.41316  0.99970  0.91699  1.0000
  H   H617      1.0  0.65253  0.31336  0.49313  1.0000
  H   H618      1.0  0.35399  0.08607  0.69743  1.0000
  H   H619      1.0  0.38657  0.07943  0.89916  1.0000
  H   H620      1.0  0.43777  0.20270  0.58152  1.0000
  H   H621      1.0  0.39572  0.12170  0.81214  1.0000
  H   H622      1.0  0.43614  0.13471  0.55968  1.0000
  H   H623      1.0  0.64319  0.42564  0.59216  1.0000
  C   C362      1.0  0.52726  0.22590  0.67316  1.0000
  H   H624      1.0  0.51076  0.21746  0.65682  1.0000
  C   C363      1.0  0.62121  0.23718  0.48529  1.0000
  H   H625      1.0  0.54962  0.21682  0.66626  1.0000
  S   S124      1.0  0.60159  0.28437  0.73270  1.0000
  S   S125      1.0  0.63025  0.41877  0.81871  1.0000
  H   H626      1.0  0.47372  0.22250  0.70027  1.0000
  C   C364      1.0  0.33244  0.06013  0.82318  1.0000
  C   C365      1.0  0.35954  0.10548  0.84021  1.0000
  Fe  Fe66      1.0  0.60871  0.33611  0.73969  1.0000
  H   H627      1.0  0.65447  0.45923  0.86303  1.0000
  C   C366      1.0  0.57352  0.26174  0.74993  1.0000
  C   C367      1.0  0.56999  0.23080  0.74076  1.0000
  C   C368      1.0  0.53196  0.25443  0.78412  1.0000
  C   C369      1.0  0.55453  0.27359  0.77178  1.0000
  H   H628      1.0  0.58481  0.22136  0.72412  1.0000
  H   H629      1.0  0.51732  0.26361  0.80102  1.0000
  H   H630      1.0  0.55725  0.29741  0.77918  1.0000
  C   C370      1.0  0.39790  0.20498  0.53652  1.0000
  H   H631      1.0  0.42074  0.26090  0.55368  1.0000
  C   C371      1.0  0.56781  0.01636  0.73484  1.0000
  C   C372      1.0  0.54251  0.03291  0.72486  1.0000
  H   H632      1.0  0.56354  0.44094  0.81200  1.0000
  H   H633      1.0  0.39543  0.01133  0.81067  1.0000
  H   H634      1.0  0.58655  0.02887  0.74431  1.0000
  H   H635      1.0  0.45618  0.24931  0.57066  1.0000
  H   H636      1.0  0.53123  0.45798  0.84700  1.0000
  C   C373      1.0  0.35193  0.17202  0.62082  1.0000
  C   C374      1.0  0.56906  0.98366  0.73263  1.0000
  H   H637      1.0  0.34703  0.04151  0.78175  1.0000
  C   C375      1.0  0.43101  0.15429  0.57466  1.0000
  H   H638      1.0  0.58070  0.09517  0.78392  1.0000
  Fe  Fe67      1.0  0.62568  0.39342  0.77561  1.0000
  H   H639      1.0  0.61047  0.17384  0.77116  1.0000
  S   S126      1.0  0.63067  0.42385  0.73589  1.0000
  H   H640      1.0  0.35120  0.28731  0.51225  1.0000
  C   C376      1.0  0.56069  0.10189  0.79701  1.0000
  H   H641      1.0  0.47236  0.23148  0.73806  1.0000
  C   C377      1.0  0.42018  0.45550  0.94608  1.0000
  H   H642      1.0  0.58611  0.40402  0.64795  1.0000
  H   H643      1.0  0.36160  0.18024  0.51367  1.0000
  C   C378      1.0  0.43896  0.17463  0.51087  1.0000
  H   H644      1.0  0.45064  0.31507  0.65267  1.0000
  H   H645      1.0  0.43819  0.29129  0.68324  1.0000
  H   H646      1.0  0.57809  0.09798  0.85749  1.0000
  H   H647      1.0  0.36284  0.12348  0.85648  1.0000
  C   C379      1.0  0.53820  0.13561  0.83388  1.0000
  N   N26       1.0  0.43115  0.19772  0.53466  1.0000
  H   H648      1.0  0.43021  0.27988  0.64632  1.0000
  H   H649      1.0  0.59455  0.13490  0.85800  1.0000
  H   H650      1.0  0.48674  0.27632  0.63646  1.0000
  H   H651      1.0  0.52927  0.11597  0.84731  1.0000
  H   H652      1.0  0.54544  0.18599  0.84276  1.0000
  H   H653      1.0  0.63959  0.39799  0.95315  1.0000
  H   H654      1.0  0.58171  0.04670  0.65235  1.0000
  S   S127      1.0  0.61160  0.36269  0.69727  1.0000
  H   H655      1.0  0.45392  0.01182  0.84760  1.0000
  C   C380      1.0  0.44460  0.25450  0.54968  1.0000
  H   H656      1.0  0.52065  0.14072  0.81706  1.0000
  C   C381      1.0  0.35081  0.05928  0.79815  1.0000
  H   H657      1.0  0.36546  0.01052  0.85412  1.0000
  H   H658      1.0  0.59172  0.17099  0.82018  1.0000
  H   H659      1.0  0.34743  0.13694  0.77189  1.0000
  C   C382      1.0  0.35877  0.18250  0.71596  1.0000
  S   S128      1.0  0.54892  0.42727  0.70059  1.0000
  H   H660      1.0  0.53220  0.35101  0.70114  1.0000
  H   H661      1.0  0.55476  0.31783  0.69283  1.0000
  C   C383      1.0  0.36735  0.99524  0.95778  1.0000
  H   H662      1.0  0.45566  0.27559  0.54033  1.0000
  N   N27       1.0  0.56762  0.12682  0.81930  1.0000
  H   H663      1.0  0.54458  0.11116  0.78042  1.0000
  H   H664      1.0  0.56797  0.46743  0.86245  1.0000
  C   C384      1.0  0.66021  0.43587  0.60721  1.0000
  H   H665      1.0  0.58967  0.42888  0.61662  1.0000
  H   H666      1.0  0.47545  0.29044  0.72152  1.0000
  H   H667      1.0  0.50849  0.26794  0.72771  1.0000
  H   H668      1.0  0.44472  0.24782  0.71502  1.0000
  C   C385      1.0  0.42828  0.18331  0.47973  1.0000
  H   H669      1.0  0.54512  0.05430  0.79097  1.0000
  C   C386      1.0  0.57985  0.15566  0.80426  1.0000
  H   H670      1.0  0.61657  0.47176  0.59609  1.0000
  N   N28       1.0  0.64528  0.45498  0.63099  1.0000
  H   H671      1.0  0.35952  0.17781  0.55246  1.0000
  H   H672      1.0  0.61438  0.44495  0.66716  1.0000
  C   C387      1.0  0.60811  0.00448  0.65935  1.0000
  C   C388      1.0  0.35234  0.14712  0.71628  1.0000
  H   H673      1.0  0.66146  0.33849  0.60136  1.0000
  H   H674      1.0  0.46385  0.17111  0.50976  1.0000
  H   H675      1.0  0.40315  0.05006  0.92167  1.0000
  H   H676      1.0  0.63144  0.26044  0.52588  1.0000
  H   H677      1.0  0.66397  0.26824  0.69558  1.0000
  C   C389      1.0  0.42669  0.99502  0.89706  1.0000
  H   H678      1.0  0.35325  0.12423  0.63566  1.0000
  H   H679      1.0  0.43092  0.05384  0.87475  1.0000
  H   H680      1.0  0.62574  0.01040  0.59367  1.0000
  H   H681      1.0  0.52476  0.07443  0.81863  1.0000
  C   C390      1.0  0.64053  0.24763  0.50746  1.0000
  H   H682      1.0  0.52937  0.31717  0.72400  1.0000
  H   H683      1.0  0.44241  0.14853  0.59568  1.0000
  H   H684      1.0  0.38573  0.15388  0.53346  1.0000
  H   H685      1.0  0.56274  0.06010  0.82562  1.0000
  H   H686      1.0  0.62850  0.01928  0.65640  1.0000
  C   C391      1.0  0.37557  0.17738  0.53373  1.0000
  S   S129      1.0  0.65298  0.35392  0.75688  1.0000
  C   C392      1.0  0.43095  0.00220  0.84371  1.0000
  H   H687      1.0  0.57153  0.98379  0.93693  1.0000
  C   C393      1.0  0.55371  0.44896  0.79106  1.0000
  H   H688      1.0  0.38015  0.18668  0.70388  1.0000
  C   C394      1.0  0.36528  0.14616  0.63459  1.0000
  C   C395      1.0  0.39413  0.14849  0.64704  1.0000
  H   H689      1.0  0.52276  0.21553  0.69497  1.0000
  C   C396      1.0  0.53909  0.16421  0.85447  1.0000
  H   H690      1.0  0.55412  0.16046  0.87354  1.0000
  Fe  Fe68      1.0  0.58793  0.40134  0.72109  1.0000
  C   C397      1.0  0.36040  0.25678  0.47587  1.0000
  S   S130      1.0  0.58102  0.37304  0.76205  1.0000
  C   C398      1.0  0.58891  0.11552  0.84280  1.0000
  C   C399      1.0  0.54760  0.07115  0.80929  1.0000
  C   C400      1.0  0.60117  0.15082  0.77791  1.0000
  H   H691      1.0  0.40432  0.12840  0.65754  1.0000
  C   C401      1.0  0.51993  0.98387  0.70985  1.0000
  H   H692      1.0  0.61301  0.39430  0.62033  1.0000
  H   H693      1.0  0.56102  0.17004  0.79547  1.0000
  S   S131      1.0  0.37060  0.45065  0.91053  1.0000
  H   H694      1.0  0.44014  0.23737  0.50623  1.0000
  H   H695      1.0  0.51607  0.16824  0.86331  1.0000
  H   H696      1.0  0.62808  0.08581  0.84956  1.0000
  H   H697      1.0  0.49964  0.47093  0.69676  1.0000
  C   C402      1.0  0.39044  0.05385  0.90104  1.0000
  H   H698      1.0  0.39662  0.05327  0.85477  1.0000
  H   H699      1.0  0.64545  0.47464  0.69168  1.0000
  H   H700      1.0  0.36786  0.04293  0.90267  1.0000
  H   H701      1.0  0.56937  0.44335  0.77281  1.0000
  H   H702      1.0  0.37179  0.13518  0.72700  1.0000
  Fe  Fe69      1.0  0.65400  0.38269  0.71572  1.0000
  H   H703      1.0  0.59461  0.47342  0.71375  1.0000
  H   H704      1.0  0.34104  0.19578  0.70417  1.0000
  H   H705      1.0  0.64123  0.41569  0.66067  1.0000
  H   H706      1.0  0.36199  0.19196  0.73832  1.0000
  H   H707      1.0  0.39154  0.22209  0.51916  1.0000
  H   H708      1.0  0.65438  0.99321  0.69533  1.0000
  H   H709      1.0  0.53833  0.27022  0.65371  1.0000
  H   H710      1.0  0.47052  0.24695  0.65831  1.0000
  C   C403      1.0  0.62647  0.43289  0.64921  1.0000
  H   H711      1.0  0.48655  0.32735  0.68679  1.0000
  H   H712      1.0  0.39262  0.21697  0.55755  1.0000
  N   N29       1.0  0.41116  0.00771  0.87013  1.0000
  H   H713      1.0  0.47242  0.22298  0.52467  1.0000
  H   H714      1.0  0.61832  0.08837  0.81241  1.0000
  H   H715      1.0  0.54647  0.26654  0.69170  1.0000
  C   C404      1.0  0.44303  0.18596  0.56366  1.0000
  C   C405      1.0  0.44783  0.22754  0.52747  1.0000
  N   N30       1.0  0.50004  0.27878  0.68206  1.0000
  C   C406      1.0  0.50678  0.31337  0.68074  1.0000
  C   C407      1.0  0.47701  0.27191  0.65864  1.0000
  C   C408      1.0  0.52892  0.26172  0.67496  1.0000
  C   C409      1.0  0.48909  0.27077  0.71256  1.0000
  C   C410      1.0  0.53225  0.32503  0.70099  1.0000
  C   C411      1.0  0.44743  0.29078  0.66067  1.0000
  C   C412      1.0  0.46897  0.24150  0.71584  1.0000
  H   H716      1.0  0.51272  0.32061  0.65794  1.0000
  H   H717      1.0  0.43254  0.00640  0.79606  1.0000
  S   S132      1.0  0.45276  0.30367  0.47300  1.0000
  H   H718      1.0  0.44863  0.00708  0.90052  1.0000
  H   H719      1.0  0.53356  0.43423  0.78709  1.0000
  H   H720      1.0  0.62045  0.13539  0.78298  1.0000
  H   H721      1.0  0.65537  0.35842  0.65197  1.0000
  H   H722      1.0  0.60608  0.46254  0.94711  1.0000
  H   H723      1.0  0.61069  0.98841  0.93020  1.0000
  H   H724      1.0  0.59656  0.47519  0.82456  1.0000
  C   C413      1.0  0.40828  0.04265  0.87391  1.0000
  H   H725      1.0  0.58253  0.02204  0.62081  1.0000
  C   C414      1.0  0.54737  0.46817  0.70503  1.0000
  H   H726      1.0  0.46808  0.18405  0.56291  1.0000
  C   C415      1.0  0.58147  0.02196  0.64501  1.0000
  H   H727      1.0  0.63405  0.04579  0.94597  1.0000
  C   C416      1.0  0.62273  0.98466  0.59433  1.0000
  H   H728      1.0  0.40662  0.15535  0.57968  1.0000
  S   S133      1.0  0.58245  0.24528  0.48874  1.0000
  H   H729      1.0  0.42326  0.04199  0.81394  1.0000
  H   H730      1.0  0.35755  0.22035  0.60908  1.0000
  H   H731      1.0  0.60911  0.30922  0.46120  1.0000
  C   C417      1.0  0.63318  0.22069  0.46149  1.0000
  H   H732      1.0  0.65394  0.45023  0.95417  1.0000
  C   C418      1.0  0.60255  0.41417  0.63220  1.0000
  C   C419      1.0  0.41953  0.01638  0.81464  1.0000
  H   H733      1.0  0.40381  0.18830  0.47890  1.0000
  C   C420      1.0  0.41704  0.28609  0.47348  1.0000
  H   H734      1.0  0.44094  0.20330  0.47047  1.0000
  H   H735      1.0  0.55957  0.01215  0.65242  1.0000
  H   H736      1.0  0.36892  0.99199  0.88876  1.0000
  H   H737      1.0  0.59127  0.42306  0.94804  1.0000
  H   H738      1.0  0.43284  0.16333  0.46487  1.0000
  C   C421      1.0  0.37996  0.99416  0.86691  1.0000
  C   C422      1.0  0.62686  0.48058  0.61675  1.0000
  H   H739      1.0  0.34925  0.00965  0.94974  1.0000
  C   C423      1.0  0.33674  0.08314  0.84438  1.0000
  H   H740      1.0  0.65566  0.98447  0.62791  1.0000
  H   H741      1.0  0.57883  0.48226  0.62911  1.0000
  H   H742      1.0  0.60309  0.00506  0.68329  1.0000
  H   H743      1.0  0.33244  0.09006  0.74560  1.0000
  C   C424      1.0  0.54501  0.47625  0.85770  1.0000
  H   H744      1.0  0.53432  0.48079  0.87934  1.0000
  C   C425      1.0  0.63960  0.51349  0.10999  1.0000
  C   C426      1.0  0.50035  0.58044  0.12795  1.0000
  C   C427      1.0  0.63771  0.72496  0.44374  1.0000
  C   C428      1.0  0.62867  0.93092  0.01811  1.0000
  H   H745      1.0  0.33790  0.68532  0.33868  1.0000
  Fe  Fe70      1.0  0.39230  0.61813  0.26132  1.0000
  S   S134      1.0  0.41292  0.62244  0.30629  1.0000
  C   C429      1.0  0.33487  0.71418  0.10666  1.0000
  S   S135      1.0  0.38420  0.65990  0.23236  1.0000
  H   H746      1.0  0.58686  0.90866  0.25555  1.0000
  H   H747      1.0  0.60597  0.48831  0.19026  1.0000
  Fe  Fe71      1.0  0.49143  0.75791  0.41061  1.0000
  Fe  Fe72      1.0  0.53350  0.72748  0.36625  1.0000
  S   S136      1.0  0.53262  0.70058  0.32386  1.0000
  S   S137      1.0  0.50526  0.77064  0.36478  1.0000
  H   H748      1.0  0.38869  0.75864  0.38455  1.0000
  H   H749      1.0  0.60452  0.60592  0.17125  1.0000
  N   N31       1.0  0.37836  0.71377  0.34162  1.0000
  H   H750      1.0  0.54806  0.77526  0.28673  1.0000
  H   H751      1.0  0.60240  0.85772  0.27271  1.0000
  C   C430      1.0  0.41563  0.95889  0.97823  1.0000
  C   C431      1.0  0.58764  0.85805  0.25318  1.0000
  H   H752      1.0  0.33909  0.71757  0.22912  1.0000
  C   C432      1.0  0.38482  0.95330  0.15945  1.0000
  H   H753      1.0  0.37565  0.68023  0.41194  1.0000
  C   C433      1.0  0.44656  0.64367  0.31038  1.0000
  C   C434      1.0  0.46218  0.65559  0.28617  1.0000
  C   C435      1.0  0.48880  0.67281  0.29039  1.0000
  C   C436      1.0  0.49945  0.67872  0.31880  1.0000
  C   C437      1.0  0.48363  0.66698  0.34293  1.0000
  C   C438      1.0  0.45744  0.64927  0.33871  1.0000
  H   H754      1.0  0.45398  0.65126  0.26424  1.0000
  H   H755      1.0  0.50107  0.68169  0.27164  1.0000
  H   H756      1.0  0.49186  0.67110  0.36486  1.0000
  H   H757      1.0  0.44562  0.63982  0.35748  1.0000
  H   H758      1.0  0.55454  0.50477  0.19899  1.0000
  C   C439      1.0  0.64278  0.87783  0.41247  1.0000
  H   H759      1.0  0.40574  0.71224  0.38134  1.0000
  C   C440      1.0  0.45770  0.61291  0.11403  1.0000
  H   H760      1.0  0.38900  0.73814  0.12341  1.0000
  H   H761      1.0  0.43421  0.94476  0.98602  1.0000
  H   H762      1.0  0.59644  0.81552  0.42383  1.0000
  H   H763      1.0  0.48805  0.59073  0.08331  1.0000
  H   H764      1.0  0.44413  0.62368  0.09710  1.0000
  H   H765      1.0  0.64901  0.94585  0.01872  1.0000
  H   H766      1.0  0.38596  0.78555  0.35421  1.0000
  Fe  Fe73      1.0  0.39523  0.62660  0.19568  1.0000
  H   H767      1.0  0.34479  0.74803  0.17495  1.0000
  S   S138      1.0  0.43956  0.49263  0.02611  1.0000
  H   H768      1.0  0.59814  0.79015  0.29557  1.0000
  H   H769      1.0  0.35819  0.94105  0.24285  1.0000
  H   H770      1.0  0.60326  0.85915  0.23414  1.0000
  S   S139      1.0  0.56354  0.91453  0.06716  1.0000
  C   C441      1.0  0.33751  0.68898  0.15567  1.0000
  C   C442      1.0  0.48249  0.59418  0.10618  1.0000
  H   H771      1.0  0.55666  0.89338  0.23438  1.0000
  C   C443      1.0  0.42105  0.54559  0.07998  1.0000
  H   H772      1.0  0.55580  0.89107  0.27410  1.0000
  H   H773      1.0  0.42207  0.71518  0.16124  1.0000
  H   H774      1.0  0.40171  0.67614  0.36370  1.0000
  C   C444      1.0  0.60099  0.51341  0.18622  1.0000
  Fe  Fe74      1.0  0.54547  0.79408  0.38468  1.0000
  S   S140      1.0  0.57486  0.75156  0.38333  1.0000
  S   S141      1.0  0.56170  0.84035  0.36635  1.0000
  S   S142      1.0  0.34736  0.61156  0.19018  1.0000
  S   S143      1.0  0.52858  0.78625  0.43076  1.0000
  H   H775      1.0  0.35430  0.75476  0.32659  1.0000
  H   H776      1.0  0.33371  0.52357  0.26854  1.0000
  C   C445      1.0  0.63428  0.53194  0.00473  1.0000
  H   H777      1.0  0.63250  0.58517  0.19164  1.0000
  H   H778      1.0  0.56008  0.50234  0.16041  1.0000
  H   H779      1.0  0.62085  0.53452  0.02432  1.0000
  H   H780      1.0  0.33197  0.72110  0.29612  1.0000
  N   N32       1.0  0.62122  0.52621  0.16248  1.0000
  C   C446      1.0  0.63489  0.87050  0.32108  1.0000
  C   C447      1.0  0.60617  0.86854  0.33403  1.0000
  C   C448      1.0  0.59815  0.84243  0.35095  1.0000
  C   C449      1.0  0.61932  0.81866  0.35538  1.0000
  C   C450      1.0  0.39417  0.49059  0.14287  1.0000
  H   H781      1.0  0.42898  0.75625  0.34902  1.0000
  H   H782      1.0  0.59005  0.88721  0.33073  1.0000
  H   H783      1.0  0.61368  0.79878  0.36872  1.0000
  C   C451      1.0  0.61069  0.58257  0.18013  1.0000
  C   C452      1.0  0.57967  0.91346  0.10254  1.0000
  C   C453      1.0  0.60375  0.89309  0.10863  1.0000
  C   C454      1.0  0.61686  0.89219  0.13678  1.0000
  C   C455      1.0  0.60538  0.91114  0.15911  1.0000
  C   C456      1.0  0.58110  0.93117  0.15304  1.0000
  C   C457      1.0  0.56857  0.93266  0.12480  1.0000
  H   H784      1.0  0.61239  0.87812  0.09150  1.0000
  H   H785      1.0  0.63555  0.87665  0.14124  1.0000
  H   H786      1.0  0.35087  0.70971  0.39831  1.0000
  H   H787      1.0  0.35536  0.77992  0.37962  1.0000
  Fe  Fe75      1.0  0.55590  0.74204  0.42812  1.0000
  N   N33       1.0  0.56866  0.82895  0.25203  1.0000
  C   C458      1.0  0.58926  0.80114  0.24861  1.0000
  C   C459      1.0  0.54731  0.83000  0.22634  1.0000
  C   C460      1.0  0.55044  0.82660  0.27989  1.0000
  C   C461      1.0  0.61041  0.79423  0.27473  1.0000
  C   C462      1.0  0.56166  0.83697  0.19613  1.0000
  C   C463      1.0  0.53299  0.79581  0.28449  1.0000
  H   H788      1.0  0.57613  0.77955  0.24409  1.0000
  H   H789      1.0  0.60423  0.80418  0.22923  1.0000
  H   H790      1.0  0.52920  0.84761  0.22995  1.0000
  H   H791      1.0  0.53541  0.80732  0.22398  1.0000
  H   H792      1.0  0.56486  0.83028  0.29948  1.0000
  H   H793      1.0  0.53329  0.84553  0.28095  1.0000
  Fe  Fe76      1.0  0.49010  0.49408  0.03433  1.0000
  H   H794      1.0  0.62331  0.77256  0.27005  1.0000
  H   H795      1.0  0.57165  0.86064  0.19496  1.0000
  H   H796      1.0  0.57883  0.81938  0.18990  1.0000
  H   H797      1.0  0.54383  0.83625  0.17907  1.0000
  H   H798      1.0  0.51634  0.79159  0.26689  1.0000
  H   H799      1.0  0.52016  0.79746  0.30535  1.0000
  N   N34       1.0  0.40927  0.51875  0.12942  1.0000
  H   H800      1.0  0.40149  0.94965  0.17709  1.0000
  C   C464      1.0  0.40713  0.51752  0.09642  1.0000
  H   H801      1.0  0.37113  0.93183  0.15669  1.0000
  C   C465      1.0  0.45032  0.51578  0.16978  1.0000
  H   H802      1.0  0.34813  0.55631  0.14718  1.0000
  H   H803      1.0  0.39076  0.69897  0.18017  1.0000
  H   H804      1.0  0.37041  0.66792  0.32307  1.0000
  C   C466      1.0  0.39073  0.48949  0.98958  1.0000
  C   C467      1.0  0.56678  0.51547  0.18025  1.0000
  H   H805      1.0  0.45472  0.53716  0.12772  1.0000
  H   H806      1.0  0.38368  0.51541  0.08860  1.0000
  S   S144      1.0  0.34420  0.60144  0.26057  1.0000
  C   C468      1.0  0.61260  0.55922  0.15446  1.0000
  H   H807      1.0  0.44997  0.74073  0.31906  1.0000
  H   H808      1.0  0.41310  0.56797  0.13959  1.0000
  H   H809      1.0  0.64393  0.80090  0.41346  1.0000
  C   C469      1.0  0.40485  0.72118  0.32190  1.0000
  H   H810      1.0  0.64672  0.94886  0.11203  1.0000
  C   C470      1.0  0.44239  0.51682  0.13685  1.0000
  C   C471      1.0  0.37363  0.76786  0.36740  1.0000
  C   C472      1.0  0.39235  0.94527  0.96150  1.0000
  H   H811      1.0  0.39444  0.54642  0.16646  1.0000
  H   H812      1.0  0.39308  0.49282  0.16718  1.0000
  H   H813      1.0  0.34986  0.67023  0.38367  1.0000
  S   S145      1.0  0.62068  0.91120  0.19484  1.0000
  H   H814      1.0  0.47526  0.51568  0.17204  1.0000
  H   H815      1.0  0.59296  0.57622  0.19619  1.0000
  H   H816      1.0  0.33409  0.68117  0.28555  1.0000
  S   S146      1.0  0.57276  0.50754  0.05959  1.0000
  Fe  Fe77      1.0  0.55287  0.51532  0.01507  1.0000
  H   H817      1.0  0.36744  0.58620  0.12708  1.0000
  C   C473      1.0  0.34359  0.74051  0.08507  1.0000
  C   C474      1.0  0.62021  0.52860  0.97752  1.0000
  H   H818      1.0  0.60820  0.94521  0.02207  1.0000
  H   H819      1.0  0.39817  0.73792  0.30434  1.0000
  C   C475      1.0  0.39679  0.54856  0.14224  1.0000
  C   C476      1.0  0.65321  0.52610  0.17361  1.0000
  S   S147      1.0  0.44183  0.75057  0.42038  1.0000
  H   H820      1.0  0.45296  0.49592  0.12650  1.0000
  H   H821      1.0  0.44464  0.71739  0.35078  1.0000
  H   H822      1.0  0.60080  0.96875  0.97999  1.0000
  H   H823      1.0  0.39385  0.97084  0.21940  1.0000
  C   C477      1.0  0.36458  0.68923  0.39175  1.0000
  H   H824      1.0  0.38243  0.73741  0.43952  1.0000
  C   C478      1.0  0.49310  0.58529  0.15754  1.0000
  H   H825      1.0  0.63556  0.53710  0.10074  1.0000
  C   C479      1.0  0.46774  0.60315  0.16536  1.0000
  C   C480      1.0  0.64819  0.82090  0.34300  1.0000
  H   H826      1.0  0.44601  0.54408  0.07965  1.0000
  C   C481      1.0  0.35854  0.69066  0.32578  1.0000
  H   H827      1.0  0.41388  0.56838  0.08901  1.0000
  H   H828      1.0  0.59487  0.50794  0.12640  1.0000
  H   H829      1.0  0.44202  0.53668  0.18161  1.0000
  S   S148      1.0  0.53171  0.55703  0.11897  1.0000
  H   H830      1.0  0.60541  0.52503  0.20758  1.0000
  H   H831      1.0  0.59058  0.55973  0.14289  1.0000
  S   S149      1.0  0.51760  0.71304  0.41097  1.0000
  H   H832      1.0  0.64773  0.89377  0.39380  1.0000
  S   S150      1.0  0.41773  0.63914  0.15279  1.0000
  S   S151      1.0  0.40749  0.58629  0.22488  1.0000
  H   H833      1.0  0.35428  0.66970  0.15334  1.0000
  C   C482      1.0  0.36609  0.56055  0.13070  1.0000
  Fe  Fe78      1.0  0.53871  0.95926  0.05620  1.0000
  H   H834      1.0  0.63522  0.49666  0.09204  1.0000
  S   S152      1.0  0.51235  0.54127  0.03263  1.0000
  C   C483      1.0  0.57029  0.88927  0.25437  1.0000
  H   H835      1.0  0.50686  0.57481  0.17449  1.0000
  H   H836      1.0  0.63834  0.89290  0.43167  1.0000
  H   H837      1.0  0.54995  0.94833  0.12038  1.0000
  H   H838      1.0  0.62601  0.71910  0.42371  1.0000
  H   H839      1.0  0.46220  0.60647  0.18823  1.0000
  C   C484      1.0  0.45008  0.61720  0.14362  1.0000
  H   H840      1.0  0.62226  0.86489  0.40609  1.0000
  Fe  Fe79      1.0  0.35862  0.57314  0.22169  1.0000
  Fe  Fe80      1.0  0.53011  0.52868  0.07726  1.0000
  H   H841      1.0  0.35860  0.55059  0.10972  1.0000
  C   C485      1.0  0.35978  0.74261  0.34753  1.0000
  H   H842      1.0  0.55868  0.53987  0.17832  1.0000
  H   H843      1.0  0.39856  0.95692  0.13933  1.0000
  H   H844      1.0  0.57210  0.94590  0.17020  1.0000
  C   C486      1.0  0.39144  0.75496  0.45404  1.0000
  H   H845      1.0  0.62901  0.56929  0.13861  1.0000
  C   C487      1.0  0.38918  0.69793  0.36928  1.0000
  H   H846      1.0  0.41362  0.54516  0.05675  1.0000
  C   C488      1.0  0.42067  0.76635  0.44953  1.0000
  H   H847      1.0  0.64087  0.89067  0.30796  1.0000
  C   C489      1.0  0.61802  0.50607  0.13560  1.0000
  H   H848      1.0  0.62716  0.81305  0.27787  1.0000
  H   H849      1.0  0.34430  0.97796  0.15021  1.0000
  H   H850      1.0  0.66359  0.51072  0.11612  1.0000
  H   H851      1.0  0.60757  0.84349  0.45035  1.0000
  C   C490      1.0  0.64356  0.80910  0.43656  1.0000
  C   C491      1.0  0.65592  0.84662  0.32552  1.0000
  H   H852      1.0  0.64795  0.78783  0.44984  1.0000
  H   H853      1.0  0.63449  0.96677  0.16007  1.0000
  H   H854      1.0  0.34267  0.69173  0.09686  1.0000
  H   H855      1.0  0.37912  0.50237  0.00655  1.0000
  H   H856      1.0  0.41259  0.69971  0.31031  1.0000
  H   H857      1.0  0.36797  0.74022  0.07974  1.0000
  C   C492      1.0  0.43335  0.73475  0.33642  1.0000
  H   H858      1.0  0.65485  0.53910  0.19462  1.0000
  H   H859      1.0  0.39469  0.74092  0.17668  1.0000
  H   H860      1.0  0.62512  0.97073  0.08542  1.0000
  C   C493      1.0  0.36445  0.98206  0.16411  1.0000
  C   C494      1.0  0.39755  0.71822  0.16538  1.0000
  Fe  Fe81      1.0  0.33718  0.64128  0.22919  1.0000
  H   H861      1.0  0.63026  0.91454  0.03701  1.0000
  H   H862      1.0  0.33737  0.69463  0.17945  1.0000
  H   H863      1.0  0.38910  0.69655  0.12355  1.0000
  S   S153      1.0  0.49404  0.97786  0.07239  1.0000
  H   H864      1.0  0.36488  0.92370  0.20717  1.0000
  C   C495      1.0  0.38075  0.71743  0.13575  1.0000
  H   H865      1.0  0.60578  0.89721  0.99122  1.0000
  H   H866      1.0  0.66286  0.95951  0.07743  1.0000
  H   H867      1.0  0.34622  0.50317  0.13666  1.0000
  C   C496      1.0  0.62654  0.91175  0.98954  1.0000
  S   S154      1.0  0.34412  0.52565  0.20526  1.0000
  H   H868      1.0  0.41824  0.49593  0.08801  1.0000
  H   H869      1.0  0.36606  0.70541  0.27973  1.0000
  N   N35       1.0  0.62627  0.93020  0.96125  1.0000
  H   H870      1.0  0.57824  0.93761  0.96685  1.0000
  H   H871      1.0  0.34715  0.76756  0.14087  1.0000
  H   H872      1.0  0.33412  0.77544  0.22720  1.0000
  N   N36       1.0  0.34675  0.71710  0.13752  1.0000
  H   H873      1.0  0.33721  0.73651  0.35656  1.0000
  H   H874      1.0  0.64560  0.89497  0.99024  1.0000
  C   C497      1.0  0.59900  0.95136  0.96206  1.0000
  C   C498      1.0  0.33674  0.74705  0.15192  1.0000
  S   S155      1.0  0.52983  0.97287  0.00910  1.0000
  C   C499      1.0  0.33396  0.96455  0.20699  1.0000
  S   S156      1.0  0.58050  0.52723  0.97461  1.0000
  C   C500      1.0  0.34731  0.70066  0.29513  1.0000
  C   C501      1.0  0.64777  0.96762  0.09531  1.0000
  C   C502      1.0  0.34803  0.93529  0.22128  1.0000
  H   H875      1.0  0.33675  0.76389  0.09305  1.0000
  H   H876      1.0  0.44199  0.49423  0.18059  1.0000
  H   H877      1.0  0.65354  0.96909  0.97485  1.0000
  C   C503      1.0  0.61075  0.81904  0.44353  1.0000
  H   H878      1.0  0.33156  0.73670  0.06403  1.0000
  H   H879      1.0  0.35140  0.48637  0.96174  1.0000
  H   H880      1.0  0.51217  0.53686  0.77947  1.0000
  C   C504      1.0  0.34345  0.65390  0.68643  1.0000
  Fe  Fe82      1.0  0.43285  0.60421  0.72834  1.0000
  S   S157      1.0  0.45831  0.59068  0.68738  1.0000
  S   S158      1.0  0.39499  0.57061  0.73869  1.0000
  Fe  Fe83      1.0  0.47255  0.66138  0.73878  1.0000
  S   S159      1.0  0.50068  0.65130  0.69933  1.0000
  S   S160      1.0  0.47978  0.70637  0.76397  1.0000
  Fe  Fe84      1.0  0.45685  0.64189  0.67671  1.0000
  S   S161      1.0  0.44959  0.66796  0.63405  1.0000
  Fe  Fe85      1.0  0.49942  0.60125  0.71416  1.0000
  S   S162      1.0  0.54352  0.57445  0.71596  1.0000
  S   S163      1.0  0.42836  0.65469  0.71540  1.0000
  S   S164      1.0  0.47424  0.61189  0.75578  1.0000
  C   C505      1.0  0.53877  0.71225  0.74533  1.0000
  C   C506      1.0  0.51430  0.72640  0.75935  1.0000
  H   H881      1.0  0.53736  0.68815  0.73859  1.0000
  C   C507      1.0  0.51821  0.51659  0.70521  1.0000
  H   H882      1.0  0.49685  0.52855  0.70290  1.0000
  C   C508      1.0  0.41434  0.66495  0.61674  1.0000
  C   C509      1.0  0.40488  0.68919  0.59821  1.0000
  H   H883      1.0  0.36504  0.54165  0.86110  1.0000
  H   H884      1.0  0.41894  0.70954  0.59530  1.0000
  H   H885      1.0  0.46915  0.76505  0.52231  1.0000
  Fe  Fe86      1.0  0.60754  0.83307  0.74667  1.0000
  H   H886      1.0  0.40317  0.56764  0.93015  1.0000
  C   C510      1.0  0.37384  0.76572  0.47750  1.0000
  H   H887      1.0  0.64438  0.73147  0.64613  1.0000
  C   C511      1.0  0.41510  0.57498  0.86982  1.0000
  C   C512      1.0  0.43233  0.68382  0.49000  1.0000
  C   C513      1.0  0.48123  0.70826  0.49668  1.0000
  C   C514      1.0  0.37124  0.57096  0.76974  1.0000
  C   C515      1.0  0.43282  0.95965  0.89789  1.0000
  C   C516      1.0  0.43207  0.78917  0.46837  1.0000
  N   N37       1.0  0.61412  0.97135  0.64941  1.0000
  S   S165      1.0  0.34003  0.94635  0.92864  1.0000
  H   H888      1.0  0.49687  0.72121  0.51109  1.0000
  H   H889      1.0  0.38172  0.50006  0.82791  1.0000
  H   H890      1.0  0.39495  0.58687  0.86043  1.0000
  H   H891      1.0  0.49230  0.65981  0.56835  1.0000
  C   C517      1.0  0.39996  0.67631  0.50047  1.0000
  H   H892      1.0  0.47239  0.69494  0.57778  1.0000
  H   H893      1.0  0.35947  0.94827  0.86274  1.0000
  C   C518      1.0  0.48275  0.68186  0.55938  1.0000
  C   C519      1.0  0.57333  0.48524  0.71140  1.0000
  H   H894      1.0  0.61731  0.76355  0.68125  1.0000
  S   S166      1.0  0.60077  0.78118  0.73976  1.0000
  H   H895      1.0  0.45014  0.52749  0.87658  1.0000
  H   H896      1.0  0.47550  0.72523  0.47888  1.0000
  S   S167      1.0  0.65253  0.84938  0.76356  1.0000
  H   H897      1.0  0.37026  0.70605  0.56906  1.0000
  S   S168      1.0  0.63284  0.90854  0.83087  1.0000
  C   C520      1.0  0.55855  0.53855  0.79738  1.0000
  C   C521      1.0  0.56770  0.76051  0.74890  1.0000
  C   C522      1.0  0.56533  0.72920  0.74019  1.0000
  C   C523      1.0  0.51695  0.75749  0.76883  1.0000
  C   C524      1.0  0.54347  0.77462  0.76339  1.0000
  H   H898      1.0  0.58407  0.71804  0.72921  1.0000
  H   H899      1.0  0.49824  0.76851  0.77999  1.0000
  H   H900      1.0  0.54514  0.79869  0.77034  1.0000
  H   H901      1.0  0.44154  0.76891  0.55040  1.0000
  C   C525      1.0  0.43276  0.52592  0.89413  1.0000
  C   C526      1.0  0.57185  0.51784  0.71428  1.0000
  C   C527      1.0  0.54429  0.53362  0.71136  1.0000
  N   N38       1.0  0.40582  0.54635  0.88692  1.0000
  C   C528      1.0  0.54494  0.50681  0.83979  1.0000
  H   H902      1.0  0.59210  0.53092  0.71896  1.0000
  H   H903      1.0  0.35722  0.64567  0.66756  1.0000
  C   C529      1.0  0.58741  0.92005  0.63474  1.0000
  H   H904      1.0  0.50146  0.97139  0.69982  1.0000
  C   C530      1.0  0.63667  0.73873  0.49512  1.0000
  H   H905      1.0  0.63537  0.97423  0.57571  1.0000
  H   H906      1.0  0.35138  0.58094  0.93262  1.0000
  H   H907      1.0  0.63677  0.86462  0.91549  1.0000
  C   C531      1.0  0.43316  0.59977  0.88656  1.0000
  H   H908      1.0  0.62408  0.74377  0.51488  1.0000
  H   H909      1.0  0.52130  0.69183  0.47411  1.0000
  C   C532      1.0  0.54428  0.48376  0.78978  1.0000
  H   H910      1.0  0.64547  0.81056  0.49630  1.0000
  H   H911      1.0  0.38718  0.69761  0.50664  1.0000
  H   H912      1.0  0.56468  0.91137  0.62874  1.0000
  C   C533      1.0  0.35992  0.57402  0.91067  1.0000
  H   H913      1.0  0.35144  0.75670  0.48059  1.0000
  C   C534      1.0  0.35225  0.54527  0.77435  1.0000
  H   H914      1.0  0.52869  0.57469  0.78085  1.0000
  C   C535      1.0  0.66032  0.48768  0.67654  1.0000
  C   C536      1.0  0.36369  0.71937  0.67531  1.0000
  C   C537      1.0  0.45661  0.75181  0.53938  1.0000
  N   N39       1.0  0.56021  0.50598  0.81022  1.0000
  H   H915      1.0  0.34176  0.56018  0.90043  1.0000
  H   H916      1.0  0.39958  0.65939  0.51891  1.0000
  H   H917      1.0  0.34888  0.61503  0.82803  1.0000
  H   H918      1.0  0.64886  0.78828  0.68790  1.0000
  H   H919      1.0  0.35977  0.66369  0.70244  1.0000
  H   H920      1.0  0.46515  0.65085  0.52618  1.0000
  C   C538      1.0  0.34989  0.59549  0.81309  1.0000
  H   H921      1.0  0.43727  0.61994  0.87169  1.0000
  H   H922      1.0  0.44552  0.95411  0.91825  1.0000
  H   H923      1.0  0.34915  0.60870  0.70744  1.0000
  H   H924      1.0  0.51944  0.48493  0.79314  1.0000
  H   H925      1.0  0.41152  0.94623  0.89931  1.0000
  H   H926      1.0  0.50239  0.69482  0.55083  1.0000
  H   H927      1.0  0.36906  0.96527  0.82861  1.0000
  Fe  Fe87      1.0  0.58674  0.89946  0.73293  1.0000
  S   S169      1.0  0.36411  0.80043  0.52751  1.0000
  H   H928      1.0  0.62962  0.78893  0.65284  1.0000
  N   N40       1.0  0.48662  0.76527  0.67759  1.0000
  C   C539      1.0  0.51638  0.78019  0.68541  1.0000
  C   C540      1.0  0.49245  0.73076  0.67417  1.0000
  C   C541      1.0  0.46499  0.77087  0.70266  1.0000
  C   C542      1.0  0.47544  0.78037  0.64972  1.0000
  C   C543      1.0  0.51515  0.81455  0.69559  1.0000
  C   C544      1.0  0.51399  0.72155  0.64907  1.0000
  C   C545      1.0  0.43748  0.74908  0.70513  1.0000
  C   C546      1.0  0.44765  0.76577  0.63478  1.0000
  H   H929      1.0  0.52764  0.76682  0.70322  1.0000
  H   H930      1.0  0.53234  0.77956  0.66659  1.0000
  H   H931      1.0  0.47150  0.71737  0.67068  1.0000
  H   H932      1.0  0.50175  0.72096  0.69492  1.0000
  H   H933      1.0  0.47685  0.76841  0.72403  1.0000
  H   H934      1.0  0.45622  0.79525  0.70209  1.0000
  H   H935      1.0  0.46941  0.80521  0.65376  1.0000
  H   H936      1.0  0.49367  0.78202  0.63297  1.0000
  H   H937      1.0  0.50302  0.81713  0.71673  1.0000
  H   H938      1.0  0.53854  0.82277  0.69959  1.0000
  H   H939      1.0  0.50518  0.83024  0.67885  1.0000
  H   H940      1.0  0.51507  0.69566  0.64782  1.0000
  H   H941      1.0  0.50580  0.72987  0.62747  1.0000
  H   H942      1.0  0.53730  0.72972  0.65307  1.0000
  H   H943      1.0  0.42250  0.75775  0.72287  1.0000
  H   H944      1.0  0.44433  0.72513  0.71170  1.0000
  H   H945      1.0  0.42404  0.74813  0.68489  1.0000
  H   H946      1.0  0.42656  0.77717  0.64240  1.0000
  H   H947      1.0  0.44568  0.74026  0.63769  1.0000
  H   H948      1.0  0.44938  0.76920  0.61068  1.0000
  H   H949      1.0  0.39767  0.94752  0.85151  1.0000
  H   H950      1.0  0.38740  0.66542  0.48211  1.0000
  C   C547      1.0  0.43706  0.72611  0.52547  1.0000
  C   C548      1.0  0.38519  0.78815  0.49670  1.0000
  H   H951      1.0  0.40340  0.61970  0.63444  1.0000
  C   C549      1.0  0.63771  0.77382  0.67095  1.0000
  H   H952      1.0  0.60355  0.51491  0.83028  1.0000
  H   H953      1.0  0.64982  0.51009  0.66979  1.0000
  H   H954      1.0  0.47246  0.74282  0.55602  1.0000
  H   H955      1.0  0.59508  0.90531  0.65332  1.0000
  C   C550      1.0  0.39864  0.51501  0.83896  1.0000
  C   C551      1.0  0.37018  0.59609  0.78926  1.0000
  H   H956      1.0  0.36366  0.59576  0.89798  1.0000
  S   S170      1.0  0.54760  0.92661  0.71378  1.0000
  C   C552      1.0  0.62125  0.73150  0.46920  1.0000
  C   C553      1.0  0.59315  0.49838  0.81441  1.0000
  C   C554      1.0  0.38491  0.52763  0.86776  1.0000
  C   C555      1.0  0.60030  0.49408  0.63478  1.0000
  C   C556      1.0  0.35861  0.66135  0.58747  1.0000
  C   C557      1.0  0.50001  0.68180  0.48283  1.0000
  C   C558      1.0  0.37721  0.96215  0.85145  1.0000
  H   H957      1.0  0.60223  0.48591  0.76821  1.0000
  C   C559      1.0  0.63806  0.52597  0.95215  1.0000
  H   H958      1.0  0.63638  0.93033  0.66761  1.0000
  H   H959      1.0  0.57138  0.55539  0.81114  1.0000
  H   H960      1.0  0.35287  0.52584  0.75925  1.0000
  C   C560      1.0  0.39605  0.63868  0.62042  1.0000
  H   H961      1.0  0.41879  0.50023  0.84273  1.0000
  H   H962      1.0  0.45555  0.59088  0.89318  1.0000
  H   H963      1.0  0.60342  0.49374  0.65872  1.0000
  C   C561      1.0  0.38886  0.55448  0.91458  1.0000
  H   H964      1.0  0.42915  0.56847  0.85057  1.0000
  H   H965      1.0  0.63530  0.76283  0.60620  1.0000
  H   H966      1.0  0.63187  0.91981  0.91486  1.0000
  H   H967      1.0  0.43815  0.66851  0.54829  1.0000
  H   H968      1.0  0.43428  0.52425  0.94241  1.0000
  H   H969      1.0  0.65067  0.87887  0.65301  1.0000
  S   S171      1.0  0.63010  0.92062  0.74806  1.0000
  H   H970      1.0  0.50658  0.66373  0.49906  1.0000
  H   H971      1.0  0.38232  0.53270  0.92642  1.0000
  H   H972      1.0  0.59876  0.90392  0.93048  1.0000
  H   H973      1.0  0.42609  0.50079  0.89496  1.0000
  H   H974      1.0  0.37567  0.50738  0.88014  1.0000
  H   H975      1.0  0.43012  0.69950  0.47052  1.0000
  H   H976      1.0  0.44690  0.95147  0.87940  1.0000
  H   H977      1.0  0.46933  0.51667  0.92487  1.0000
  S   S172      1.0  0.58100  0.86844  0.77236  1.0000
  H   H978      1.0  0.38292  0.70348  0.67986  1.0000
  N   N41       1.0  0.45301  0.69814  0.51257  1.0000
  H   H979      1.0  0.40396  0.53411  0.82330  1.0000
  H   H980      1.0  0.43482  0.97708  0.83958  1.0000
  H   H981      1.0  0.64501  0.86493  0.47103  1.0000
  C   C562      1.0  0.37718  0.68737  0.58354  1.0000
  S   S173      1.0  0.60945  0.86246  0.70579  1.0000
  H   H982      1.0  0.62734  0.52350  0.93101  1.0000
  H   H983      1.0  0.42026  0.71875  0.54220  1.0000
  H   H984      1.0  0.59032  0.95595  0.91420  1.0000
  Fe  Fe88      1.0  0.62629  0.88737  0.78591  1.0000
  S   S174      1.0  0.58152  0.73059  0.46962  1.0000
  H   H985      1.0  0.57013  0.95585  0.66325  1.0000
  Fe  Fe89      1.0  0.65244  0.88105  0.72426  1.0000
  C   C563      1.0  0.44878  0.53148  0.92375  1.0000
  H   H986      1.0  0.38464  0.61606  0.78578  1.0000
  C   C564      1.0  0.63746  0.87587  0.93742  1.0000
  H   H987      1.0  0.45453  0.79826  0.46492  1.0000
  H   H988      1.0  0.60121  0.80375  0.46096  1.0000
  H   H989      1.0  0.45581  0.55589  0.92716  1.0000
  H   H990      1.0  0.56923  0.53938  0.77531  1.0000
  H   H991      1.0  0.35575  0.73047  0.69583  1.0000
  H   H992      1.0  0.60224  0.91658  0.61545  1.0000
  H   H993      1.0  0.62448  0.86070  0.95265  1.0000
  H   H994      1.0  0.35413  0.61649  0.60858  1.0000
  H   H995      1.0  0.51546  0.55785  0.81403  1.0000
  H   H996      1.0  0.44180  0.66153  0.48150  1.0000
  H   H997      1.0  0.52076  0.51313  0.83753  1.0000
  C   C565      1.0  0.41421  0.80025  0.49177  1.0000
  H   H998      1.0  0.42310  0.81780  0.50639  1.0000
  C   C566      1.0  0.62299  0.90863  0.93517  1.0000
  C   C567      1.0  0.36830  0.63680  0.60562  1.0000
  H   H999      1.0  0.42075  0.60901  0.90578  1.0000
  C   C568      1.0  0.52666  0.55223  0.79296  1.0000
  H   H1000     1.0  0.42374  0.73822  0.50830  1.0000
  C   C569      1.0  0.59294  0.97066  0.93398  1.0000
  H   H1001     1.0  0.61742  0.52325  0.77921  1.0000
  H   H1002     1.0  0.48823  0.67095  0.46402  1.0000
  H   H1003     1.0  0.59691  0.51895  0.62856  1.0000
  H   H1004     1.0  0.64158  0.50046  0.61022  1.0000
  C   C570      1.0  0.45909  0.67386  0.53587  1.0000
  H   H1005     1.0  0.65388  0.96284  0.93658  1.0000
  H   H1006     1.0  0.55526  0.52522  0.85381  1.0000
  H   H1007     1.0  0.64381  0.94698  0.61884  1.0000
  C   C571      1.0  0.58483  0.95469  0.64354  1.0000
  C   C572      1.0  0.61265  0.49898  0.78640  1.0000
  H   H1008     1.0  0.54793  0.49115  0.76668  1.0000
  H   H1009     1.0  0.37251  0.73822  0.66088  1.0000
  H   H1010     1.0  0.65707  0.94839  0.87493  1.0000
  H   H1011     1.0  0.65514  0.78640  0.58028  1.0000
  C   C573      1.0  0.65791  0.76761  0.59696  1.0000
  H   H1012     1.0  0.39321  0.92062  0.95642  1.0000
  C   C574      1.0  0.65816  0.74693  0.66037  1.0000
  H   H1013     1.0  0.65578  0.86226  0.60112  1.0000
  H   H1014     1.0  0.65761  0.84332  0.51731  1.0000
  C   C575      1.0  0.65382  0.95047  0.95805  1.0000
  H   H1015     1.0  0.61379  0.95126  0.69302  1.0000
  H   H1016     1.0  0.58857  0.97124  0.74058  1.0000
  C   C576      1.0  0.54532  0.96731  0.71971  1.0000
  C   C577      1.0  0.33106  0.56957  0.81774  1.0000
  C   C578      1.0  0.36813  0.96344  0.95109  1.0000
  H   H1017     1.0  0.57139  0.96629  0.62620  1.0000
  C   C579      1.0  0.62961  0.95429  0.67423  1.0000
  C   C580      1.0  0.66322  0.82861  0.49802  1.0000
  H   H1018     1.0  0.34830  0.69131  0.63941  1.0000
  C   C581      1.0  0.63491  0.97087  0.62325  1.0000
  H   H1019     1.0  0.59897  0.97882  0.58989  1.0000
  H   H1020     1.0  0.66319  0.73267  0.68022  1.0000
  H   H1021     1.0  0.66126  0.87625  0.94440  1.0000
  C   C582      1.0  0.65856  0.96961  0.68627  1.0000
  C   C583      1.0  0.33239  0.54449  0.79829  1.0000
  C   C584      1.0  0.33813  0.70243  0.65905  1.0000
  H   H1022     1.0  0.63472  0.48774  0.79115  1.0000
  C   C585      1.0  0.51984  0.48396  0.70176  1.0000
  Fe  Fe90      1.0  0.72807  0.39989  0.23842  1.0000
  H   H1023     1.0  0.72548  0.31215  0.44447  1.0000
  S   S175      1.0  0.77079  0.42870  0.24123  1.0000
  Fe  Fe91      1.0  0.70690  0.33784  0.21294  1.0000
  S   S176      1.0  0.71901  0.29237  0.19032  1.0000
  S   S177      1.0  0.73058  0.35028  0.25440  1.0000
  Fe  Fe92      1.0  0.84782  0.17293  0.23164  1.0000
  S   S178      1.0  0.83930  0.14049  0.26937  1.0000
  S   S179      1.0  0.83804  0.22474  0.23415  1.0000
  H   H1024     1.0  0.75702  0.21192  0.30137  1.0000
  H   H1025     1.0  0.76118  0.45196  0.13941  1.0000
  Fe  Fe93      1.0  0.82831  0.10446  0.23503  1.0000
  H   H1026     1.0  0.82503  0.23459  0.08795  1.0000
  C   C586      1.0  0.82049  0.27266  0.14569  1.0000
  Fe  Fe94      1.0  0.88735  0.12557  0.26304  1.0000
  S   S180      1.0  0.91822  0.11943  0.30226  1.0000
  C   C587      1.0  0.85888  0.24287  0.41770  1.0000
  S   S181      1.0  0.89684  0.16036  0.22742  1.0000
  H   H1027     1.0  0.72288  0.47550  0.23694  1.0000
  H   H1028     1.0  0.88293  0.27963  0.37412  1.0000
  H   H1029     1.0  0.84923  0.25337  0.17825  1.0000
  H   H1030     1.0  0.85442  0.48059  0.15285  1.0000
  H   H1031     1.0  0.68584  0.29041  0.26220  1.0000
  H   H1032     1.0  0.85921  0.26539  0.42999  1.0000
  H   H1033     1.0  0.80390  0.46256  0.19187  1.0000
  C   C588      1.0  0.76874  0.27055  0.29795  1.0000
  C   C589      1.0  0.76748  0.45262  0.16288  1.0000
  C   C590      1.0  0.68788  0.02049  0.99367  1.0000
  C   C591      1.0  0.82650  0.20475  0.13994  1.0000
  H   H1034     1.0  0.76535  0.42838  0.17143  1.0000
  N   N42       1.0  0.85521  0.22357  0.14032  1.0000
  C   C592      1.0  0.93665  0.09883  0.14716  1.0000
  C   C593      1.0  0.94717  0.99412  0.13469  1.0000
  S   S182      1.0  0.70788  0.38697  0.19488  1.0000
  C   C594      1.0  0.72543  0.18024  0.28262  1.0000
  H   H1035     1.0  0.81834  0.20079  0.16276  1.0000
  H   H1036     1.0  0.77102  0.26104  0.32037  1.0000
  H   H1037     1.0  0.93959  0.19226  0.43369  1.0000
  H   H1038     1.0  0.73260  0.21243  0.34404  1.0000
  H   H1039     1.0  0.89255  0.01265  0.16759  1.0000
  C   C595      1.0  0.93478  0.15298  0.31792  1.0000
  C   C596      1.0  0.95367  0.14988  0.34249  1.0000
  C   C597      1.0  0.96748  0.17625  0.35506  1.0000
  C   C598      1.0  0.96248  0.20586  0.34300  1.0000
  C   C599      1.0  0.94343  0.20897  0.31862  1.0000
  C   C600      1.0  0.92953  0.18270  0.30620  1.0000
  H   H1040     1.0  0.68479  0.32079  0.38910  1.0000
  N   N43       1.0  0.71868  0.24020  0.28760  1.0000
  H   H1041     1.0  0.93935  0.23182  0.30923  1.0000
  H   H1042     1.0  0.91485  0.18542  0.28747  1.0000
  C   C601      1.0  0.86239  0.98555  0.11689  1.0000
  Fe  Fe95      1.0  0.88138  0.12307  0.19654  1.0000
  H   H1043     1.0  0.73219  0.25465  0.34870  1.0000
  S   S183      1.0  0.78496  0.07660  0.23878  1.0000
  C   C602      1.0  0.93220  0.20919  0.45060  1.0000
  H   H1044     1.0  0.74365  0.16238  0.28216  1.0000
  H   H1045     1.0  0.72370  0.28939  0.29868  1.0000
  H   H1046     1.0  0.84504  0.15682  0.13518  1.0000
  H   H1047     1.0  0.94746  0.09928  0.19317  1.0000
  C   C603      1.0  0.89912  0.21933  0.44654  1.0000
  H   H1048     1.0  0.80957  0.47853  0.08086  1.0000
  H   H1049     1.0  0.68629  0.25890  0.31856  1.0000
  H   H1050     1.0  0.71213  0.17676  0.26232  1.0000
  H   H1051     1.0  0.85172  0.26619  0.08445  1.0000
  H   H1052     1.0  0.82764  0.03194  0.21382  1.0000
  C   C604      1.0  0.87131  0.20049  0.36897  1.0000
  C   C605      1.0  0.85853  0.04288  0.15099  1.0000
  H   H1053     1.0  0.66746  0.47832  0.16036  1.0000
  H   H1054     1.0  0.81220  0.23086  0.42763  1.0000
  C   C606      1.0  0.75226  0.27352  0.20201  1.0000
  C   C607      1.0  0.75548  0.24110  0.19838  1.0000
  C   C608      1.0  0.78148  0.22556  0.20849  1.0000
  C   C609      1.0  0.80461  0.24257  0.22172  1.0000
  C   C610      1.0  0.80161  0.27499  0.22476  1.0000
  C   C611      1.0  0.77552  0.29040  0.21507  1.0000
  H   H1055     1.0  0.73757  0.22793  0.18816  1.0000
  H   H1056     1.0  0.78355  0.20051  0.20617  1.0000
  H   H1057     1.0  0.81951  0.28831  0.23481  1.0000
  H   H1058     1.0  0.77355  0.31543  0.21748  1.0000
  C   C612      1.0  0.70434  0.29853  0.44134  1.0000
  C   C613      1.0  0.87727  0.20612  0.15963  1.0000
  S   S184      1.0  0.83293  0.13857  0.19775  1.0000
  S   S185      1.0  0.90074  0.11606  0.15096  1.0000
  H   H1059     1.0  0.95759  0.00544  0.11527  1.0000
  C   C614      1.0  0.78210  0.03666  0.22928  1.0000
  H   H1060     1.0  0.92185  0.28948  0.37340  1.0000
  H   H1061     1.0  0.75105  0.46682  0.17545  1.0000
  H   H1062     1.0  0.85139  0.05625  0.13146  1.0000
  H   H1063     1.0  0.92116  0.20755  0.18055  1.0000
  C   C615      1.0  0.80636  0.02023  0.21717  1.0000
  H   H1064     1.0  0.88768  0.17909  0.40808  1.0000
  C   C616      1.0  0.89496  0.99096  0.98351  1.0000
  H   H1065     1.0  0.72847  0.25787  0.42528  1.0000
  H   H1066     1.0  0.81545  0.44555  0.15861  1.0000
  H   H1067     1.0  0.87266  0.22170  0.35523  1.0000
  S   S186      1.0  0.87584  0.08649  0.23167  1.0000
  H   H1068     1.0  0.67352  0.20118  0.44214  1.0000
  H   H1069     1.0  0.85610  0.23026  0.06442  1.0000
  Fe  Fe96      1.0  0.68441  0.35768  0.27308  1.0000
  H   H1070     1.0  0.68047  0.37570  0.98968  1.0000
  H   H1071     1.0  0.69731  0.41676  0.96673  1.0000
  C   C617      1.0  0.90025  0.02105  0.09326  1.0000
  H   H1072     1.0  0.80039  0.26091  0.15503  1.0000
  C   C618      1.0  0.82849  0.17267  0.12469  1.0000
  S   S187      1.0  0.68404  0.40880  0.26119  1.0000
  C   C619      1.0  0.68343  0.33728  0.40781  1.0000
  H   H1073     1.0  0.88089  0.04598  0.05621  1.0000
  H   H1074     1.0  0.66738  0.37265  0.37756  1.0000
  N   N44       1.0  0.67781  0.32007  0.43623  1.0000
  H   H1075     1.0  0.84256  0.00112  0.11458  1.0000
  H   H1076     1.0  0.71955  0.28500  0.39697  1.0000
  H   H1077     1.0  0.92003  0.22951  0.14737  1.0000
  C   C620      1.0  0.71068  0.27410  0.41728  1.0000
  H   H1078     1.0  0.77724  0.29495  0.29825  1.0000
  H   H1079     1.0  0.67907  0.00579  0.03806  1.0000
  H   H1080     1.0  0.88420  0.18361  0.14955  1.0000
  S   S188      1.0  0.67678  0.33297  0.31667  1.0000
  C   C621      1.0  0.94263  0.48060  0.00231  1.0000
  C   C622      1.0  0.91178  0.25449  0.40628  1.0000
  H   H1081     1.0  0.83657  0.19734  0.42562  1.0000
  H   H1082     1.0  0.84068  0.47427  0.10528  1.0000
  H   H1083     1.0  0.95780  0.12694  0.35167  1.0000
  H   H1084     1.0  0.70108  0.43620  0.00205  1.0000
  C   C623      1.0  0.84979  0.25527  0.15391  1.0000
  H   H1085     1.0  0.78378  0.25729  0.28301  1.0000
  C   C624      1.0  0.66921  0.01439  0.01792  1.0000
  H   H1086     1.0  0.87845  0.20400  0.10251  1.0000
  C   C625      1.0  0.92458  0.00149  0.98752  1.0000
  H   H1087     1.0  0.80775  0.21729  0.12904  1.0000
  C   C626      1.0  0.94301  0.98859  0.00945  1.0000
  H   H1088     1.0  0.85350  0.03637  0.08250  1.0000
  C   C627      1.0  0.94663  0.09019  0.11912  1.0000
  H   H1089     1.0  0.82096  0.29631  0.15565  1.0000
  C   C628      1.0  0.80016  0.46369  0.16779  1.0000
  H   H1090     1.0  0.80757  0.44976  0.10913  1.0000
  C   C629      1.0  0.73992  0.21294  0.28367  1.0000
  C   C630      1.0  0.69288  0.04250  0.15038  1.0000
  H   H1091     1.0  0.75304  0.21587  0.26300  1.0000
  H   H1092     1.0  0.81757  0.27589  0.12186  1.0000
  H   H1093     1.0  0.91578  0.19832  0.38761  1.0000
  H   H1094     1.0  0.90653  0.04360  0.14566  1.0000
  H   H1095     1.0  0.94666  0.01071  0.15330  1.0000
  S   S189      1.0  0.85510  0.47235  0.97833  1.0000
  H   H1096     1.0  0.93259  0.09494  0.10025  1.0000
  H   H1097     1.0  0.69950  0.02934  0.17038  1.0000
  H   H1098     1.0  0.70227  0.23121  0.36253  1.0000
  C   C631      1.0  0.90680  0.22335  0.16714  1.0000
  H   H1099     1.0  0.90758  0.00480  0.07557  1.0000
  H   H1100     1.0  0.86878  0.27138  0.14890  1.0000
  H   H1101     1.0  0.80624  0.16095  0.12639  1.0000
  C   C632      1.0  0.75141  0.98934  0.22657  1.0000
  C   C633      1.0  0.91253  0.47071  0.99997  1.0000
  H   H1102     1.0  0.88931  0.24204  0.11117  1.0000
  H   H1103     1.0  0.68279  0.21859  0.26229  1.0000
  H   H1104     1.0  0.92078  0.03515  0.09729  1.0000
  C   C634      1.0  0.83513  0.22199  0.43282  1.0000
  C   C635      1.0  0.86915  0.22671  0.11031  1.0000
  H   H1105     1.0  0.93343  0.01962  0.97348  1.0000
  H   H1106     1.0  0.84753  0.19659  0.37543  1.0000
  N   N45       1.0  0.89021  0.22924  0.41592  1.0000
  H   H1107     1.0  0.91091  0.25335  0.35816  1.0000
  H   H1108     1.0  0.70621  0.45717  0.96873  1.0000
  H   H1109     1.0  0.88523  0.19928  0.45420  1.0000
  C   C636      1.0  0.89235  0.20118  0.39592  1.0000
  H   H1110     1.0  0.83374  0.17502  0.10102  1.0000
  H   H1111     1.0  0.86656  0.19984  0.18094  1.0000
  N   N46       1.0  0.89126  0.00365  0.12069  1.0000
  H   H1112     1.0  0.87791  0.18052  0.35478  1.0000
  S   S190      1.0  0.72696  0.01384  0.99688  1.0000
  H   H1113     1.0  0.90266  0.24443  0.18067  1.0000
  H   H1114     1.0  0.84998  0.24898  0.39571  1.0000
  H   H1115     1.0  0.70655  0.03512  0.13129  1.0000
  H   H1116     1.0  0.90414  0.45270  0.01452  1.0000
  C   C637      1.0  0.87711  0.04409  0.08026  1.0000
  C   C638      1.0  0.97445  0.07500  0.11539  1.0000
  C   C639      1.0  0.84916  0.24042  0.08578  1.0000
  C   C640      1.0  0.75462  0.02111  0.23380  1.0000
  C   C641      1.0  0.81574  0.47362  0.10405  1.0000
  H   H1117     1.0  0.84035  0.02672  0.15798  1.0000
  H   H1118     1.0  0.70563  0.34942  0.40855  1.0000
  H   H1119     1.0  0.70935  0.23986  0.24096  1.0000
  C   C642      1.0  0.90588  0.26974  0.37624  1.0000
  H   H1120     1.0  0.66682  0.40934  0.02761  1.0000
  C   C643      1.0  0.95498  0.09275  0.17144  1.0000
  H   H1121     1.0  0.73777  0.27955  0.26369  1.0000
  H   H1122     1.0  0.95737  0.47021  0.01852  1.0000
  C   C644      1.0  0.73595  0.27070  0.28661  1.0000
  H   H1123     1.0  0.91227  0.27362  0.42272  1.0000
  H   H1124     1.0  0.73579  0.03365  0.24323  1.0000
  C   C645      1.0  0.88869  0.02549  0.14660  1.0000
  C   C646      1.0  0.77006  0.46954  0.24628  1.0000
  H   H1125     1.0  0.69065  0.25962  0.41241  1.0000
  H   H1126     1.0  0.87970  0.06763  0.09012  1.0000
  C   C647      1.0  0.80307  0.98853  0.20963  1.0000
  H   H1127     1.0  0.98212  0.17359  0.37385  1.0000
  S   S191      1.0  0.97915  0.23982  0.35757  1.0000
  C   C648      1.0  0.67443  0.26753  0.26102  1.0000
  H   H1128     1.0  0.86119  0.06005  0.16901  1.0000
  C   C649      1.0  0.98327  0.07841  0.16759  1.0000
  H   H1129     1.0  0.81737  0.47134  0.25653  1.0000
  C   C650      1.0  0.69690  0.24001  0.26219  1.0000
  H   H1130     1.0  0.69878  0.06728  0.15463  1.0000
  H   H1131     1.0  0.93522  0.24542  0.40500  1.0000
  H   H1132     1.0  0.98177  0.06827  0.09372  1.0000
  C   C651      1.0  0.70050  0.23769  0.31546  1.0000
  C   C652      1.0  0.67506  0.03154  0.96763  1.0000
  H   H1133     1.0  0.71144  0.17526  0.30221  1.0000
  C   C653      1.0  0.71842  0.23375  0.34405  1.0000
  H   H1134     1.0  0.68471  0.99625  0.10885  1.0000
  H   H1135     1.0  0.68436  0.21789  0.31414  1.0000
  H   H1136     1.0  0.96583  0.99681  0.01206  1.0000
  H   H1137     1.0  0.83751  0.22302  0.45706  1.0000
  C   C654      1.0  0.69273  0.43834  0.97926  1.0000
  C   C655      1.0  0.99295  0.06920  0.13960  1.0000
  H   H1138     1.0  0.94736  0.22975  0.45059  1.0000
  H   H1139     1.0  0.99349  0.26223  0.26320  1.0000
  H   H1140     1.0  0.99487  0.29892  0.28243  1.0000
  H   H1141     1.0  0.89641  0.31871  0.45908  1.0000
  C   C656      1.0  0.66435  0.21434  0.46029  1.0000
  Fe  Fe97      1.0  0.77418  0.47282  0.89992  1.0000
  C   C657      1.0  0.72562  0.43047  0.85508  1.0000
  Fe  Fe98      1.0  0.78395  0.03345  0.89860  1.0000
  C   C658      1.0  0.67255  0.32870  0.49207  1.0000
  S   S192      1.0  0.78445  0.07027  0.86242  1.0000
  H   H1142     1.0  0.87680  0.21763  0.69177  1.0000
  H   H1143     1.0  0.98148  0.04996  0.57726  1.0000
  H   H1144     1.0  0.70423  0.45821  0.59903  1.0000
  S   S193      1.0  0.74301  0.00491  0.91013  1.0000
  H   H1145     1.0  0.91262  0.01272  0.65408  1.0000
  H   H1146     1.0  0.73807  0.39418  0.82474  1.0000
  Fe  Fe99      1.0  0.80676  0.28297  0.51999  1.0000
  S   S194      1.0  0.79918  0.23156  0.52644  1.0000
  H   H1147     1.0  0.90479  0.01920  0.60319  1.0000
  Fe  Fe100     1.0  0.74850  0.30108  0.55202  1.0000
  S   S195      1.0  0.73701  0.25116  0.56111  1.0000
  S   S196      1.0  0.71227  0.33638  0.56268  1.0000
  Fe  Fe101     1.0  0.78602  0.24570  0.57229  1.0000
  S   S197      1.0  0.79665  0.22391  0.61633  1.0000
  Fe  Fe102     1.0  0.75086  0.24235  0.51465  1.0000
  H   H1148     1.0  0.98752  0.44504  0.74872  1.0000
  S   S198      1.0  0.79666  0.29675  0.56662  1.0000
  S   S199      1.0  0.75955  0.29260  0.50481  1.0000
  H   H1149     1.0  0.66543  0.29684  0.66580  1.0000
  Fe  Fe103     1.0  0.91729  0.10421  0.74438  1.0000
  S   S200      1.0  0.93354  0.08076  0.70321  1.0000
  S   S201      1.0  0.89564  0.06827  0.77438  1.0000
  Fe  Fe104     1.0  0.94851  0.16548  0.72760  1.0000
  S   S202      1.0  0.96748  0.14572  0.68621  1.0000
  C   C659      1.0  0.91377  0.27103  0.62870  1.0000
  Fe  Fe105     1.0  0.92147  0.12529  0.68024  1.0000
  S   S203      1.0  0.90259  0.12624  0.63421  1.0000
  H   H1150     1.0  0.87522  0.29044  0.60534  1.0000
  S   S204      1.0  0.84359  0.30214  0.49082  1.0000
  S   S205      1.0  0.90138  0.14729  0.72035  1.0000
  S   S206      1.0  0.96272  0.12446  0.75550  1.0000
  Fe  Fe106     1.0  0.97786  0.10301  0.71312  1.0000
  C   C660      1.0  0.88158  0.29187  0.49639  1.0000
  H   H1151     1.0  0.91966  0.19971  0.66401  1.0000
  H   H1152     1.0  0.86654  0.25461  0.62331  1.0000
  C   C661      1.0  0.68070  0.34773  0.61300  1.0000
  C   C662      1.0  0.82529  0.19566  0.62014  1.0000
  C   C663      1.0  0.83055  0.18277  0.64797  1.0000
  C   C664      1.0  0.85373  0.16088  0.65224  1.0000
  C   C665      1.0  0.87190  0.15177  0.62871  1.0000
  C   C666      1.0  0.86637  0.16427  0.60072  1.0000
  C   C667      1.0  0.84320  0.18633  0.59645  1.0000
  H   H1153     1.0  0.81674  0.18981  0.66635  1.0000
  H   H1154     1.0  0.85747  0.15106  0.67376  1.0000
  H   H1155     1.0  0.88032  0.15728  0.58241  1.0000
  H   H1156     1.0  0.83924  0.19614  0.57491  1.0000
  C   C668      1.0  0.70898  0.34834  0.59930  1.0000
  C   C669      1.0  0.73379  0.36030  0.61437  1.0000
  H   H1157     1.0  0.74918  0.38262  0.65392  1.0000
  C   C670      1.0  0.95510  0.24928  0.65816  1.0000
  H   H1158     1.0  0.73514  0.20963  0.64485  1.0000
  H   H1159     1.0  0.69262  0.31558  0.49974  1.0000
  H   H1160     1.0  0.75562  0.36104  0.60379  1.0000
  H   H1161     1.0  0.77299  0.00357  0.83378  1.0000
  C   C671      1.0  0.67360  0.29070  0.68802  1.0000
  C   C672      1.0  0.73008  0.37257  0.64267  1.0000
  C   C673      1.0  0.92108  0.26363  0.52220  1.0000
  C   C674      1.0  0.89054  0.27206  0.51926  1.0000
  C   C675      1.0  0.98989  0.23443  0.72766  1.0000
  H   H1162     1.0  0.92795  0.24823  0.53981  1.0000
  H   H1163     1.0  0.87391  0.26316  0.53448  1.0000
  C   C676      1.0  0.81427  0.06975  0.83655  1.0000
  C   C677      1.0  0.82157  0.09686  0.82056  1.0000
  C   C678      1.0  0.84618  0.09701  0.80088  1.0000
  C   C679      1.0  0.86326  0.06983  0.79685  1.0000
  C   C680      1.0  0.85528  0.04264  0.81212  1.0000
  C   C681      1.0  0.83111  0.04265  0.83192  1.0000
  H   H1164     1.0  0.80857  0.11796  0.82385  1.0000
  H   H1165     1.0  0.85210  0.11811  0.78913  1.0000
  H   H1166     1.0  0.86825  0.02148  0.80899  1.0000
  H   H1167     1.0  0.82557  0.02155  0.84346  1.0000
  H   H1168     1.0  0.83330  0.44532  0.80564  1.0000
  H   H1169     1.0  0.94003  0.45817  0.76991  1.0000
  C   C682      1.0  0.94257  0.27441  0.50193  1.0000
  C   C683      1.0  0.93853  0.05488  0.61572  1.0000
  H   H1170     1.0  0.85357  0.09663  0.92603  1.0000
  C   C684      1.0  0.67005  0.46829  0.64980  1.0000
  H   H1171     1.0  0.94882  0.46517  0.71518  1.0000
  C   C685      1.0  0.69083  0.40533  0.82132  1.0000
  C   C686      1.0  0.93354  0.29424  0.47920  1.0000
  C   C687      1.0  0.72015  0.27147  0.63984  1.0000
  C   C688      1.0  0.90773  0.22051  0.65498  1.0000
  H   H1172     1.0  0.89422  0.05876  0.59602  1.0000
  H   H1173     1.0  0.95389  0.07845  0.88018  1.0000
  H   H1174     1.0  0.94739  0.26397  0.67680  1.0000
  H   H1175     1.0  0.72745  0.02852  0.85112  1.0000
  H   H1176     1.0  0.96000  0.09399  0.92827  1.0000
  H   H1177     1.0  0.84161  0.06768  0.89966  1.0000
  N   N47       1.0  0.92912  0.24127  0.63830  1.0000
  H   H1178     1.0  0.68615  0.25049  0.52298  1.0000
  H   H1179     1.0  0.88996  0.04205  0.86224  1.0000
  H   H1180     1.0  0.92115  0.04037  0.57262  1.0000
  H   H1181     1.0  0.89643  0.06693  0.93746  1.0000
  H   H1182     1.0  0.72354  0.18564  0.67495  1.0000
  C   C689      1.0  0.89117  0.23562  0.68113  1.0000
  C   C690      1.0  0.70175  0.37222  0.65629  1.0000
  H   H1183     1.0  0.68899  0.43780  0.56867  1.0000
  H   H1184     1.0  0.97832  0.46094  0.80571  1.0000
  H   H1185     1.0  0.90864  0.28618  0.64787  1.0000
  C   C691      1.0  0.71729  0.23533  0.68337  1.0000
  C   C692      1.0  0.95914  0.19474  0.61692  1.0000
  C   C693      1.0  0.73466  0.20802  0.66910  1.0000
  H   H1186     1.0  0.88034  0.03580  0.89865  1.0000
  C   C694      1.0  0.89913  0.04444  0.88476  1.0000
  C   C695      1.0  0.93534  0.00371  0.65966  1.0000
  S   S207      1.0  0.81493  0.99248  0.89570  1.0000
  S   S208      1.0  0.79499  0.04318  0.94586  1.0000
  C   C696      1.0  0.91347  0.04210  0.59571  1.0000
  H   H1187     1.0  0.94633  0.17648  0.62875  1.0000
  C   C697      1.0  0.72695  0.01731  0.82921  1.0000
  C   C698      1.0  0.95647  0.00265  0.63277  1.0000
  H   H1188     1.0  0.66899  0.34780  0.50815  1.0000
  C   C699      1.0  0.90321  0.30318  0.47664  1.0000
  H   H1189     1.0  0.93485  0.19787  0.47241  1.0000
  H   H1190     1.0  0.87601  0.25486  0.67425  1.0000
  H   H1191     1.0  0.76308  0.32346  0.68448  1.0000
  H   H1192     1.0  0.91165  0.47489  0.72696  1.0000
  C   C700      1.0  0.70822  0.29166  0.68974  1.0000
  H   H1193     1.0  0.94706  0.02898  0.88237  1.0000
  H   H1194     1.0  0.69738  0.23450  0.61496  1.0000
  C   C701      1.0  0.99272  0.26710  0.72779  1.0000
  H   H1195     1.0  0.75812  0.20648  0.67739  1.0000
  H   H1196     1.0  0.92037  0.00033  0.87360  1.0000
  H   H1197     1.0  0.98021  0.19986  0.62893  1.0000
  H   H1198     1.0  0.95255  0.23986  0.59642  1.0000
  C   C702      1.0  0.67276  0.44523  0.85445  1.0000
  C   C703      1.0  0.70203  0.44897  0.86571  1.0000
  C   C704      1.0  0.93565  0.48202  0.72848  1.0000
  H   H1199     1.0  0.88836  0.25490  0.58978  1.0000
  Fe  Fe107     1.0  0.75742  0.00992  0.95705  1.0000
  H   H1200     1.0  0.92017  0.21591  0.59818  1.0000
  H   H1201     1.0  0.97590  0.05382  0.66196  1.0000
  H   H1202     1.0  0.78453  0.01092  0.78436  1.0000
  Fe  Fe108     1.0  0.82421  0.00034  0.94345  1.0000
  C   C705      1.0  0.94411  0.07560  0.93569  1.0000
  S   S209      1.0  0.77518  0.46872  0.94889  1.0000
  N   N48       1.0  0.96541  0.03380  0.61982  1.0000
  H   H1203     1.0  0.94476  0.01763  0.67778  1.0000
  H   H1204     1.0  0.95278  0.05239  0.92941  1.0000
  C   C706      1.0  0.71991  0.40862  0.83295  1.0000
  C   C707      1.0  0.67160  0.24191  0.50591  1.0000
  S   S210      1.0  0.95459  0.21729  0.73553  1.0000
  H   H1205     1.0  0.89033  0.21109  0.64008  1.0000
  H   H1206     1.0  0.99261  0.25338  0.62631  1.0000
  C   C708      1.0  0.68362  0.22487  0.48259  1.0000
  C   C709      1.0  0.99227  0.47752  0.66628  1.0000
  C   C710      1.0  0.77161  0.30451  0.67014  1.0000
  C   C711      1.0  0.88440  0.26700  0.61089  1.0000
  H   H1207     1.0  0.96573  0.18455  0.59547  1.0000
  H   H1208     1.0  0.96458  0.22782  0.66854  1.0000
  H   H1209     1.0  0.67338  0.47502  0.57793  1.0000
  H   H1210     1.0  0.70397  0.00766  0.82643  1.0000
  H   H1211     1.0  0.97416  0.29003  0.63474  1.0000
  H   H1212     1.0  0.76344  0.26833  0.70225  1.0000
  C   C712      1.0  0.66712  0.42341  0.83222  1.0000
  H   H1213     1.0  0.92827  0.06115  0.63721  1.0000
  H   H1214     1.0  0.68668  0.38834  0.80434  1.0000
  H   H1215     1.0  0.73112  0.03625  0.81312  1.0000
  H   H1216     1.0  0.81409  0.46084  0.83729  1.0000
  H   H1217     1.0  0.96559  0.01242  0.57681  1.0000
  C   C713      1.0  0.67722  0.35905  0.64166  1.0000
  H   H1218     1.0  0.72817  0.45106  0.78682  1.0000
  H   H1219     1.0  0.97656  0.03237  0.72187  1.0000
  H   H1220     1.0  0.69306  0.23017  0.68062  1.0000
  C   C714      1.0  0.93973  0.22409  0.61134  1.0000
  C   C715      1.0  0.99634  0.02022  0.71404  1.0000
  H   H1221     1.0  0.92899  0.28515  0.61454  1.0000
  C   C716      1.0  0.99570  0.98767  0.71051  1.0000
  S   S211      1.0  0.69763  0.38936  0.69107  1.0000
  H   H1222     1.0  0.90694  0.24403  0.69814  1.0000
  H   H1223     1.0  0.91154  0.10322  0.83211  1.0000
  H   H1224     1.0  0.70624  0.46576  0.88288  1.0000
  S   S212      1.0  0.72270  0.21725  0.48075  1.0000
  H   H1225     1.0  0.71967  0.29665  0.63400  1.0000
  H   H1226     1.0  0.79643  0.30381  0.67313  1.0000
  C   C717      1.0  0.69151  0.25634  0.62676  1.0000
  S   S213      1.0  0.76260  0.43409  0.86849  1.0000
  H   H1227     1.0  0.77245  0.25508  0.66645  1.0000
  C   C718      1.0  0.81902  0.46481  0.81370  1.0000
  N   N49       1.0  0.72536  0.26750  0.67235  1.0000
  N   N50       1.0  0.90623  0.07797  0.89196  1.0000
  C   C719      1.0  0.87903  0.09747  0.88397  1.0000
  C   C720      1.0  0.93253  0.09036  0.87446  1.0000
  C   C721      1.0  0.91190  0.08197  0.92442  1.0000
  H   H1228     1.0  0.71437  0.29018  0.71340  1.0000
  C   C722      1.0  0.85032  0.09171  0.90241  1.0000
  C   C723      1.0  0.92968  0.08800  0.84086  1.0000
  H   H1229     1.0  0.92620  0.06362  0.83353  1.0000
  H   H1230     1.0  0.97332  0.28145  0.73281  1.0000
  H   H1231     1.0  0.88426  0.12286  0.88562  1.0000
  H   H1232     1.0  0.87234  0.09351  0.86081  1.0000
  H   H1233     1.0  0.72108  0.23374  0.70750  1.0000
  H   H1234     1.0  0.93644  0.11541  0.87985  1.0000
  H   H1235     1.0  0.71435  0.31560  0.68259  1.0000
  S   S214      1.0  0.98062  0.26314  0.50547  1.0000
  H   H1236     1.0  0.95093  0.09619  0.83052  1.0000
  C   C724      1.0  0.76504  0.99685  0.77648  1.0000
  C   C725      1.0  0.75848  0.27232  0.67857  1.0000
  C   C726      1.0  0.92457  0.02025  0.88860  1.0000
  H   H1237     1.0  0.90677  0.10638  0.93129  1.0000
  H   H1238     1.0  0.83228  0.10771  0.89460  1.0000
  C   C727      1.0  0.98141  0.26716  0.64372  1.0000
  C   C728      1.0  0.97989  0.02806  0.59038  1.0000
  H   H1239     1.0  0.94543  0.07767  0.60601  1.0000
  H   H1240     1.0  0.74753  0.01487  0.77220  1.0000
  H   H1241     1.0  0.77343  0.45084  0.80765  1.0000
  C   C729      1.0  0.78952  0.46620  0.79575  1.0000
  H   H1242     1.0  0.68493  0.44914  0.65805  1.0000
  C   C730      1.0  0.75152  0.99171  0.82811  1.0000
  H   H1243     1.0  0.92506  0.01113  0.91143  1.0000
  H   H1244     1.0  0.79298  0.45386  0.77456  1.0000
  H   H1245     1.0  0.73950  0.26148  0.62738  1.0000
  H   H1246     1.0  0.97239  0.46550  0.65859  1.0000
  H   H1247     1.0  0.76756  0.31043  0.64679  1.0000
  H   H1248     1.0  0.70275  0.47749  0.76978  1.0000
  H   H1249     1.0  0.66436  0.30887  0.70288  1.0000
  C   C731      1.0  0.72223  0.47612  0.78500  1.0000
  H   H1250     1.0  0.79013  0.99891  0.73557  1.0000
  S   S215      1.0  0.87335  0.00821  0.95525  1.0000
  H   H1251     1.0  0.69905  0.35621  0.46200  1.0000
  C   C732      1.0  0.67744  0.34299  0.46129  1.0000
  C   C733      1.0  0.68287  0.45323  0.58732  1.0000
  H   H1252     1.0  0.68211  0.27225  0.60974  1.0000
  H   H1253     1.0  0.67312  0.25151  0.64239  1.0000
  C   C734      1.0  0.94511  0.48190  0.76109  1.0000
  H   H1254     1.0  0.94996  0.30308  0.46378  1.0000
  H   H1255     1.0  0.98401  0.10061  0.63765  1.0000
  H   H1256     1.0  0.94532  0.98765  0.61613  1.0000
  C   C735      1.0  0.98695  0.04945  0.64056  1.0000
  H   H1257     1.0  0.97679  0.98927  0.63981  1.0000
  H   H1258     1.0  0.89472  0.23843  0.46247  1.0000
  H   H1259     1.0  0.68928  0.03644  0.94890  1.0000
  H   H1260     1.0  0.67255  0.41574  0.61690  1.0000
  H   H1261     1.0  0.70133  0.28481  0.46187  1.0000
  H   H1262     1.0  0.94391  0.07634  0.96005  1.0000
  C   C736      1.0  0.77305  0.98355  0.74607  1.0000
  Fe  Fe109     1.0  0.73161  0.90407  0.21732  1.0000
  S   S216      1.0  0.70650  0.88135  0.18026  1.0000
  S   S217      1.0  0.77249  0.93309  0.20469  1.0000
  Fe  Fe110     1.0  0.71208  0.83681  0.20621  1.0000
  S   S218      1.0  0.72458  0.78945  0.18755  1.0000
  S   S219      1.0  0.73972  0.85887  0.24123  1.0000
  Fe  Fe111     1.0  0.84672  0.66406  0.23292  1.0000
  S   S220      1.0  0.83427  0.63953  0.27478  1.0000
  S   S221      1.0  0.84034  0.71660  0.23247  1.0000
  H   H1263     1.0  0.95469  0.52844  0.04122  1.0000
  C   C737      1.0  0.86833  0.75209  0.43101  1.0000
  C   C738      1.0  0.89947  0.69543  0.37230  1.0000
  C   C739      1.0  0.77209  0.53531  0.25022  1.0000
  H   H1264     1.0  0.95935  0.54583  0.07577  1.0000
  Fe  Fe112     1.0  0.88024  0.61791  0.27134  1.0000
  S   S222      1.0  0.90954  0.60990  0.31137  1.0000
  Fe  Fe113     1.0  0.66539  0.88969  0.20789  1.0000
  S   S223      1.0  0.89400  0.64450  0.23103  1.0000
  H   H1265     1.0  0.86054  0.66664  0.38887  1.0000
  H   H1266     1.0  0.87814  0.94460  0.09138  1.0000
  N   N51       1.0  0.66824  0.83262  0.44166  1.0000
  H   H1267     1.0  0.66844  0.53870  0.15821  1.0000
  C   C740      1.0  0.89312  0.48415  0.97911  1.0000
  H   H1268     1.0  0.96409  0.61734  0.06554  1.0000
  C   C741      1.0  0.94189  0.53884  0.05977  1.0000
  H   H1269     1.0  0.84956  0.52096  0.14733  1.0000
  H   H1270     1.0  0.92964  0.65254  0.40650  1.0000
  H   H1271     1.0  0.68772  0.92194  0.98157  1.0000
  C   C742      1.0  0.94077  0.54835  0.14485  1.0000
  H   H1272     1.0  0.93087  0.58789  0.09241  1.0000
  H   H1273     1.0  0.87108  0.61012  0.06760  1.0000
  H   H1274     1.0  0.71925  0.70042  0.27096  1.0000
  C   C743      1.0  0.92820  0.57566  0.15662  1.0000
  H   H1275     1.0  0.88585  0.77047  0.43111  1.0000
  H   H1276     1.0  0.94453  0.77700  0.37799  1.0000
  H   H1277     1.0  0.92292  0.51635  0.24123  1.0000
  C   C744      1.0  0.70186  0.77335  0.26614  1.0000
  S   S224      1.0  0.89031  0.57519  0.16802  1.0000
  H   H1278     1.0  0.90522  0.53433  0.01816  1.0000
  C   C745      1.0  0.68250  0.96822  0.16177  1.0000
  C   C746      1.0  0.93726  0.63734  0.32137  1.0000
  C   C747      1.0  0.95320  0.63311  0.34769  1.0000
  C   C748      1.0  0.97579  0.65432  0.35605  1.0000
  H   H1279     1.0  0.86914  0.73875  0.45185  1.0000
  C   C749      1.0  0.96728  0.68348  0.31130  1.0000
  C   C750      1.0  0.94423  0.66272  0.30329  1.0000
  H   H1280     1.0  0.94808  0.61333  0.36164  1.0000
  C   C751      1.0  0.91244  0.58351  0.07643  1.0000
  H   H1281     1.0  0.73022  0.97761  0.23041  1.0000
  H   H1282     1.0  0.93214  0.66619  0.28298  1.0000
  H   H1283     1.0  0.89775  0.62914  0.09141  1.0000
  C   C752      1.0  0.90247  0.95401  0.02346  1.0000
  C   C753      1.0  0.70764  0.79817  0.41452  1.0000
  H   H1284     1.0  0.90475  0.62879  0.05350  1.0000
  H   H1285     1.0  0.72988  0.79098  0.33550  1.0000
  H   H1286     1.0  0.94577  0.59820  0.22176  1.0000
  C   C754      1.0  0.93184  0.66939  0.42472  1.0000
  S   S225      1.0  0.95465  0.94879  0.05575  1.0000
  H   H1287     1.0  0.93576  0.62422  0.16614  1.0000
  H   H1288     1.0  0.72813  0.78412  0.41939  1.0000
  H   H1289     1.0  0.86543  0.74445  0.38426  1.0000
  N   N52       1.0  0.80787  0.49570  0.15609  1.0000
  C   C755      1.0  0.92639  0.73583  0.39959  1.0000
  C   C756      1.0  0.97461  0.60314  0.14534  1.0000
  C   C757      1.0  0.84115  0.50100  0.16071  1.0000
  C   C758      1.0  0.87074  0.73039  0.40417  1.0000
  H   H1290     1.0  0.76477  0.51593  0.16776  1.0000
  H   H1291     1.0  0.92775  0.52702  0.14470  1.0000
  H   H1292     1.0  0.78131  0.56177  0.14552  1.0000
  C   C759      1.0  0.75516  0.76801  0.20224  1.0000
  C   C760      1.0  0.76088  0.73754  0.19229  1.0000
  C   C761      1.0  0.78632  0.72083  0.20220  1.0000
  C   C762      1.0  0.80648  0.73482  0.22168  1.0000
  C   C763      1.0  0.80048  0.76499  0.23194  1.0000
  C   C764      1.0  0.77477  0.78133  0.22260  1.0000
  H   H1293     1.0  0.74584  0.72699  0.17653  1.0000
  H   H1294     1.0  0.79082  0.69757  0.19407  1.0000
  H   H1295     1.0  0.81597  0.77589  0.24707  1.0000
  H   H1296     1.0  0.77081  0.80461  0.23049  1.0000
  H   H1297     1.0  0.76949  0.79611  0.33673  1.0000
  C   C765      1.0  0.66588  0.53273  0.00658  1.0000
  H   H1298     1.0  0.71674  0.83167  0.44852  1.0000
  C   C766      1.0  0.76678  0.69507  0.27929  1.0000
  S   S226      1.0  0.77332  0.57655  0.25006  1.0000
  H   H1299     1.0  0.98810  0.65079  0.37626  1.0000
  H   H1300     1.0  0.68207  0.71976  0.42482  1.0000
  H   H1301     1.0  0.70135  0.75866  0.24614  1.0000
  H   H1302     1.0  0.93311  0.65556  0.44533  1.0000
  H   H1303     1.0  0.89664  0.56846  0.08901  1.0000
  H   H1304     1.0  0.90469  0.77853  0.38184  1.0000
  H   H1305     1.0  0.74257  0.72984  0.25555  1.0000
  H   H1306     1.0  0.72460  0.53352  0.24049  1.0000
  H   H1307     1.0  0.84501  0.48686  0.20730  1.0000
  H   H1308     1.0  0.68107  0.78774  0.26582  1.0000
  S   S227      1.0  0.69013  0.91514  0.24382  1.0000
  Fe  Fe114     1.0  0.87343  0.60477  0.20586  1.0000
  H   H1309     1.0  0.92255  0.55304  0.22285  1.0000
  C   C767      1.0  0.94535  0.60300  0.15727  1.0000
  H   H1310     1.0  0.95348  0.68208  0.42276  1.0000
  H   H1311     1.0  0.77139  0.68339  0.25800  1.0000
  H   H1312     1.0  0.71383  0.81457  0.39664  1.0000
  H   H1313     1.0  0.71443  0.71535  0.37406  1.0000
  H   H1314     1.0  0.90851  0.50045  0.05853  1.0000
  C   C768      1.0  0.92391  0.51200  0.07424  1.0000
  N   N53       1.0  0.90028  0.71334  0.40070  1.0000
  H   H1315     1.0  0.80844  0.52163  0.11531  1.0000
  Fe  Fe115     1.0  0.81862  0.60048  0.24570  1.0000
  H   H1316     1.0  0.98680  0.58333  0.05728  1.0000
  C   C769      1.0  0.85102  0.50659  0.19268  1.0000
  H   H1317     1.0  0.83873  0.95223  0.08947  1.0000
  C   C770      1.0  0.90470  0.69185  0.42662  1.0000
  N   N54       1.0  0.82062  0.83814  0.16582  1.0000
  C   C771      1.0  0.82113  0.80388  0.15775  1.0000
  C   C772      1.0  0.78814  0.84858  0.16523  1.0000
  C   C773      1.0  0.83334  0.84134  0.19639  1.0000
  C   C774      1.0  0.83979  0.85536  0.14376  1.0000
  C   C775      1.0  0.85102  0.78624  0.16325  1.0000
  C   C776      1.0  0.77203  0.84530  0.13546  1.0000
  C   C777      1.0  0.82524  0.87111  0.21364  1.0000
  C   C778      1.0  0.83991  0.89138  0.14510  1.0000
  H   H1318     1.0  0.80341  0.79085  0.16988  1.0000
  H   H1319     1.0  0.81569  0.80052  0.13415  1.0000
  H   H1320     1.0  0.78531  0.87320  0.17208  1.0000
  H   H1321     1.0  0.77482  0.83515  0.18168  1.0000
  H   H1322     1.0  0.82549  0.82174  0.21053  1.0000
  H   H1323     1.0  0.85837  0.83962  0.19602  1.0000
  H   H1324     1.0  0.86377  0.84818  0.14591  1.0000
  H   H1325     1.0  0.83417  0.84851  0.12087  1.0000
  H   H1326     1.0  0.84873  0.76198  0.15494  1.0000
  H   H1327     1.0  0.87029  0.79700  0.15159  1.0000
  H   H1328     1.0  0.85614  0.78405  0.18699  1.0000
  H   H1329     1.0  0.76894  0.82046  0.12932  1.0000
  H   H1330     1.0  0.74907  0.85540  0.13723  1.0000
  H   H1331     1.0  0.78376  0.85821  0.11773  1.0000
  H   H1332     1.0  0.80114  0.87125  0.22002  1.0000
  H   H1333     1.0  0.83058  0.89294  0.20186  1.0000
  H   H1334     1.0  0.83827  0.87142  0.23441  1.0000
  H   H1335     1.0  0.85817  0.89985  0.15967  1.0000
  H   H1336     1.0  0.81829  0.90189  0.15199  1.0000
  H   H1337     1.0  0.84391  0.90083  0.12273  1.0000
  H   H1338     1.0  0.94767  0.55299  0.27266  1.0000
  C   C779      1.0  0.69805  0.81545  0.44273  1.0000
  H   H1339     1.0  0.92233  0.68662  0.36684  1.0000
  H   H1340     1.0  0.92209  0.75378  0.35426  1.0000
  C   C780      1.0  0.96275  0.60107  0.23943  1.0000
  C   C781      1.0  0.66710  0.49366  0.17988  1.0000
  H   H1341     1.0  0.87592  0.50905  0.19337  1.0000
  C   C782      1.0  0.78915  0.51952  0.17211  1.0000
  H   H1342     1.0  0.70134  0.98037  0.15084  1.0000
  S   S228      1.0  0.66821  0.84288  0.23001  1.0000
  H   H1343     1.0  0.77627  0.49799  0.11983  1.0000
  H   H1344     1.0  0.94766  0.72333  0.39408  1.0000
  H   H1345     1.0  0.76321  0.67605  0.29549  1.0000
  H   H1346     1.0  0.82194  0.97597  0.20037  1.0000
  C   C783      1.0  0.99554  0.56408  0.21371  1.0000
  C   C784      1.0  0.94468  0.58680  0.03138  1.0000
  C   C785      1.0  0.68375  0.52967  0.98132  1.0000
  C   C786      1.0  0.74485  0.51996  0.24408  1.0000
  H   H1347     1.0  0.96250  0.97477  0.14115  1.0000
  C   C787      1.0  0.97154  0.60124  0.04795  1.0000
  H   H1348     1.0  0.89337  0.71109  0.35370  1.0000
  C   C788      1.0  0.88423  0.57741  0.00833  1.0000
  H   H1349     1.0  0.89399  0.93526  0.03706  1.0000
  C   C789      1.0  0.97010  0.54843  0.13321  1.0000
  H   H1350     1.0  0.93277  0.60662  0.02089  1.0000
  C   C790      1.0  0.89797  0.55491  0.03116  1.0000
  S   S229      1.0  0.82741  0.62686  0.20388  1.0000
  H   H1351     1.0  0.94003  0.49382  0.08184  1.0000
  H   H1352     1.0  0.97290  0.70280  0.29697  1.0000
  H   H1353     1.0  0.69086  0.49669  0.18695  1.0000
  H   H1354     1.0  0.71016  0.69851  0.32380  1.0000
  C   C791      1.0  0.79810  0.51758  0.25506  1.0000
  H   H1355     1.0  0.90003  0.58133  0.98977  1.0000
  H   H1356     1.0  0.87719  0.60001  0.01772  1.0000
  H   H1357     1.0  0.91102  0.51976  0.09367  1.0000
  H   H1358     1.0  0.97823  0.56314  0.19622  1.0000
  C   C792      1.0  0.96092  0.54573  0.25309  1.0000
  C   C793      1.0  0.75716  0.75984  0.30545  1.0000
  H   H1359     1.0  0.69027  0.78154  0.40689  1.0000
  H   H1360     1.0  0.94942  0.60588  0.25959  1.0000
  C   C794      1.0  0.93204  0.96484  0.02756  1.0000
  H   H1361     1.0  0.86529  0.66752  0.35003  1.0000
  C   C795      1.0  0.87763  0.66727  0.37124  1.0000
  C   C796      1.0  0.70195  0.75337  0.29430  1.0000
  C   C797      1.0  0.79708  0.48486  0.25300  1.0000
  N   N55       1.0  0.98134  0.57176  0.24286  1.0000
  H   H1362     1.0  0.77627  0.74813  0.31688  1.0000
  C   C798      1.0  0.89542  0.61444  0.07149  1.0000
  H   H1363     1.0  0.68021  0.94429  0.15272  1.0000
  H   H1364     1.0  0.87922  0.54643  0.04533  1.0000
  H   H1365     1.0  0.84154  0.52861  0.20153  1.0000
  Fe  Fe116     1.0  0.69569  0.86737  0.26395  1.0000
  H   H1366     1.0  0.97420  0.52511  0.26054  1.0000
  N   N56       1.0  0.73137  0.73732  0.30140  1.0000
  H   H1367     1.0  0.81903  0.52902  0.26030  1.0000
  H   H1368     1.0  0.86383  0.56636  0.99879  1.0000
  C   C799      1.0  0.80100  0.49848  0.12385  1.0000
  H   H1369     1.0  0.90930  0.96518  0.14637  1.0000
  H   H1370     1.0  0.89043  0.64496  0.37139  1.0000
  S   S230      1.0  0.86341  0.57647  0.24615  1.0000
  H   H1371     1.0  0.74853  0.70442  0.33362  1.0000
  H   H1372     1.0  0.95397  0.57300  0.01269  1.0000
  H   H1373     1.0  0.69423  0.76889  0.31212  1.0000
  H   H1374     1.0  0.81916  0.55918  0.15955  1.0000
  C   C800      1.0  0.73864  0.71607  0.27591  1.0000
  C   C801      1.0  0.77565  0.97292  0.21447  1.0000
  H   H1375     1.0  0.74938  0.81056  0.30611  1.0000
  C   C802      1.0  0.99598  0.58966  0.29504  1.0000
  H   H1376     1.0  0.69642  0.74630  0.35492  1.0000
  H   H1377     1.0  0.86113  0.95871  0.99852  1.0000
  N   N57       1.0  0.92383  0.56676  0.04957  1.0000
  H   H1378     1.0  0.88426  0.67757  0.43093  1.0000
  H   H1379     1.0  0.94821  0.52263  0.21141  1.0000
  C   C803      1.0  0.75042  0.79071  0.32185  1.0000
  H   H1380     1.0  0.76624  0.76695  0.28369  1.0000
  H   H1381     1.0  0.97233  0.58464  0.30097  1.0000
  S   S231      1.0  0.69226  0.84870  0.31029  1.0000
  S   S232      1.0  0.72332  0.52937  0.98527  1.0000
  H   H1382     1.0  0.69793  0.79736  0.46026  1.0000
  C   C804      1.0  0.79526  0.55411  0.16443  1.0000
  H   H1383     1.0  0.73613  0.74875  0.36507  1.0000
  C   C805      1.0  0.92376  0.76262  0.37701  1.0000
  H   H1384     1.0  0.85172  0.71367  0.40615  1.0000
  C   C806      1.0  0.86119  0.96358  0.09019  1.0000
  H   H1385     1.0  0.69026  0.87098  0.41934  1.0000
  C   C807      1.0  0.98299  0.67949  0.33776  1.0000
  H   H1386     1.0  0.78965  0.56878  0.18375  1.0000
  C   C808      1.0  0.72729  0.71696  0.32818  1.0000
  C   C809      1.0  0.66997  0.85591  0.41682  1.0000
  H   H1387     1.0  0.93060  0.74642  0.42148  1.0000
  H   H1388     1.0  0.67266  0.84381  0.39547  1.0000
  H   H1389     1.0  0.90806  0.70557  0.44701  1.0000
  H   H1390     1.0  0.84620  0.76425  0.43060  1.0000
  C   C810      1.0  0.88384  0.96718  0.00161  1.0000
  H   H1391     1.0  0.78728  0.70857  0.28482  1.0000
  C   C811      1.0  0.93756  0.53409  0.23057  1.0000
  H   H1392     1.0  0.96416  0.65099  0.23106  1.0000
  H   H1393     1.0  0.67655  0.53555  0.02771  1.0000
  C   C812      1.0  0.98027  0.63111  0.23175  1.0000
  H   H1394     1.0  0.91973  0.96425  0.10874  1.0000
  C   C813      1.0  0.95353  0.50397  0.98367  1.0000
  C   C814      1.0  0.71798  0.73339  0.35682  1.0000
  H   H1395     1.0  0.97966  0.52721  0.12433  1.0000
  H   H1396     1.0  0.79079  0.51645  0.19615  1.0000
  C   C815      1.0  0.74383  0.48714  0.24206  1.0000
  C   C816      1.0  0.66944  0.72529  0.44442  1.0000
  S   S233      1.0  0.99067  0.51830  0.98656  1.0000
  H   H1397     1.0  0.86371  0.97665  0.06929  1.0000
  H   H1398     1.0  0.72119  0.78962  0.26499  1.0000
  C   C817      1.0  0.91588  0.98031  0.12749  1.0000
  H   H1399     1.0  0.85762  0.97141  0.13693  1.0000
  H   H1400     1.0  0.68356  0.73582  0.29211  1.0000
  C   C818      1.0  0.93428  0.51703  0.96247  1.0000
  C   C819      1.0  0.98686  0.57602  0.13276  1.0000
  H   H1401     1.0  0.98761  0.62450  0.14530  1.0000
  H   H1402     1.0  0.98528  0.61514  0.03228  1.0000
  H   H1403     1.0  0.66449  0.80257  0.34688  1.0000
  H   H1404     1.0  0.99078  0.62982  0.20972  1.0000
  H   H1405     1.0  0.68941  0.96475  0.18498  1.0000
  H   H1406     1.0  0.83293  0.48608  0.81185  1.0000
  H   H1407     1.0  0.92092  0.65413  0.77284  1.0000
  Fe  Fe117     1.0  0.79909  0.53823  0.89975  1.0000
  S   S234      1.0  0.96238  0.72588  0.48316  1.0000
  S   S235      1.0  0.81008  0.57816  0.86850  1.0000
  C   C820      1.0  0.98191  0.72270  0.72396  1.0000
  H   H1408     1.0  0.86894  0.78430  0.57859  1.0000
  H   H1409     1.0  0.96326  0.66940  0.51759  1.0000
  S   S236      1.0  0.75158  0.51966  0.89985  1.0000
  C   C821      1.0  0.72601  0.86475  0.65130  1.0000
  H   H1410     1.0  0.97102  0.52293  0.66592  1.0000
  Fe  Fe118     1.0  0.80448  0.79007  0.52738  1.0000
  S   S237      1.0  0.79445  0.73877  0.52603  1.0000
  S   S238      1.0  0.84815  0.81078  0.51029  1.0000
  Fe  Fe119     1.0  0.74289  0.80637  0.55458  1.0000
  S   S239      1.0  0.72897  0.75613  0.55554  1.0000
  S   S240      1.0  0.70605  0.84042  0.56746  1.0000
  Fe  Fe120     1.0  0.77599  0.74669  0.57139  1.0000
  S   S241      1.0  0.78320  0.71901  0.61303  1.0000
  Fe  Fe121     1.0  0.74834  0.75356  0.51025  1.0000
  H   H1411     1.0  0.73949  0.51880  0.76626  1.0000
  S   S242      1.0  0.78863  0.79735  0.57382  1.0000
  S   S243      1.0  0.75979  0.80442  0.50817  1.0000
  C   C822      1.0  0.72165  0.89455  0.84830  1.0000
  Fe  Fe122     1.0  0.91390  0.58930  0.72729  1.0000
  S   S244      1.0  0.92735  0.57134  0.68281  1.0000
  S   S245      1.0  0.89515  0.55332  0.75906  1.0000
  Fe  Fe123     1.0  0.94527  0.65210  0.71719  1.0000
  S   S246      1.0  0.96221  0.63825  0.67286  1.0000
  H   H1412     1.0  0.93038  0.59286  0.83416  1.0000
  Fe  Fe124     1.0  0.91561  0.61945  0.66641  1.0000
  S   S247      1.0  0.89699  0.63009  0.62142  1.0000
  H   H1413     1.0  0.84994  0.74790  0.57884  1.0000
  H   H1414     1.0  0.94303  0.69996  0.80674  1.0000
  S   S248      1.0  0.89772  0.63570  0.70993  1.0000
  S   S249      1.0  0.95998  0.60720  0.73829  1.0000
  H   H1415     1.0  0.93940  0.49981  0.81983  1.0000
  C   C823      1.0  0.97807  0.64886  0.58943  1.0000
  H   H1416     1.0  0.86693  0.74069  0.68938  1.0000
  C   C824      1.0  0.74855  0.49537  0.77222  1.0000
  C   C825      1.0  0.98185  0.52413  0.75793  1.0000
  C   C826      1.0  0.81421  0.69347  0.61476  1.0000
  C   C827      1.0  0.82257  0.68076  0.64192  1.0000
  C   C828      1.0  0.84783  0.66111  0.64416  1.0000
  C   C829      1.0  0.86464  0.65378  0.61918  1.0000
  C   C830      1.0  0.85584  0.66589  0.59189  1.0000
  C   C831      1.0  0.83078  0.68583  0.58969  1.0000
  H   H1417     1.0  0.80964  0.68635  0.66133  1.0000
  H   H1418     1.0  0.85409  0.65148  0.66518  1.0000
  H   H1419     1.0  0.86833  0.65982  0.57238  1.0000
  H   H1420     1.0  0.82414  0.69503  0.56857  1.0000
  C   C832      1.0  0.70347  0.85331  0.60406  1.0000
  C   C833      1.0  0.72871  0.85391  0.62233  1.0000
  H   H1421     1.0  0.75469  0.49470  0.83412  1.0000
  C   C834      1.0  0.69788  0.87370  0.66258  1.0000
  N   N58       1.0  0.77612  0.49821  0.79133  1.0000
  C   C835      1.0  0.90440  0.79960  0.48745  1.0000
  H   H1422     1.0  0.75045  0.84679  0.61391  1.0000
  H   H1423     1.0  0.95621  0.65664  0.59899  1.0000
  C   C836      1.0  0.72731  0.91664  0.87029  1.0000
  H   H1424     1.0  0.68335  0.52391  0.93445  1.0000
  C   C837      1.0  0.90683  0.73771  0.50646  1.0000
  C   C838      1.0  0.88121  0.75596  0.51250  1.0000
  C   C839      1.0  0.87987  0.78702  0.50300  1.0000
  C   C840      1.0  0.70693  0.77275  0.66698  1.0000
  H   H1425     1.0  0.86249  0.74600  0.52442  1.0000
  C   C841      1.0  0.83432  0.57158  0.83848  1.0000
  C   C842      1.0  0.83328  0.59183  0.81419  1.0000
  C   C843      1.0  0.85196  0.58673  0.78970  1.0000
  C   C844      1.0  0.87224  0.56170  0.78964  1.0000
  C   C845      1.0  0.87328  0.54154  0.81391  1.0000
  C   C846      1.0  0.85448  0.54648  0.83827  1.0000
  H   H1426     1.0  0.81750  0.61112  0.81411  1.0000
  H   H1427     1.0  0.85026  0.60178  0.77067  1.0000
  H   H1428     1.0  0.88850  0.52181  0.81385  1.0000
  H   H1429     1.0  0.85569  0.53092  0.85692  1.0000
  H   H1430     1.0  0.87571  0.71821  0.65800  1.0000
  H   H1431     1.0  0.70776  0.95261  0.89707  1.0000
  H   H1432     1.0  0.68434  0.86586  0.47365  1.0000
  C   C847      1.0  0.79793  0.51999  0.77625  1.0000
  C   C848      1.0  0.72223  0.93284  0.77136  1.0000
  H   H1433     1.0  0.83123  0.48801  0.75644  1.0000
  C   C849      1.0  0.68485  0.73274  0.47036  1.0000
  C   C850      1.0  0.92875  0.65323  0.54668  1.0000
  H   H1434     1.0  0.90959  0.64364  0.86495  1.0000
  H   H1435     1.0  0.86349  0.68628  0.79624  1.0000
  C   C851      1.0  0.81507  0.50647  0.74972  1.0000
  H   H1436     1.0  0.94264  0.53504  0.94793  1.0000
  H   H1437     1.0  0.70140  0.78501  0.60841  1.0000
  C   C852      1.0  0.68043  0.77892  0.62037  1.0000
  H   H1438     1.0  0.93705  0.50564  0.71856  1.0000
  H   H1439     1.0  0.86210  0.66256  0.87395  1.0000
  H   H1440     1.0  0.68843  0.91795  0.94181  1.0000
  N   N59       1.0  0.68686  0.75654  0.64514  1.0000
  H   H1441     1.0  0.84935  0.65800  0.83685  1.0000
  N   N60       1.0  0.98421  0.66431  0.56029  1.0000
  H   H1442     1.0  0.69832  0.92799  0.76582  1.0000
  C   C853      1.0  0.75170  0.54313  0.82048  1.0000
  C   C854      1.0  0.96353  0.50637  0.82032  1.0000
  H   H1443     1.0  0.84493  0.74590  0.65742  1.0000
  Fe  Fe125     1.0  0.77493  0.96432  0.90985  1.0000
  H   H1444     1.0  0.75286  0.98275  0.73173  1.0000
  N   N61       1.0  0.75429  0.97412  0.79954  1.0000
  H   H1445     1.0  0.94972  0.75895  0.65311  1.0000
  H   H1446     1.0  0.70819  0.75893  0.68768  1.0000
  C   C855      1.0  0.93115  0.75018  0.49058  1.0000
  H   H1447     1.0  0.96607  0.53159  0.81544  1.0000
  H   H1448     1.0  0.97526  0.97493  0.71541  1.0000
  C   C856      1.0  0.92988  0.78119  0.48103  1.0000
  H   H1449     1.0  0.76764  0.93181  0.82193  1.0000
  C   C857      1.0  0.99139  0.51005  0.67061  1.0000
  H   H1450     1.0  0.95793  0.64158  0.84182  1.0000
  C   C858      1.0  0.90412  0.50727  0.96024  1.0000
  C   C859      1.0  0.66831  0.73976  0.49561  1.0000
  C   C860      1.0  0.70387  0.93594  0.87985  1.0000
  H   H1451     1.0  0.96781  0.63037  0.52854  1.0000
  H   H1452     1.0  0.74700  0.80213  0.66479  1.0000
  C   C861      1.0  0.86834  0.74158  0.66507  1.0000
  H   H1453     1.0  0.67202  0.80153  0.62895  1.0000
  H   H1454     1.0  0.72436  0.68424  0.64367  1.0000
  H   H1455     1.0  0.92436  0.63391  0.56237  1.0000
  H   H1456     1.0  0.70908  0.97984  0.78203  1.0000
  C   C862      1.0  0.97916  0.61277  0.58978  1.0000
  C   C863      1.0  0.86843  0.66612  0.85059  1.0000
  S   S250      1.0  0.80183  0.54048  0.94909  1.0000
  H   H1457     1.0  0.67984  0.74561  0.51565  1.0000
  C   C864      1.0  0.80845  0.95720  0.81318  1.0000
  C   C865      1.0  0.67541  0.86285  0.61514  1.0000
  H   H1458     1.0  0.92962  0.59908  0.79495  1.0000
  S   S251      1.0  0.82146  0.49132  0.89707  1.0000
  H   H1459     1.0  0.89118  0.63292  0.78893  1.0000
  H   H1460     1.0  0.78911  0.51495  0.83428  1.0000
  H   H1461     1.0  0.72089  0.73403  0.61827  1.0000
  H   H1462     1.0  0.92810  0.79352  0.59486  1.0000
  H   H1463     1.0  0.72904  0.54129  0.81049  1.0000
  C   C866      1.0  0.67505  0.93328  0.86749  1.0000
  C   C867      1.0  0.94195  0.60427  0.81541  1.0000
  H   H1464     1.0  0.66632  0.74680  0.58508  1.0000
  C   C868      1.0  0.70177  0.72775  0.63284  1.0000
  H   H1465     1.0  0.86970  0.67308  0.75980  1.0000
  H   H1466     1.0  0.96436  0.68990  0.85634  1.0000
  S   S252      1.0  0.95151  0.70002  0.73715  1.0000
  H   H1467     1.0  0.76505  0.56151  0.80932  1.0000
  C   C869      1.0  0.86295  0.76416  0.59283  1.0000
  H   H1468     1.0  0.69715  0.79577  0.67333  1.0000
  H   H1469     1.0  0.68073  0.49382  0.68935  1.0000
  H   H1470     1.0  0.95187  0.74674  0.61588  1.0000
  C   C870      1.0  0.76834  0.51145  0.82098  1.0000
  H   H1471     1.0  0.73095  0.71381  0.67008  1.0000
  H   H1472     1.0  0.74579  0.86604  0.66508  1.0000
  C   C871      1.0  0.98105  0.69918  0.56389  1.0000
  H   H1473     1.0  0.68479  0.48410  0.63682  1.0000
  S   S253      1.0  0.76406  0.92039  0.88460  1.0000
  H   H1474     1.0  0.88910  0.62327  0.83861  1.0000
  C   C872      1.0  0.69286  0.89213  0.83565  1.0000
  H   H1475     1.0  0.70258  0.95211  0.95895  1.0000
  H   H1476     1.0  0.78378  0.96029  0.74671  1.0000
  H   H1477     1.0  0.90639  0.74311  0.58545  1.0000
  H   H1478     1.0  0.90775  0.70906  0.82205  1.0000
  H   H1479     1.0  0.74834  0.55125  0.84333  1.0000
  S   S254      1.0  0.69555  0.88818  0.69869  1.0000
  C   C873      1.0  0.96208  0.65392  0.53719  1.0000
  H   H1480     1.0  0.92722  0.69346  0.87292  1.0000
  H   H1481     1.0  0.90355  0.82366  0.48014  1.0000
  H   H1482     1.0  0.81497  0.52893  0.79181  1.0000
  Fe  Fe126     1.0  0.97245  0.59156  0.69302  1.0000
  H   H1483     1.0  0.73962  0.87937  0.84092  1.0000
  C   C874      1.0  0.67246  0.87223  0.64453  1.0000
  H   H1484     1.0  0.73430  0.93647  0.75044  1.0000
  H   H1485     1.0  0.87111  0.69161  0.84813  1.0000
  H   H1486     1.0  0.96074  0.80686  0.63652  1.0000
  H   H1487     1.0  0.89628  0.81043  0.61239  1.0000
  N   N62       1.0  0.90804  0.76416  0.62859  1.0000
  C   C875      1.0  0.91666  0.79587  0.61656  1.0000
  C   C876      1.0  0.89128  0.74730  0.60459  1.0000
  C   C877      1.0  0.93689  0.74693  0.63549  1.0000
  C   C878      1.0  0.88930  0.76876  0.65593  1.0000
  H   H1488     1.0  0.68515  0.81734  0.50308  1.0000
  H   H1489     1.0  0.74307  0.77897  0.63271  1.0000
  H   H1490     1.0  0.89342  0.70278  0.77409  1.0000
  H   H1491     1.0  0.71147  0.95376  0.81225  1.0000
  H   H1492     1.0  0.77846  0.93244  0.78503  1.0000
  H   H1493     1.0  0.78621  0.54140  0.76828  1.0000
  H   H1494     1.0  0.88394  0.72372  0.61147  1.0000
  H   H1495     1.0  0.73085  0.91145  0.78235  1.0000
  H   H1496     1.0  0.95851  0.70517  0.57292  1.0000
  H   H1497     1.0  0.90758  0.71368  0.51377  1.0000
  H   H1498     1.0  0.90402  0.77410  0.67504  1.0000
  H   H1499     1.0  0.87425  0.78943  0.65315  1.0000
  C   C879      1.0  0.73971  0.77890  0.65674  1.0000
  C   C880      1.0  0.66946  0.91143  0.84534  1.0000
  Fe  Fe127     1.0  0.75627  0.51734  0.94889  1.0000
  H   H1500     1.0  0.84772  0.77196  0.61063  1.0000
  C   C881      1.0  0.88123  0.68102  0.78003  1.0000
  H   H1501     1.0  0.75548  0.76189  0.66689  1.0000
  H   H1502     1.0  0.93852  0.83995  0.62694  1.0000
  H   H1503     1.0  0.68866  0.87501  0.81876  1.0000
  H   H1504     1.0  0.68595  0.71469  0.61854  1.0000
  H   H1505     1.0  0.96345  0.53950  0.76617  1.0000
  H   H1506     1.0  0.95708  0.70292  0.64802  1.0000
  C   C882      1.0  0.77622  0.94767  0.80448  1.0000
  N   N63       1.0  0.91771  0.65917  0.82005  1.0000
  C   C883      1.0  0.94613  0.63968  0.82042  1.0000
  C   C884      1.0  0.92699  0.69273  0.82439  1.0000
  C   C885      1.0  0.90337  0.65537  0.79025  1.0000
  C   C886      1.0  0.89720  0.64719  0.84397  1.0000
  C   C887      1.0  0.93729  0.81593  0.63618  1.0000
  C   C888      1.0  0.94163  0.70042  0.85415  1.0000
  H   H1507     1.0  0.74692  0.97532  0.84657  1.0000
  H   H1508     1.0  0.91443  0.64888  0.52716  1.0000
  H   H1509     1.0  0.96240  0.64832  0.80355  1.0000
  Fe  Fe128     1.0  0.82056  0.49183  0.94637  1.0000
  H   H1510     1.0  0.82290  0.93599  0.81365  1.0000
  H   H1511     1.0  0.69499  0.69382  0.66890  1.0000
  H   H1512     1.0  0.88932  0.51773  0.94411  1.0000
  H   H1513     1.0  0.79964  0.49732  0.73274  1.0000
  H   H1514     1.0  0.94481  0.72611  0.85560  1.0000
  H   H1515     1.0  0.92143  0.69779  0.63097  1.0000
  C   C889      1.0  0.93407  0.71297  0.64623  1.0000
  C   C890      1.0  0.72351  0.96134  0.79198  1.0000
  H   H1516     1.0  0.96937  0.76353  0.74874  1.0000
  H   H1517     1.0  0.82865  0.52538  0.73945  1.0000
  H   H1518     1.0  0.92925  0.49804  0.77231  1.0000
  H   H1519     1.0  0.80905  0.96696  0.83561  1.0000
  C   C891      1.0  0.71348  0.70389  0.65556  1.0000
  H   H1520     1.0  0.92861  0.81800  0.65889  1.0000
  H   H1521     1.0  0.92127  0.67561  0.55639  1.0000
  H   H1522     1.0  0.92441  0.71181  0.66866  1.0000
  H   H1523     1.0  0.96254  0.60377  0.60599  1.0000
  H   H1524     1.0  0.97123  0.50266  0.84325  1.0000
  H   H1525     1.0  0.94855  0.79106  0.46888  1.0000
  C   C892      1.0  0.66976  0.52623  0.95404  1.0000
  S   S255      1.0  0.72466  0.73378  0.47036  1.0000
  H   H1526     1.0  0.97965  0.52640  0.73373  1.0000
  C   C893      1.0  0.98541  0.75366  0.73349  1.0000
  H   H1527     1.0  0.97298  0.60202  0.56863  1.0000
  H   H1528     1.0  0.81869  0.97377  0.79736  1.0000
  H   H1529     1.0  0.96448  0.59314  0.81342  1.0000
  N   N64       1.0  0.97744  0.49063  0.76731  1.0000
  H   H1530     1.0  0.93230  0.97959  0.66821  1.0000
  H   H1531     1.0  0.98200  0.71131  0.54228  1.0000
  S   S256      1.0  0.78747  0.96739  0.95755  1.0000
  C   C894      1.0  0.98264  0.48580  0.79969  1.0000
  H   H1532     1.0  0.67677  0.97044  0.66966  1.0000
  H   H1533     1.0  0.99490  0.65629  0.60603  1.0000
  H   H1534     1.0  0.66738  0.95506  0.70456  1.0000
  H   H1535     1.0  0.71428  0.48492  0.80648  1.0000
  C   C895      1.0  0.66504  0.84959  0.47045  1.0000
  H   H1536     1.0  0.75444  0.48427  0.75096  1.0000
  C   C896      1.0  0.68460  0.93410  0.96032  1.0000
