data_image0
_chemical_formula_structural       H2CHS2H3C2H4C3H2S2NH3SHFe2S2FeS2FeSFeS3HSHFeS2FeSFeSCHCHSH3SHNH2C5H2C3H2CH3C6H6C2H6C6H2C3H4C7H5CHS2HNC2SNH4CHCFeH3CH2CHCH2CH2CH2CH7CHC2NC8H21CH3CH2CH2CH5NSH3Fe2CHCFeHCSCFeH2CHCH2CSH4CH7CH2C2H3FeH2NC8S2CH2CH2SCH2CHCH5S2HCH3CHFeS2FeSHFeSFeS3H2CH3SH2SH3SCH2CH2CH2C8H4C5H5C8H2CHC6H3CHCH3CH5FeNC4HCH4C2H3CHCH5CH9C3HC2H2SH5C3NCHSHC2HCH3C2H3FeH10CNH4CH2NCHC2HC2H3SH4SH10CH6C2H2CHCH2C6SHCHCH3CH2CH2CH2C5FeH5FeCH2SHSCNS2C2NHCH2SHCFeH4FeHSHFeCHNSH4CH3CFeHCHC2HSCH11CHCHSCFeS2FeSCHSH2FeSH2SCH2FeS2NCFeSCHSHFeS3HS2FeS2FeS2FeCFeS3H2C6H4CH2CHCH6CHFeH2C8H4C6H4CH4CH3NFeC2H2NCHSCSHC2FeCH2FeHFeH2CHCH3CH3C6H6CH3CHCSCH2CH2FeCH2C2H7NHCHCHCH4FeHSH8CH2SH2CHC3FeH2C3H13CH3CH4SH2C2FeSH2C2H2NC8H20SFeHCH3SC3HC2SCNC2FeH3C2HC2HSHCNCSC3HSC2H4CH2C2H3CHCH2C3HSH7C3HCH6C2HCSNC2H4CH2SCHCHCHCH2C2SC2HCHCH4SH3C2H3NCHCHNCHCHSC2HCH3NH2CFeSCH2CNHCH4CHCH4C2HCH2CHC3SCH7CFeCH4CH2CH2CHCH4CHCH3CH3C2HCH2SCHCSCHCHCH2C2H2CSH3CH3C2S2HC2FeSFeCFeHS3FeS2Fe2S2FeS2FeSFeSFeS3HCH3CFeC7H5C2HCFeHCHCHC5H2C6H3CFeH4C2HC2SCHCSCH2C3H2SH2FeNHC3HC3HCHCH7CHCH7CS2CHC3HSC3H7CH7CH2NH2SH4CHCH4SC3HFeHCH2SC2NCH5C2H3CH2SH5CH2SNCHCH2NC8H23SCH9NH3CHSFeH2CS2HSCFeH2SH2SHFeS2FeS2FeSFeS2CFeH3FeSHFeS2FeSHFeSFeS3CHC7H5C3H2CH2CHC4H3C7H9SHC2NHCH2C2H3CSH3SHCSCH3CHCHC4HCH3FeHC2HCH2CH4C2H4FeH2CHNHCHCH2CHNH3CHCNC2H3CHC2HNCH5SH2CH5C2HNH5CH2C2H2CHSHSH2CNC3HC2HFeH6C3HSH2C3HCHCH12SHSHCH3C3H2CH2CH2C3H2CHSHCH2C2HC2FeH4SH5FeHCHCFeH2SH3C3HC2NCHFeH4CH4CH5SHC2H2CHCSH5CHCHNHCHCHC2H2CH4SH2C2HCHFeSH2FeHC4SFeS2FeS2FeSFeS2HCSH3FeSHS2H3C2HCSH3CH7CH2Fe2C4H3CH3C6H3CNCH6FeHSHCHC7H6CHC2HCHCH3CHC3H4CHCHCHCHCFeH3CNH3CHCHC2H6C3H6NC4HC3H9SCH9S2CH2CHCSH4SHCNH3CNCH3C2HCSH3C2HSFeC2HC2NC7H14CFeCHC6HC2HCHCNHC2H4SCH5CH3CH5CSH5CHCH4CH2C2H5CSCFeSCHSHFeC2FeH2C5HCSCHCHCH7CNH4CHCSCHC2H2CSHCHCH6CSH4CH8CFeH2FeNH3SH2CSFeS2FeSFeS2HFeS2FeS2FeSFeS3FeS3FeSFeSCH2C3H3FeSCHCH2C6H4C6H4C6H5C6H9CHCHC6H5CHNH4CH2CH2NH10C2H2CHCH2NCH2CHCFeH3CHCH3C2HC2H2C2HCH5SCH3CH4SCH9C2HC2HC3NHC2H5FeH2CN2C5HC2H12CH4CHCSH3CH3CH2C2H2C2H2CH2CHC2H2CFeHCH2CH4CHCH7SHCH7CH3NFeCSC5H2CFeCSHCHCHNHCFeS2CHCH8NHCH2CHCHCHCHC4HC2H6CHSHCH3CH3SCH2SCH3CH2CHSCHNC2SH2CH2C3H2SCH2C2HSCFeSHFeS2FeS2FeSFeS4C6H4CHC2SH2C4H3C7H3FeC6H6SHFeCSC4FeC2H4C2H10CH2C2H3FeH5CSH3C2H2SCH2C2H2SHC2SCH3NHCHCHC3HCHCHFeH2Fe2H3C2HCHCSCNC8H21CH2CH3SH3SH7CH3SH4SH2SH2CSH2SH4CSNHCH5FeSHC2NH5SHSHC2FeCH4C2FeNC2HCHCH4NHCSHCH2CH4C3H3CH2FeH2CH2C2HCHCHC5HSC2HSH2SH2SFeSFeS2FeSFeSFeS3FeH2FeS2CHSNS2FeS2FeS2FeSFeHS2H2FeCH4CH3FeSH3CHSH3C2HCSHCSC7H4C2HC2HSCHC7H5C7H5NH2FeH4C6H2CHC2HSCH2CH2C2H5CH3SH5CHCHCHCH2CHCH2CH3SH4CHC2H3Fe2H3CHCH3FeSCH2CHCFeNCHCH5CH5CHC2NC4H2C2H11CHNH6C2HCFeHC2H2C2H2FeHCHSH2CH6SHCH3CHCHCH4SCHCNHCH3C2HCHSHSCHCH3CFeNC6H11CH3NC8H19CH2C3H5C2HSH3CHCH6C3HCSC2HC2H3FeH3SH2FeCNC3H3SH2NHCSH3CHC2S2H3SCNCFeHFeSHSFeSFeHSH2S3CFeSFeSHSHC6H3C6H4SHC3SCH4C3HFeH4CH4CHC2HCHC6H4CH3CSHCFeSCH2C2SH2SC2HCHCFeNC8H21C2NHFeCH3CHC2FeH3C2H3CHCH3S2HSHCHCHC3H2CH2CHSH4CHS2HFeHCH3Fe2CHSCH4CHCSCSH2CHC2H2CFeNCH2C2HCH5CNH5CHSHNC4H3CHSH2CFeNH3CH3CH3CHCH3C2H2SCH4SH2C2FeS2FeS2FeSFeS5HCHCS3CFeHSFeHCHC6H7SH3C6HC2HCH2C4H3CHC6H6C7H5CHS2H2C6HCH2CH2C2FeHCH3CH2NHCH2SCSNHCH3CHC2H5SH3CH2NHCHCHCH4CNHCH3CHNCH3FeCHSH2C2H3CH2CH4CNHFeHCH2CH5C2H4CH6CH2CH2C4HSCH2CHSH3CH2CHNC8H13CH5CHCH3CHC4HNH2FeCH3NH4C2HCH3SCH9SH3CHCSH3S2HC3HSCH4SCHC3H2FeCHSC2Fe2S2CHS3H6CSH3CFeS2HC2HCH3CSHSCH3FeSHFeSCSH3NSCHSHCFeSH3C3HCH2C2H5C3HCH3SHC2H2C2H2CH3C2SHCFeC2FeHC6H4C2H2C6H4NC6H16FeHNCH2CH4CH3CHCHNSHCSH2CH3C5SH2CHCSCHCHCH2C2H3CSH4CHNC8H20C3NHSHC2HSHCSHFeH3SCHCH4CH2C2HNS2C2H7C2FeHFeHCH2CSCHCH2SHFeHCH2SHCSHSC2NC8H11CH9C3HFeHC2HC2FeHFeSHC2H2CHCSHS2H2CHC2HCHC2HNHSH3CHC2H4FeCH6CHCH2CH4CHCH3CHSH2C2HC3SCHSH2SH6C3H2C2FeC2H2FeNHCH2CH7SHFeSNHSCHCFeS2FeS2FeSFeS3FeSHFeHSHCSHFeSFeSFeSCSFeCH2C2HCHC6H4C6H4C5H4SHC2H2SCH3NHFeH5CH3CSHC2SH5CH7CSCSCHSH2CHSN2CHCSH2FeH2CH4C2FeH2C2HSC2H2C2HFeC4H2CFeHCFeCHSH2CHNHSHSH2CH3CHNC4HCH2CH3SC2SH5NC4HC3H8CH11CH3C2H3CH3SFeHC2H3CHCHCH2CHC3H2CH3CFeCH4CH2SCHCH2CHCSNC8H20NCH2C2HC3H4CH2CH4C2H4CHCH2CHSH8CH2CHCHC3HCH2CFeHCH3CHCH2CH2SHCH3C3H2CSCFeNC2S2H4CHC3H2FeHFeS2FeS2FeSFeS3FeS2FeHSFe2SCSH2S2H4CFeSCH3SHSHC3H3C2HC2H2CSHCH3CHCH2C4H2C6H2C6H4C2HC6H4CH5CFeCHNC6H8SCHCHCHCHCH2C2H6CH5SCH2C2HCHCH4NH4CH3FeHCH3CHCNC2H2CH11CSC3H3CH2CHNHSNSH4NC5HC2HCH7CH10FeHCHFeCHC5SH2NCSH5C2HC2H4SH2FeCHC2HCH3CH2SCH3NH2C2HFeH2CH2CHSH11C3HCHCH5CH6CHCHC2SC2HCHCH2NHSFe2S2FeSFeS3H2FeS2C2HCH4FeHSH2C2HSFeS2CSFeSFeS3CNFeH2SHCHS2CNSCH2CHCNFeC2H2CHC2H2CH5C2HC7H2C3HC2H3CHSC8H8CH5C2HC4H2C2H2CH2NH2SH2CHFeC6H3CFeH3NH9CHCH4CH3CHCHFeHC2H5CSHCH3CH3NC8H20NC8H24C2HC3H8CHCH5C2H3CHCH4CH2CH2CFeC2SC2H2CH2SCH3CH3CHCHC4H3CH7CHCSHCHSH6CH2C3H4FeH2CNSH3CH7CH2SH4CH4CFeCFeSHCSFeS2FeS2FeSFeS4CHSHSCHCH2SHCHFeSC2SFeSHFeSFeSHCH6SH5C4H2FeCHCHC6H4C6H6C3HSHS2C6H5CH4CH2SH3CHCH8C7H4CH2CH2CHC3HCHC2FeH4CSH2C3FeH2NC8HFeH9CHCNHCH3NC8H9SH10NH4NC2H2CHS2HCH2CH6C2H4SC2HNH6SH6C2H2CH2CHSH4CH3CHCH4SC2H2NCFeH4CHCH3CH3CH3CH5SH3CH6CHSH3FeS2FeS2FeSFeCS2H2CHCH2CHSH2SH3CH3SHSH2C2HC2SHC3HCH4SFeC2HC3H2CHNC2H2SC3H4CHNHC6H4SH2CNH2CH4C2H2SH4C2H4SHCH2CHCH5CNCHCHCH2CHSCFeSH3CH11CH3SH2CHC2H2CHFeHCH2CHCH2CFeCH2CH2CH5FeC4H3SHNC2H3NHC2HC2H2NCHCH2C2HCH3SH3CHCH4CH11FeCHCH6CFeH3C2SHCH2CHS3Fe2S2FeS2FeSCS2HFeS2FeCSFeCH3CS2CH3C2H2CH2CHCH5C2HFeC2H4C6H5SCH3CHCH3NC2SHCHC2H2S2H2FeHSC2HCH3CHC2HCHCHSHSHC2H2C3HCH4CH4C2HFeCS2FeH3CHCNC8H10CHCH3FeH3NHC3H2C2HCH7SCH11C2FeSCH2CFeH3CHCH5C2H5CHSHCH3NHCHC2HCH2CH2C2H2FeCSH5CHFeCHC2H3SH3NCSFeC2HC2HC3H2NC8H20FeCH3C2H5CHSHSH6CH4CFeHC2HSH5FeNH2C4SCH3NH2FeS2FeS2FeSFeS4HCHFeS2FeC5SHCH2CH2CH11C2HC6H4C2HSHCHCHC6H5C3H2CNHSH7CSCH6C2HFeHCH5SH3SH5CHC2H4CH5C2HSH2C5H4CSCH5CH6FeCH3CH4CH3C2H4C2HC2HCHNH2CH5CH2CH2CHFeH3CH3C2H3CH2NCH2C3HNH2CHCH2CHN2C4H3CH3SH2SFeH2SC2H2CH2CH2SFe2C2FeC3SCHC2H2S2C3H2NCFeS2FeHSH2CHS2H2SH5SH2SCH3FeSHFeS2FeSFeS4C6FeH4CH2CHNSCHSH4CH3CH2C6H4CHCH2CNCHCHSNHC2HC2H4CSCSH2FeH2CSH6C3HCHNHC2H6CFeCHCHCH6FeC4H3CNC2H4SFeH2SCHCHCHCHCH2C4HFeCHCSCHCH2CHSHC2H4CH7CHCH4NHC3NC3H8CH10CH2CH2CHCH2SHCH4CFeCHSHCHCHCH3CSCHCFeS2FeS2FeSFeS3C2FeHFeS2H2FeS3CH3SCHCHCHSC2H5CH6C2HCHC2H2C2H2CH4NH3CH2NHC6H4C3H4SC3H4C2HC2H4CH3SHC2HCHC2H7NCHFeC2H2CH2C3SFeCHNC7H17CH2CHCSH4FeCH4FeH2SH3S2H2CNC4HC3H8SH5CHC3H6FeC2H4CH2SH3FeC2H5CNCH5CH2SHC2H2CH2CHCHS2CH2FeCHFeS2NHC2H2CSH2SFeS2FeS2FeSFeS3H8FeHSC6H5CHC7H4CH2C2HCHCHCFeHC6H4FeHSHC3HSH2CHCHSH2CHC3HCH6C2HCH3CHCH5CH3CH2CH3NHSH3SHCH2CSCH7SHCH2CH3CN2H2S2HC2H4C2HCHNC4HC3H8CH4CH7FeHSH5CH2SHCH4C2HCH2C2HCSH3Fe2H2CHCHC2HCHNC2HFeC2H3CNHC2HCHCFeHCHCHNH5CH2CHCHFeCH6CHFeS3C2SHC3SCH2FeHSFeHSHCH2S2HC2HSHCHCHCHNHCH3CH2SHCSC2H3SH3CHCSCH2C3HSCH2FeH2CH2CHCFeHCH5NCH2C2HFeH2CH2CH3FeHCH2S2HCHFeH2CH2C2H2FeHSC7H4SH2CH2CHC3HCH4SNHSH2CNH6FeHSFeC2H3CSCSNC4H6CHC2H2SFe2H5C3HFeHC2H2CH7CSCH3SHCFeHCH11FeHSC3HCH2C2H3SFeS2FeS2FeCFeS3HSCSCHCFeSHSCFeH5CHCH4C2HCHC2HC2NSHC6H4C6H4SHCHC5H6CHFeCSH2CSHCHCHCHNH4NCHC3H7CH9C2HCHCNC5H5C2H5CH3NHC3HSH5CH4C2H3CH5CH4CNC2HFeHCH2CH3SH6SHCSCS2CH2CNHC2H6FeHFeCH2C2H4CH4CHC2H4CSCSHCH2NHCHFeH3CH4CHC3H3CHCFeH7CSH2SH4CH2SH4C2HCH
_chemical_formula_sum              "H4608 C2688 S768 N192 Fe384"
_cell_length_a       68.9948
_cell_length_b       70.0601
_cell_length_c       70.5788
_cell_angle_alpha    76.0501
_cell_angle_beta     75.1947
_cell_angle_gamma    76.0194

_space_group_name_H-M_alt    "P 1"
_space_group_IT_number       1

loop_
  _space_group_symop_operation_xyz
  'x, y, z'

loop_
  _atom_site_type_symbol
  _atom_site_label
  _atom_site_symmetry_multiplicity
  _atom_site_fract_x
  _atom_site_fract_y
  _atom_site_fract_z
  _atom_site_occupancy
  H   H1        1.0  0.09610  0.21423  0.99151  1.0000
  H   H2        1.0  0.02512  0.09439  0.12214  1.0000
  C   C1        1.0  0.01881  0.21971  0.33406  1.0000
  H   H3        1.0  0.06575  0.22337  0.37805  1.0000
  S   S1        1.0  0.11291  0.18200  0.42026  1.0000
  S   S2        1.0  0.31290  0.99451  0.04506  1.0000
  H   H4        1.0  0.03614  0.15840  0.46164  1.0000
  H   H5        1.0  0.17664  0.03630  0.22526  1.0000
  H   H6        1.0  0.00721  0.21203  0.34525  1.0000
  C   C2        1.0  0.08691  0.20602  0.39646  1.0000
  C   C3        1.0  0.00273  0.05820  0.15355  1.0000
  H   H7        1.0  0.01158  0.19443  0.38793  1.0000
  H   H8        1.0  0.07678  0.17023  0.14784  1.0000
  H   H9        1.0  0.13899  0.02088  0.19969  1.0000
  H   H10       1.0  0.22310  0.03229  0.24427  1.0000
  C   C4        1.0  0.18517  0.23494  0.36554  1.0000
  C   C5        1.0  0.15525  0.21088  0.35225  1.0000
  C   C6        1.0  0.12250  0.17238  0.15207  1.0000
  H   H11       1.0  0.05347  0.10024  0.12983  1.0000
  H   H12       1.0  0.02225  0.21312  0.32052  1.0000
  S   S3        1.0  0.31308  0.01874  0.28094  1.0000
  S   S4        1.0  0.19727  0.01831  0.14264  1.0000
  N   N1        1.0  0.03646  0.17530  0.41873  1.0000
  H   H13       1.0  0.05570  0.14081  0.08344  1.0000
  H   H14       1.0  0.33197  0.05583  0.38088  1.0000
  H   H15       1.0  0.16906  0.00340  0.17858  1.0000
  S   S5        1.0  0.28029  0.01722  0.33510  1.0000
  H   H16       1.0  0.32518  0.02743  0.40058  1.0000
  Fe  Fe1       1.0  0.21071  0.98593  0.15394  1.0000
  Fe  Fe2       1.0  0.08721  0.12360  0.15067  1.0000
  S   S6        1.0  0.05645  0.13400  0.16884  1.0000
  S   S7        1.0  0.09856  0.13988  0.11935  1.0000
  Fe  Fe3       1.0  0.09802  0.08936  0.18424  1.0000
  S   S8        1.0  0.06784  0.09764  0.20494  1.0000
  S   S9        1.0  0.11926  0.06193  0.19665  1.0000
  Fe  Fe4       1.0  0.05450  0.10138  0.17804  1.0000
  S   S10       1.0  0.02466  0.09211  0.17939  1.0000
  Fe  Fe5       1.0  0.07293  0.12931  0.19376  1.0000
  S   S11       1.0  0.06455  0.15434  0.21153  1.0000
  S   S12       1.0  0.08432  0.09116  0.15808  1.0000
  S   S13       1.0  0.10403  0.12079  0.17495  1.0000
  H   H17       1.0  0.00353  0.01980  0.18517  1.0000
  S   S14       1.0  0.08922  0.21838  0.28275  1.0000
  H   H18       1.0  0.21233  0.22755  0.28383  1.0000
  Fe  Fe6       1.0  0.14275  0.21732  0.29188  1.0000
  S   S15       1.0  0.12761  0.19061  0.30274  1.0000
  S   S16       1.0  0.17444  0.21445  0.29639  1.0000
  Fe  Fe7       1.0  0.11892  0.19807  0.27277  1.0000
  S   S17       1.0  0.12622  0.17335  0.25486  1.0000
  Fe  Fe8       1.0  0.09956  0.21299  0.31173  1.0000
  S   S18       1.0  0.07801  0.20872  0.34156  1.0000
  C   C7        1.0  0.00431  0.07218  0.16420  1.0000
  H   H19       1.0  0.05198  0.07326  0.10527  1.0000
  C   C8        1.0  0.01696  0.12901  0.13734  1.0000
  H   H20       1.0  0.06038  0.11783  0.07551  1.0000
  S   S19       1.0  0.30767  0.04265  0.43724  1.0000
  H   H21       1.0  0.08579  0.11439  0.09330  1.0000
  H   H22       1.0  0.06034  0.12409  0.12148  1.0000
  H   H23       1.0  0.10374  0.21731  0.10469  1.0000
  S   S20       1.0  0.29470  0.00396  0.23789  1.0000
  H   H24       1.0  0.03186  0.14485  0.42415  1.0000
  N   N2        1.0  0.33190  0.02795  0.35705  1.0000
  H   H25       1.0  0.21984  0.00164  0.20142  1.0000
  H   H26       1.0  0.04606  0.17690  0.17617  1.0000
  C   C9        1.0  0.08961  0.20338  0.36214  1.0000
  C   C10       1.0  0.07957  0.21215  0.37873  1.0000
  C   C11       1.0  0.10435  0.19106  0.39769  1.0000
  C   C12       1.0  0.11490  0.18286  0.38080  1.0000
  C   C13       1.0  0.10762  0.18910  0.36298  1.0000
  H   H27       1.0  0.12842  0.17128  0.38165  1.0000
  H   H28       1.0  0.11539  0.18217  0.35024  1.0000
  C   C14       1.0  0.02350  0.07482  0.16534  1.0000
  C   C15       1.0  0.04114  0.06364  0.15542  1.0000
  C   C16       1.0  0.03957  0.04995  0.14446  1.0000
  H   H29       1.0  0.17122  0.21310  0.34697  1.0000
  H   H30       1.0  0.19859  0.02950  0.24389  1.0000
  C   C17       1.0  0.00349  0.16352  0.41814  1.0000
  H   H31       1.0  0.05601  0.06541  0.15629  1.0000
  H   H32       1.0  0.05331  0.04144  0.13674  1.0000
  H   H33       1.0  0.03261  0.21611  0.34054  1.0000
  C   C18       1.0  0.08193  0.15947  0.22338  1.0000
  C   C19       1.0  0.07566  0.17527  0.23401  1.0000
  C   C20       1.0  0.08907  0.17981  0.24363  1.0000
  C   C21       1.0  0.10890  0.16855  0.24269  1.0000
  C   C22       1.0  0.11525  0.15292  0.23185  1.0000
  C   C23       1.0  0.10185  0.14839  0.22222  1.0000
  H   H34       1.0  0.06028  0.18392  0.23493  1.0000
  H   H35       1.0  0.08400  0.19187  0.25190  1.0000
  H   H36       1.0  0.13055  0.14413  0.23102  1.0000
  H   H37       1.0  0.10685  0.13620  0.21409  1.0000
  H   H38       1.0  0.00437  0.02252  0.23927  1.0000
  H   H39       1.0  0.01508  0.10702  0.10128  1.0000
  C   C24       1.0  0.13070  0.23485  0.39839  1.0000
  C   C25       1.0  0.00784  0.00955  0.19871  1.0000
  H   H40       1.0  0.17381  0.18948  0.41714  1.0000
  H   H41       1.0  0.09504  0.23424  0.12239  1.0000
  H   H42       1.0  0.10290  0.21791  0.15301  1.0000
  H   H43       1.0  0.30902  0.00614  0.11470  1.0000
  H   H44       1.0  0.26962  0.00568  0.40810  1.0000
  H   H45       1.0  0.26804  0.02681  0.37450  1.0000
  C   C26       1.0  0.17405  0.02980  0.15644  1.0000
  C   C27       1.0  0.16644  0.05029  0.15040  1.0000
  C   C28       1.0  0.14896  0.06019  0.16212  1.0000
  C   C29       1.0  0.13922  0.04965  0.18008  1.0000
  C   C30       1.0  0.14654  0.02911  0.18586  1.0000
  C   C31       1.0  0.16372  0.01919  0.17396  1.0000
  H   H46       1.0  0.17429  0.05860  0.13680  1.0000
  H   H47       1.0  0.14344  0.07606  0.15761  1.0000
  C   C32       1.0  0.03215  0.13674  0.07052  1.0000
  C   C33       1.0  0.05758  0.11151  0.11610  1.0000
  C   C34       1.0  0.27408  0.99882  0.39505  1.0000
  H   H48       1.0  0.14717  0.19620  0.39694  1.0000
  H   H49       1.0  0.21993  0.00882  0.24044  1.0000
  H   H50       1.0  0.30551  0.07040  0.32967  1.0000
  H   H51       1.0  0.08921  0.09605  0.11501  1.0000
  C   C35       1.0  0.09032  0.22456  0.11477  1.0000
  C   C36       1.0  0.05721  0.19471  0.09031  1.0000
  C   C37       1.0  0.04912  0.18244  0.10796  1.0000
  C   C38       1.0  0.06164  0.16554  0.11686  1.0000
  C   C39       1.0  0.08233  0.16065  0.10810  1.0000
  C   C40       1.0  0.09039  0.17277  0.09025  1.0000
  C   C41       1.0  0.07789  0.18985  0.08141  1.0000
  H   H52       1.0  0.03315  0.18622  0.11493  1.0000
  H   H53       1.0  0.05520  0.15645  0.13056  1.0000
  H   H54       1.0  0.10640  0.16908  0.08336  1.0000
  H   H55       1.0  0.08423  0.19925  0.06776  1.0000
  H   H56       1.0  0.13369  0.23106  0.45932  1.0000
  C   C42       1.0  0.21488  0.02534  0.23690  1.0000
  H   H57       1.0  0.03331  0.15750  0.39903  1.0000
  S   S21       1.0  0.06415  0.23230  0.02238  1.0000
  S   S22       1.0  0.07774  0.22740  0.44242  1.0000
  H   H58       1.0  0.09951  0.20898  0.18704  1.0000
  N   N3        1.0  0.04036  0.11860  0.10490  1.0000
  C   C43       1.0  0.07872  0.10253  0.10451  1.0000
  C   C44       1.0  0.01700  0.20382  0.39530  1.0000
  S   S23       1.0  0.01917  0.03041  0.12888  1.0000
  N   N4        1.0  0.08855  0.19655  0.14658  1.0000
  H   H59       1.0  0.03152  0.07643  0.09261  1.0000
  H   H60       1.0  0.19212  0.21903  0.36987  1.0000
  H   H61       1.0  0.03098  0.14847  0.11175  1.0000
  H   H62       1.0  0.04760  0.18891  0.38789  1.0000
  C   C45       1.0  0.15833  0.20629  0.39328  1.0000
  H   H63       1.0  0.22330  0.04848  0.21156  1.0000
  C   C46       1.0  0.04226  0.08428  0.09569  1.0000
  Fe  Fe9       1.0  0.05105  0.21582  0.46336  1.0000
  H   H64       1.0  0.14883  0.21285  0.33883  1.0000
  H   H65       1.0  0.27459  0.00071  0.07307  1.0000
  H   H66       1.0  0.02118  0.14996  0.07540  1.0000
  C   C47       1.0  0.05821  0.16613  0.42088  1.0000
  H   H67       1.0  0.03435  0.23473  0.29433  1.0000
  H   H68       1.0  0.11469  0.16057  0.16226  1.0000
  C   C48       1.0  0.18982  0.00030  0.21979  1.0000
  H   H69       1.0  0.08181  0.17123  0.17053  1.0000
  C   C49       1.0  0.02181  0.16653  0.45677  1.0000
  H   H70       1.0  0.02085  0.01361  0.20226  1.0000
  H   H71       1.0  0.21358  0.05836  0.18055  1.0000
  C   C50       1.0  0.27313  0.01076  0.37604  1.0000
  H   H72       1.0  0.19974  0.04468  0.17235  1.0000
  H   H73       1.0  0.06325  0.21748  0.13529  1.0000
  C   C51       1.0  0.05302  0.18900  0.16529  1.0000
  H   H74       1.0  0.05860  0.15406  0.43433  1.0000
  H   H75       1.0  0.24507  0.03169  0.17601  1.0000
  C   C52       1.0  0.27938  0.00201  0.35900  1.0000
  H   H76       1.0  0.19174  0.00124  0.23456  1.0000
  H   H77       1.0  0.07507  0.16718  0.38930  1.0000
  H   H78       1.0  0.16548  0.07158  0.21789  1.0000
  H   H79       1.0  0.23104  0.01753  0.16778  1.0000
  H   H80       1.0  0.01334  0.15569  0.45511  1.0000
  H   H81       1.0  0.08011  0.23447  0.10497  1.0000
  H   H82       1.0  0.31833  0.04893  0.31897  1.0000
  C   C53       1.0  0.27639  0.99306  0.21283  1.0000
  H   H83       1.0  0.07610  0.19908  0.12065  1.0000
  C   C54       1.0  0.07587  0.18089  0.15757  1.0000
  C   C55       1.0  0.02711  0.15970  0.41473  1.0000
  N   N5        1.0  0.18471  0.15419  0.26796  1.0000
  C   C56       1.0  0.18281  0.17593  0.26877  1.0000
  C   C57       1.0  0.16831  0.14620  0.28459  1.0000
  C   C58       1.0  0.18125  0.15338  0.24786  1.0000
  C   C59       1.0  0.20592  0.14344  0.27042  1.0000
  C   C60       1.0  0.19616  0.18814  0.25134  1.0000
  C   C61       1.0  0.17024  0.14588  0.30598  1.0000
  C   C62       1.0  0.17387  0.13483  0.24625  1.0000
  C   C63       1.0  0.21070  0.12048  0.27229  1.0000
  H   H84       1.0  0.16669  0.18402  0.26938  1.0000
  H   H85       1.0  0.18689  0.17734  0.28256  1.0000
  H   H86       1.0  0.16746  0.13071  0.28425  1.0000
  H   H87       1.0  0.15297  0.15511  0.28267  1.0000
  H   H88       1.0  0.16950  0.16643  0.24301  1.0000
  H   H89       1.0  0.19538  0.15472  0.23611  1.0000
  H   H90       1.0  0.21750  0.14906  0.25744  1.0000
  H   H91       1.0  0.21004  0.14701  0.28327  1.0000
  H   H92       1.0  0.19317  0.20374  0.25389  1.0000
  H   H93       1.0  0.21270  0.18225  0.25059  1.0000
  H   H94       1.0  0.19233  0.18917  0.23675  1.0000
  H   H95       1.0  0.16850  0.16113  0.30888  1.0000
  H   H96       1.0  0.15768  0.13920  0.31675  1.0000
  H   H97       1.0  0.18480  0.13648  0.30940  1.0000
  H   H98       1.0  0.18373  0.12053  0.25134  1.0000
  H   H99       1.0  0.17383  0.13554  0.23035  1.0000
  H   H100      1.0  0.15785  0.13480  0.25454  1.0000
  H   H101      1.0  0.21621  0.11629  0.25734  1.0000
  H   H102      1.0  0.19777  0.11311  0.28071  1.0000
  H   H103      1.0  0.22289  0.11394  0.28099  1.0000
  H   H104      1.0  0.13664  0.16450  0.14331  1.0000
  C   C64       1.0  0.02985  0.10161  0.10627  1.0000
  H   H105      1.0  0.07858  0.21239  0.40932  1.0000
  H   H106      1.0  0.06684  0.14366  0.40129  1.0000
  H   H107      1.0  0.17154  0.19902  0.38308  1.0000
  C   C65       1.0  0.31386  0.02337  0.39437  1.0000
  H   H108      1.0  0.30659  0.01209  0.40612  1.0000
  H   H109      1.0  0.05062  0.20161  0.17306  1.0000
  C   C66       1.0  0.31409  0.04395  0.35166  1.0000
  H   H110      1.0  0.30837  0.05431  0.36237  1.0000
  H   H111      1.0  0.11910  0.19741  0.12859  1.0000
  C   C67       1.0  0.18149  0.06575  0.21078  1.0000
  H   H112      1.0  0.01569  0.04496  0.20404  1.0000
  H   H113      1.0  0.30086  0.03708  0.35257  1.0000
  H   H114      1.0  0.31381  0.00565  0.37338  1.0000
  H   H115      1.0  0.07530  0.20253  0.19153  1.0000
  H   H116      1.0  0.01071  0.19277  0.43659  1.0000
  N   N6        1.0  0.14914  0.22697  0.38349  1.0000
  S   S24       1.0  0.13667  0.22295  0.26112  1.0000
  H   H117      1.0  0.09834  0.18480  0.18438  1.0000
  H   H118      1.0  0.03454  0.19246  0.44092  1.0000
  H   H119      1.0  0.30131  0.03626  0.39176  1.0000
  Fe  Fe10      1.0  0.30277  0.01127  0.45079  1.0000
  Fe  Fe11      1.0  0.09406  0.19554  0.44667  1.0000
  C   C68       1.0  0.16565  0.20501  0.41252  1.0000
  H   H120      1.0  0.32665  0.01063  0.33785  1.0000
  C   C69       1.0  0.14186  0.22591  0.36536  1.0000
  Fe  Fe12      1.0  0.08740  0.22842  0.46999  1.0000
  H   H121      1.0  0.33260  0.06262  0.32750  1.0000
  C   C70       1.0  0.28330  0.98626  0.07855  1.0000
  S   S25       1.0  0.01852  0.22533  0.45934  1.0000
  C   C71       1.0  0.04822  0.12827  0.08362  1.0000
  Fe  Fe13      1.0  0.29925  0.00117  0.31038  1.0000
  H   H122      1.0  0.01091  0.13896  0.10804  1.0000
  H   H123      1.0  0.17650  0.21513  0.41027  1.0000
  C   C72       1.0  0.02039  0.04705  0.14361  1.0000
  H   H124      1.0  0.01973  0.21753  0.38398  1.0000
  C   C73       1.0  0.27693  0.99236  0.23278  1.0000
  H   H125      1.0  0.23492  0.04153  0.15397  1.0000
  H   H126      1.0  0.08764  0.15017  0.40736  1.0000
  C   C74       1.0  0.10958  0.18628  0.13750  1.0000
  S   S26       1.0  0.04099  0.21610  0.08023  1.0000
  H   H127      1.0  0.23501  0.02401  0.20883  1.0000
  H   H128      1.0  0.28660  0.00094  0.20089  1.0000
  H   H129      1.0  0.02388  0.12521  0.06997  1.0000
  H   H130      1.0  0.10851  0.17727  0.12687  1.0000
  C   C75       1.0  0.02477  0.13455  0.11458  1.0000
  H   H131      1.0  0.15498  0.19516  0.36011  1.0000
  H   H132      1.0  0.05170  0.08924  0.08092  1.0000
  H   H133      1.0  0.19958  0.01023  0.18855  1.0000
  H   H134      1.0  0.12741  0.18103  0.16064  1.0000
  H   H135      1.0  0.31762  0.99428  0.09399  1.0000
  H   H136      1.0  0.12652  0.22170  0.36985  1.0000
  H   H137      1.0  0.07829  0.09042  0.09721  1.0000
  C   C76       1.0  0.00701  0.05012  0.21796  1.0000
  H   H138      1.0  0.17362  0.00608  0.21858  1.0000
  H   H139      1.0  0.17299  0.04296  0.20063  1.0000
  C   C77       1.0  0.02561  0.18274  0.43779  1.0000
  C   C78       1.0  0.18164  0.23541  0.30035  1.0000
  H   H140      1.0  0.00593  0.14204  0.14259  1.0000
  H   H141      1.0  0.02941  0.12557  0.14562  1.0000
  H   H142      1.0  0.06581  0.17747  0.42322  1.0000
  Fe  Fe14      1.0  0.30555  0.99601  0.26734  1.0000
  H   H143      1.0  0.18437  0.07509  0.19561  1.0000
  H   H144      1.0  0.19153  0.06776  0.21986  1.0000
  N   N7        1.0  0.20471  0.03255  0.20243  1.0000
  C   C79       1.0  0.21158  0.04293  0.18116  1.0000
  C   C80       1.0  0.18348  0.04353  0.21005  1.0000
  C   C81       1.0  0.20428  0.01111  0.20223  1.0000
  C   C82       1.0  0.21988  0.03321  0.21421  1.0000
  C   C83       1.0  0.23188  0.03261  0.16937  1.0000
  C   C84       1.0  0.07865  0.20894  0.12959  1.0000
  C   C85       1.0  0.07239  0.15637  0.40354  1.0000
  C   C86       1.0  0.31812  0.05715  0.33069  1.0000
  S   S27       1.0  0.27185  0.00493  0.45308  1.0000
  S   S28       1.0  0.06658  0.18367  0.46552  1.0000
  C   C87       1.0  0.32449  0.01391  0.37596  1.0000
  H   H145      1.0  0.01236  0.17404  0.46921  1.0000
  H   H146      1.0  0.15264  0.20804  0.42511  1.0000
  C   C88       1.0  0.09077  0.20071  0.18169  1.0000
  H   H147      1.0  0.01834  0.05223  0.22562  1.0000
  H   H148      1.0  0.12028  0.22386  0.40417  1.0000
  S   S29       1.0  0.10632  0.19714  0.47282  1.0000
  C   C89       1.0  0.08963  0.21028  0.15968  1.0000
  H   H149      1.0  0.04349  0.20464  0.40549  1.0000
  H   H150      1.0  0.04005  0.14206  0.05497  1.0000
  C   C90       1.0  0.03724  0.19310  0.40171  1.0000
  H   H151      1.0  0.07577  0.22241  0.16047  1.0000
  C   C91       1.0  0.31970  0.99301  0.10928  1.0000
  H   H152      1.0  0.04460  0.19365  0.15294  1.0000
  H   H153      1.0  0.01342  0.99442  0.19484  1.0000
  H   H154      1.0  0.00873  0.11635  0.14152  1.0000
  H   H155      1.0  0.32783  0.07253  0.40966  1.0000
  H   H156      1.0  0.00488  0.20891  0.40767  1.0000
  S   S30       1.0  0.29867  0.01929  0.76466  1.0000
  S   S31       1.0  0.30618  0.01571  0.70660  1.0000
  H   H157      1.0  0.30646  0.05669  0.86916  1.0000
  C   C92       1.0  0.33216  0.06525  0.79395  1.0000
  H   H158      1.0  0.04069  0.22052  0.62566  1.0000
  H   H159      1.0  0.27905  0.01994  0.56522  1.0000
  H   H160      1.0  0.06793  0.21484  0.66044  1.0000
  C   C93       1.0  0.10311  0.19704  0.62682  1.0000
  H   H161      1.0  0.11872  0.18205  0.65102  1.0000
  Fe  Fe15      1.0  0.06350  0.14777  0.67110  1.0000
  S   S32       1.0  0.09596  0.14097  0.65473  1.0000
  S   S33       1.0  0.05307  0.17442  0.68699  1.0000
  Fe  Fe16      1.0  0.05173  0.11459  0.65652  1.0000
  S   S34       1.0  0.08352  0.10598  0.63888  1.0000
  H   H162      1.0  0.05019  0.17888  0.74863  1.0000
  Fe  Fe17      1.0  0.09372  0.10869  0.66560  1.0000
  S   S35       1.0  0.11767  0.08528  0.67905  1.0000
  Fe  Fe18      1.0  0.08274  0.13914  0.62942  1.0000
  S   S36       1.0  0.09865  0.15529  0.59988  1.0000
  S   S37       1.0  0.06212  0.11543  0.68411  1.0000
  S   S38       1.0  0.05005  0.14786  0.64502  1.0000
  H   H163      1.0  0.26741  0.06573  0.53446  1.0000
  H   H164      1.0  0.11572  0.18232  0.78075  1.0000
  C   C94       1.0  0.04323  0.17674  0.76488  1.0000
  H   H165      1.0  0.22148  0.99888  0.54703  1.0000
  H   H166      1.0  0.10343  0.12600  0.55781  1.0000
  H   H167      1.0  0.23040  0.05031  0.66547  1.0000
  S   S39       1.0  0.30425  0.99703  0.48246  1.0000
  H   H168      1.0  0.08561  0.11382  0.53886  1.0000
  H   H169      1.0  0.23247  0.22134  0.80019  1.0000
  S   S40       1.0  0.18101  0.03269  0.62074  1.0000
  H   H170      1.0  0.21765  0.07556  0.68476  1.0000
  H   H171      1.0  0.20189  0.02895  0.65651  1.0000
  H   H172      1.0  0.19551  0.07496  0.70440  1.0000
  S   S41       1.0  0.32243  0.06128  0.77457  1.0000
  C   C95       1.0  0.07715  0.16386  0.54173  1.0000
  H   H173      1.0  0.17566  0.04854  0.71120  1.0000
  H   H174      1.0  0.13466  0.12062  0.57467  1.0000
  C   C96       1.0  0.18491  0.01980  0.70231  1.0000
  H   H175      1.0  0.10727  0.09379  0.53310  1.0000
  H   H176      1.0  0.07371  0.21785  0.72043  1.0000
  C   C97       1.0  0.10249  0.10907  0.53654  1.0000
  H   H177      1.0  0.05946  0.08225  0.60025  1.0000
  H   H178      1.0  0.13680  0.10802  0.59933  1.0000
  C   C98       1.0  0.01914  0.08726  0.64439  1.0000
  C   C99       1.0  0.24720  0.03354  0.56912  1.0000
  C   C100      1.0  0.16207  0.04652  0.63685  1.0000
  C   C101      1.0  0.15689  0.03879  0.65728  1.0000
  C   C102      1.0  0.14288  0.05065  0.67008  1.0000
  C   C103      1.0  0.13377  0.07019  0.66249  1.0000
  C   C104      1.0  0.13837  0.07773  0.64196  1.0000
  C   C105      1.0  0.15260  0.06593  0.62918  1.0000
  H   H179      1.0  0.16384  0.02378  0.66331  1.0000
  H   H180      1.0  0.13909  0.04469  0.68592  1.0000
  H   H181      1.0  0.13146  0.09286  0.63608  1.0000
  H   H182      1.0  0.15663  0.07199  0.61340  1.0000
  C   C106      1.0  0.08907  0.15971  0.57805  1.0000
  C   C107      1.0  0.09933  0.17023  0.56028  1.0000
  C   C108      1.0  0.09328  0.17245  0.54217  1.0000
  C   C109      1.0  0.06653  0.15382  0.55963  1.0000
  C   C110      1.0  0.07230  0.15196  0.57781  1.0000
  H   H183      1.0  0.11233  0.17625  0.56039  1.0000
  H   H184      1.0  0.02485  0.20274  0.72881  1.0000
  H   H185      1.0  0.06422  0.14396  0.59149  1.0000
  H   H186      1.0  0.24694  0.04974  0.56745  1.0000
  H   H187      1.0  0.05402  0.14716  0.55934  1.0000
  C   C111      1.0  0.01448  0.10076  0.62729  1.0000
  C   C112      1.0  0.01702  0.23208  0.75527  1.0000
  C   C113      1.0  0.29011  0.18746  0.86498  1.0000
  C   C114      1.0  0.28199  0.17815  0.88429  1.0000
  C   C115      1.0  0.26468  0.18839  0.89588  1.0000
  C   C116      1.0  0.25550  0.20797  0.88827  1.0000
  C   C117      1.0  0.26425  0.21757  0.86934  1.0000
  C   C118      1.0  0.28138  0.20728  0.85768  1.0000
  H   H188      1.0  0.28865  0.16286  0.89004  1.0000
  H   H189      1.0  0.25809  0.18093  0.91060  1.0000
  C   C119      1.0  0.01786  0.19024  0.79175  1.0000
  H   H190      1.0  0.28777  0.21464  0.84283  1.0000
  C   C120      1.0  0.09106  0.18781  0.72545  1.0000
  C   C121      1.0  0.09490  0.16870  0.72071  1.0000
  C   C122      1.0  0.08381  0.16455  0.70845  1.0000
  C   C123      1.0  0.06862  0.17946  0.70097  1.0000
  C   C124      1.0  0.06514  0.19871  0.70531  1.0000
  C   C125      1.0  0.07642  0.20293  0.71734  1.0000
  H   H191      1.0  0.10632  0.15693  0.72675  1.0000
  H   H192      1.0  0.08668  0.14967  0.70516  1.0000
  H   H193      1.0  0.05361  0.21042  0.69938  1.0000
  C   C126      1.0  0.28647  0.00543  0.70314  1.0000
  H   H194      1.0  0.31359  0.01142  0.93077  1.0000
  C   C127      1.0  0.11034  0.11078  0.55455  1.0000
  H   H195      1.0  0.08209  0.06394  0.59568  1.0000
  H   H196      1.0  0.32488  0.06820  0.96311  1.0000
  H   H197      1.0  0.10199  0.22725  0.57077  1.0000
  C   C128      1.0  0.07642  0.07976  0.59746  1.0000
  H   H198      1.0  0.05330  0.22822  0.82277  1.0000
  H   H199      1.0  0.07194  0.22122  0.59402  1.0000
  H   H200      1.0  0.02425  0.17635  0.73468  1.0000
  H   H201      1.0  0.10779  0.18273  0.62111  1.0000
  H   H202      1.0  0.09515  0.20470  0.97063  1.0000
  Fe  Fe19      1.0  0.31715  0.01073  0.73567  1.0000
  N   N8        1.0  0.14318  0.17046  0.79236  1.0000
  C   C129      1.0  0.13181  0.17420  0.81287  1.0000
  C   C130      1.0  0.12764  0.16841  0.78170  1.0000
  C   C131      1.0  0.15268  0.18850  0.78157  1.0000
  C   C132      1.0  0.15933  0.15177  0.79497  1.0000
  H   H203      1.0  0.29912  0.03381  0.86972  1.0000
  C   C133      1.0  0.15849  0.19193  0.75855  1.0000
  H   H204      1.0  0.06137  0.21372  0.96393  1.0000
  H   H205      1.0  0.30457  0.21216  0.90054  1.0000
  H   H206      1.0  0.11881  0.18718  0.81171  1.0000
  H   H207      1.0  0.12483  0.16122  0.82178  1.0000
  C   C134      1.0  0.07718  0.22866  0.62786  1.0000
  C   C135      1.0  0.11658  0.15061  0.79098  1.0000
  H   H208      1.0  0.14209  0.20257  0.78510  1.0000
  H   H209      1.0  0.16675  0.18806  0.78676  1.0000
  H   H210      1.0  0.17130  0.15446  0.80146  1.0000
  C   C136      1.0  0.31189  0.04025  0.87091  1.0000
  H   H211      1.0  0.03468  0.19599  0.63434  1.0000
  C   C137      1.0  0.00888  0.19208  0.75969  1.0000
  H   H212      1.0  0.15605  0.16482  0.83046  1.0000
  H   H213      1.0  0.10716  0.14976  0.78068  1.0000
  H   H214      1.0  0.27065  0.22851  0.91471  1.0000
  H   H215      1.0  0.11545  0.21753  0.96967  1.0000
  H   H216      1.0  0.14475  0.19625  0.75188  1.0000
  C   C138      1.0  0.01385  0.06827  0.64882  1.0000
  H   H217      1.0  0.11561  0.20553  0.61966  1.0000
  H   H218      1.0  0.24419  0.05273  0.49831  1.0000
  H   H219      1.0  0.01826  0.11550  0.62383  1.0000
  H   H220      1.0  0.08090  0.23360  0.92153  1.0000
  H   H221      1.0  0.04877  0.23433  0.65034  1.0000
  H   H222      1.0  0.28051  0.05376  0.56506  1.0000
  H   H223      1.0  0.07951  0.08985  0.56625  1.0000
  H   H224      1.0  0.26552  0.00146  0.66541  1.0000
  H   H225      1.0  0.16876  0.17892  0.75280  1.0000
  C   C139      1.0  0.10356  0.22287  0.58661  1.0000
  C   C140      1.0  0.23542  0.98879  0.54999  1.0000
  C   C141      1.0  0.32774  0.06169  0.89488  1.0000
  H   H226      1.0  0.10881  0.11960  0.52314  1.0000
  C   C142      1.0  0.21773  0.04188  0.67214  1.0000
  C   C143      1.0  0.25901  0.04676  0.50309  1.0000
  H   H227      1.0  0.14031  0.05923  0.58917  1.0000
  H   H228      1.0  0.12696  0.11085  0.54905  1.0000
  S   S42       1.0  0.02860  0.09438  0.66221  1.0000
  H   H229      1.0  0.17530  0.04915  0.68630  1.0000
  H   H230      1.0  0.21997  0.02175  0.70931  1.0000
  H   H231      1.0  0.13421  0.18208  0.84003  1.0000
  H   H232      1.0  0.31840  0.02093  0.53083  1.0000
  H   H233      1.0  0.19200  0.18722  0.81606  1.0000
  C   C144      1.0  0.22873  0.22242  0.81626  1.0000
  C   C145      1.0  0.26684  0.02291  0.55669  1.0000
  C   C146      1.0  0.23770  0.04400  0.70544  1.0000
  N   N9        1.0  0.10658  0.09493  0.57319  1.0000
  C   C147      1.0  0.25487  0.03871  0.52585  1.0000
  H   H234      1.0  0.07426  0.16359  0.76860  1.0000
  S   S43       1.0  0.31000  0.17439  0.84894  1.0000
  H   H235      1.0  0.08012  0.08221  0.61093  1.0000
  C   C148      1.0  0.30706  0.06980  0.90775  1.0000
  C   C149      1.0  0.06137  0.22134  0.94822  1.0000
  H   H236      1.0  0.29506  0.02695  0.50859  1.0000
  C   C150      1.0  0.14462  0.17823  0.82604  1.0000
  H   H237      1.0  0.04812  0.23392  0.94784  1.0000
  H   H238      1.0  0.20738  0.04143  0.72252  1.0000
  H   H239      1.0  0.19791  0.08386  0.65902  1.0000
  C   C151      1.0  0.18980  0.08436  0.67468  1.0000
  C   C152      1.0  0.01218  0.21975  0.86017  1.0000
  H   H240      1.0  0.16663  0.20474  0.75296  1.0000
  H   H241      1.0  0.25214  0.16049  0.83300  1.0000
  H   H242      1.0  0.12739  0.13609  0.79288  1.0000
  Fe  Fe20      1.0  0.27463  0.98833  0.48405  1.0000
  H   H243      1.0  0.32499  0.01816  0.94761  1.0000
  H   H244      1.0  0.11037  0.09049  0.60384  1.0000
  H   H245      1.0  0.30144  0.08549  0.90074  1.0000
  H   H246      1.0  0.28935  0.23159  0.92652  1.0000
  H   H247      1.0  0.01492  0.17469  0.79755  1.0000
  H   H248      1.0  0.24274  0.05027  0.53261  1.0000
  H   H249      1.0  0.16940  0.01725  0.70318  1.0000
  H   H250      1.0  0.14546  0.09399  0.57956  1.0000
  H   H251      1.0  0.29476  0.06183  0.90875  1.0000
  H   H252      1.0  0.18512  0.14938  0.76927  1.0000
  C   C153      1.0  0.28946  0.01935  0.52414  1.0000
  N   N10       1.0  0.27318  0.03357  0.53547  1.0000
  H   H253      1.0  0.27715  0.16559  0.82924  1.0000
  H   H254      1.0  0.24799  0.04179  0.69093  1.0000
  H   H255      1.0  0.11377  0.05965  0.60136  1.0000
  H   H256      1.0  0.00175  0.19433  0.73070  1.0000
  C   C154      1.0  0.20599  0.04353  0.65568  1.0000
  H   H257      1.0  0.06410  0.19219  0.64658  1.0000
  H   H258      1.0  0.19219  0.05537  0.65554  1.0000
  N   N11       1.0  0.23179  0.20172  0.82908  1.0000
  C   C155      1.0  0.25431  0.19275  0.82454  1.0000
  H   H259      1.0  0.29362  0.01456  0.67111  1.0000
  C   C156      1.0  0.22025  0.18853  0.82383  1.0000
  C   C157      1.0  0.22552  0.20232  0.85106  1.0000
  H   H260      1.0  0.10163  0.18008  0.52842  1.0000
  C   C158      1.0  0.20018  0.19886  0.81660  1.0000
  C   C159      1.0  0.20334  0.21212  0.85872  1.0000
  H   H261      1.0  0.25995  0.19324  0.80818  1.0000
  H   H262      1.0  0.26345  0.20156  0.82872  1.0000
  H   H263      1.0  0.31958  0.09691  0.78911  1.0000
  S   S44       1.0  0.23144  0.99928  0.63433  1.0000
  H   H264      1.0  0.22990  0.18085  0.81151  1.0000
  H   H265      1.0  0.21661  0.17622  0.83669  1.0000
  H   H266      1.0  0.22768  0.18696  0.86025  1.0000
  H   H267      1.0  0.23541  0.21017  0.85531  1.0000
  S   S45       1.0  0.08302  0.21689  0.78864  1.0000
  H   H268      1.0  0.18957  0.20881  0.82635  1.0000
  H   H269      1.0  0.30721  0.03677  0.93545  1.0000
  H   H270      1.0  0.20341  0.20777  0.80122  1.0000
  H   H271      1.0  0.16191  0.14546  0.76470  1.0000
  H   H272      1.0  0.20118  0.21179  0.87495  1.0000
  H   H273      1.0  0.19232  0.20372  0.85724  1.0000
  H   H274      1.0  0.07482  0.10951  0.57970  1.0000
  H   H275      1.0  0.29766  0.06721  0.54633  1.0000
  H   H276      1.0  0.01742  0.05774  0.66202  1.0000
  H   H277      1.0  0.22521  0.02580  0.67538  1.0000
  C   C160      1.0  0.20262  0.07076  0.68954  1.0000
  H   H278      1.0  0.09407  0.21449  0.93770  1.0000
  H   H279      1.0  0.30324  0.03219  0.90266  1.0000
  H   H280      1.0  0.21627  0.04659  0.64082  1.0000
  H   H281      1.0  0.23609  0.05953  0.70753  1.0000
  H   H282      1.0  0.26706  0.03456  0.49471  1.0000
  H   H283      1.0  0.05692  0.16736  0.79153  1.0000
  C   C161      1.0  0.27326  0.99611  0.71929  1.0000
  C   C162      1.0  0.12494  0.05896  0.58709  1.0000
  H   H284      1.0  0.23341  0.03159  0.56496  1.0000
  H   H285      1.0  0.17422  0.08119  0.67740  1.0000
  C   C163      1.0  0.03274  0.21331  0.76175  1.0000
  H   H286      1.0  0.26777  0.05904  0.49868  1.0000
  C   C164      1.0  0.18467  0.04250  0.69766  1.0000
  H   H287      1.0  0.25928  0.17003  0.85150  1.0000
  H   H288      1.0  0.24769  0.02543  0.52856  1.0000
  C   C165      1.0  0.11942  0.07505  0.56894  1.0000
  C   C166      1.0  0.10378  0.19184  0.64916  1.0000
  C   C167      1.0  0.01549  0.19140  0.73720  1.0000
  C   C168      1.0  0.00369  0.09563  0.61534  1.0000
  C   C169      1.0  0.26758  0.99993  0.68042  1.0000
  C   C170      1.0  0.09890  0.21734  0.97496  1.0000
  S   S46       1.0  0.00671  0.20831  0.88545  1.0000
  H   H289      1.0  0.18768  0.10014  0.67637  1.0000
  C   C171      1.0  0.21680  0.03834  0.70781  1.0000
  H   H290      1.0  0.15304  0.13949  0.80634  1.0000
  C   C172      1.0  0.04619  0.20461  0.62427  1.0000
  H   H291      1.0  0.18902  0.01258  0.71695  1.0000
  H   H292      1.0  0.03938  0.21679  0.77305  1.0000
  H   H293      1.0  0.13436  0.07737  0.55893  1.0000
  C   C173      1.0  0.26069  0.17096  0.83529  1.0000
  H   H294      1.0  0.11191  0.06829  0.56065  1.0000
  H   H295      1.0  0.24611  0.02654  0.58518  1.0000
  C   C174      1.0  0.13356  0.10619  0.58531  1.0000
  H   H296      1.0  0.00128  0.21986  0.79764  1.0000
  H   H297      1.0  0.12629  0.04388  0.58386  1.0000
  C   C175      1.0  0.00335  0.06304  0.63673  1.0000
  H   H298      1.0  0.09195  0.18332  0.65837  1.0000
  H   H299      1.0  0.03804  0.16212  0.76870  1.0000
  C   C176      1.0  0.06097  0.17408  0.77546  1.0000
  C   C177      1.0  0.03750  0.22832  0.83009  1.0000
  C   C178      1.0  0.08408  0.09429  0.57834  1.0000
  C   C179      1.0  0.17100  0.14317  0.77614  1.0000
  C   C180      1.0  0.08601  0.21208  0.59895  1.0000
  Fe  Fe21      1.0  0.07712  0.18775  0.49165  1.0000
  H   H300      1.0  0.32462  0.03678  0.85824  1.0000
  H   H301      1.0  0.04554  0.21243  0.74854  1.0000
  H   H302      1.0  0.31817  0.99833  0.52387  1.0000
  H   H303      1.0  0.15219  0.19121  0.81891  1.0000
  H   H304      1.0  0.30873  0.06981  0.92299  1.0000
  Fe  Fe22      1.0  0.19801  0.00291  0.63467  1.0000
  C   C181      1.0  0.11192  0.10158  0.58971  1.0000
  H   H305      1.0  0.10589  0.15266  0.80534  1.0000
  H   H306      1.0  0.04470  0.21159  0.85815  1.0000
  S   S47       1.0  0.12030  0.22752  0.81508  1.0000
  H   H307      1.0  0.13432  0.16706  0.76595  1.0000
  S   S48       1.0  0.24760  0.99328  0.50951  1.0000
  C   C182      1.0  0.28040  0.05269  0.53409  1.0000
  N   N12       1.0  0.20535  0.04841  0.69128  1.0000
  S   S49       1.0  0.10437  0.19195  0.74207  1.0000
  S   S50       1.0  0.05926  0.21916  0.49094  1.0000
  C   C183      1.0  0.25431  0.99071  0.69661  1.0000
  C   C184      1.0  0.28351  0.00732  0.68371  1.0000
  N   N13       1.0  0.08315  0.20860  0.62141  1.0000
  H   H308      1.0  0.29086  0.05648  0.51942  1.0000
  C   C185      1.0  0.29989  0.22862  0.89574  1.0000
  H   H309      1.0  0.26445  0.00777  0.55685  1.0000
  H   H310      1.0  0.17549  0.12663  0.78040  1.0000
  S   S51       1.0  0.32498  0.11552  0.87233  1.0000
  H   H311      1.0  0.11866  0.21273  0.58665  1.0000
  C   C186      1.0  0.31772  0.03084  0.89135  1.0000
  Fe  Fe23      1.0  0.31506  0.98959  0.77892  1.0000
  H   H312      1.0  0.10096  0.11534  0.59343  1.0000
  H   H313      1.0  0.08862  0.19765  0.59383  1.0000
  H   H314      1.0  0.28292  0.00678  0.52279  1.0000
  H   H315      1.0  0.24542  0.03409  0.71729  1.0000
  Fe  Fe24      1.0  0.32587  0.03094  0.76630  1.0000
  H   H316      1.0  0.06600  0.18839  0.77368  1.0000
  S   S52       1.0  0.23283  0.21975  0.90252  1.0000
  H   H317      1.0  0.05891  0.21035  0.94048  1.0000
  Fe  Fe25      1.0  0.09553  0.22003  0.75560  1.0000
  C   C187      1.0  0.03261  0.21906  0.85019  1.0000
  H   H318      1.0  0.19554  0.01218  0.69058  1.0000
  N   N14       1.0  0.02543  0.19361  0.76938  1.0000
  S   S53       1.0  0.07142  0.16334  0.51896  1.0000
  H   H319      1.0  0.10280  0.20542  0.65507  1.0000
  H   H320      1.0  0.02962  0.19166  0.79933  1.0000
  H   H321      1.0  0.04680  0.20298  0.60885  1.0000
  H   H322      1.0  0.07255  0.18096  0.62565  1.0000
  C   C188      1.0  0.06707  0.19583  0.63014  1.0000
  H   H323      1.0  0.19976  0.22806  0.85145  1.0000
  H   H324      1.0  0.27518  0.99493  0.73427  1.0000
  H   H325      1.0  0.30417  0.04057  0.55235  1.0000
  C   C189      1.0  0.08179  0.22813  0.93751  1.0000
  Fe  Fe26      1.0  0.33124  0.14685  0.86153  1.0000
  H   H326      1.0  0.11939  0.23165  0.93738  1.0000
  C   C190      1.0  0.31965  0.02370  0.93330  1.0000
  H   H327      1.0  0.15565  0.23256  0.97129  1.0000
  C   C191      1.0  0.29131  0.05327  0.55046  1.0000
  C   C192      1.0  0.30875  0.00980  0.53268  1.0000
  H   H328      1.0  0.13417  0.22929  0.84946  1.0000
  S   S54       1.0  0.19039  0.98600  0.66610  1.0000
  C   C193      1.0  0.32870  0.08476  0.79765  1.0000
  H   H329      1.0  0.22627  0.98695  0.58182  1.0000
  H   H330      1.0  0.21253  0.23016  0.81923  1.0000
  H   H331      1.0  0.32291  0.01442  0.89192  1.0000
  H   H332      1.0  0.25771  0.23295  0.81097  1.0000
  H   H333      1.0  0.29395  0.23063  0.88208  1.0000
  H   H334      1.0  0.30539  0.00176  0.54836  1.0000
  H   H335      1.0  0.01295  0.23170  0.74119  1.0000
  H   H336      1.0  0.25761  0.23275  0.86349  1.0000
  H   H337      1.0  0.00250  0.17833  0.76725  1.0000
  H   H338      1.0  0.32836  0.06986  0.87916  1.0000
  H   H339      1.0  0.09094  0.23531  0.62546  1.0000
  C   C194      1.0  0.25719  0.98894  0.71604  1.0000
  H   H340      1.0  0.00292  0.23452  0.76677  1.0000
  C   C195      1.0  0.06542  0.22906  0.64969  1.0000
  H   H341      1.0  0.31385  0.23501  0.89240  1.0000
  S   S55       1.0  0.31505  0.47529  0.28159  1.0000
  C   C196      1.0  0.06642  0.46883  0.10105  1.0000
  Fe  Fe27      1.0  0.02892  0.32888  0.37495  1.0000
  S   S56       1.0  0.04033  0.30599  0.35534  1.0000
  S   S57       1.0  0.04899  0.32999  0.39483  1.0000
  Fe  Fe28      1.0  0.02755  0.33052  0.33236  1.0000
  S   S58       1.0  0.04285  0.33973  0.30037  1.0000
  C   C197      1.0  0.04447  0.25122  0.31998  1.0000
  H   H342      1.0  0.06116  0.29846  0.31459  1.0000
  S   S59       1.0  0.01864  0.35404  0.35121  1.0000
  H   H343      1.0  0.24161  0.39462  0.00924  1.0000
  H   H344      1.0  0.03450  0.25953  0.45993  1.0000
  Fe  Fe29      1.0  0.02227  0.45460  0.22007  1.0000
  S   S60       1.0  0.30650  0.40464  0.44817  1.0000
  H   H345      1.0  0.11470  0.35301  0.30709  1.0000
  H   H346      1.0  0.05614  0.31490  0.43265  1.0000
  S   S61       1.0  0.22330  0.34993  0.36089  1.0000
  C   C198      1.0  0.00597  0.25743  0.39799  1.0000
  H   H347      1.0  0.23995  0.40599  0.31466  1.0000
  H   H348      1.0  0.11042  0.29159  0.30051  1.0000
  Fe  Fe30      1.0  0.19025  0.43941  0.19332  1.0000
  S   S62       1.0  0.18939  0.42413  0.22519  1.0000
  S   S63       1.0  0.19590  0.42383  0.16734  1.0000
  N   N15       1.0  0.06843  0.46528  0.08031  1.0000
  C   C199      1.0  0.29431  0.41500  0.30982  1.0000
  Fe  Fe31      1.0  0.20689  0.44671  0.22706  1.0000
  S   S64       1.0  0.23339  0.43774  0.24314  1.0000
  C   C200      1.0  0.15486  0.33474  0.29782  1.0000
  H   H349      1.0  0.15360  0.39167  0.32219  1.0000
  S   S65       1.0  0.30150  0.37618  0.40895  1.0000
  H   H350      1.0  0.12453  0.43735  0.21224  1.0000
  Fe  Fe32      1.0  0.30369  0.34349  0.42244  1.0000
  S   S66       1.0  0.27972  0.32551  0.42437  1.0000
  S   S67       1.0  0.13281  0.35409  0.34684  1.0000
  S   S68       1.0  0.17305  0.32881  0.38278  1.0000
  H   H351      1.0  0.12572  0.30389  0.26381  1.0000
  S   S69       1.0  0.05907  0.31109  0.04949  1.0000
  S   S70       1.0  0.06973  0.27909  0.00953  1.0000
  Fe  Fe33      1.0  0.12701  0.39580  0.09456  1.0000
  S   S71       1.0  0.11109  0.40740  0.12248  1.0000
  S   S72       1.0  0.14601  0.41341  0.06853  1.0000
  Fe  Fe34      1.0  0.11185  0.35624  0.10902  1.0000
  S   S73       1.0  0.09488  0.36457  0.13841  1.0000
  S   S74       1.0  0.11243  0.32483  0.10489  1.0000
  Fe  Fe35      1.0  0.08507  0.39477  0.12047  1.0000
  C   C201      1.0  0.13868  0.28342  0.42619  1.0000
  Fe  Fe36      1.0  0.12232  0.37651  0.13831  1.0000
  S   S75       1.0  0.13157  0.37260  0.16770  1.0000
  S   S76       1.0  0.09976  0.38582  0.09083  1.0000
  S   S77       1.0  0.14053  0.36546  0.11048  1.0000
  H   H352      1.0  0.11294  0.28690  0.01289  1.0000
  H   H353      1.0  0.05885  0.33982  0.25896  1.0000
  C   C202      1.0  0.07332  0.31435  0.06573  1.0000
  C   C203      1.0  0.08496  0.29813  0.07642  1.0000
  C   C204      1.0  0.09677  0.30152  0.08848  1.0000
  C   C205      1.0  0.09699  0.32111  0.09002  1.0000
  C   C206      1.0  0.08525  0.33728  0.07943  1.0000
  C   C207      1.0  0.07349  0.33390  0.06737  1.0000
  H   H354      1.0  0.08492  0.28301  0.07534  1.0000
  H   H355      1.0  0.10581  0.28892  0.09661  1.0000
  H   H356      1.0  0.08524  0.35241  0.08050  1.0000
  H   H357      1.0  0.06452  0.34653  0.05920  1.0000
  C   C208      1.0  0.06548  0.44426  0.08188  1.0000
  H   H358      1.0  0.18737  0.44020  0.27218  1.0000
  H   H359      1.0  0.20901  0.39370  0.29577  1.0000
  C   C209      1.0  0.18684  0.43448  0.28836  1.0000
  H   H360      1.0  0.06087  0.25086  0.34263  1.0000
  C   C210      1.0  0.03899  0.26336  0.27709  1.0000
  H   H361      1.0  0.03105  0.27858  0.43171  1.0000
  H   H362      1.0  0.08237  0.28493  0.42814  1.0000
  H   H363      1.0  0.23205  0.30661  0.43432  1.0000
  H   H364      1.0  0.13531  0.28165  0.30497  1.0000
  H   H365      1.0  0.18121  0.46983  0.04372  1.0000
  H   H366      1.0  0.12704  0.44149  0.09607  1.0000
  C   C211      1.0  0.15701  0.47517  0.06909  1.0000
  H   H367      1.0  0.15263  0.33359  0.31411  1.0000
  Fe  Fe37      1.0  0.04461  0.26231  0.01384  1.0000
  H   H368      1.0  0.14005  0.29802  0.41700  1.0000
  H   H369      1.0  0.14115  0.29742  0.99209  1.0000
  C   C212      1.0  0.18753  0.37758  0.26918  1.0000
  C   C213      1.0  0.14909  0.31710  0.29254  1.0000
  C   C214      1.0  0.26644  0.33207  0.40467  1.0000
  C   C215      1.0  0.26141  0.35205  0.39523  1.0000
  C   C216      1.0  0.24872  0.35724  0.38130  1.0000
  C   C217      1.0  0.24103  0.34252  0.37666  1.0000
  C   C218      1.0  0.24681  0.32242  0.38539  1.0000
  C   C219      1.0  0.25939  0.31725  0.39943  1.0000
  H   H370      1.0  0.26665  0.36359  0.39923  1.0000
  H   H371      1.0  0.24433  0.37280  0.37460  1.0000
  H   H372      1.0  0.24132  0.31094  0.38155  1.0000
  H   H373      1.0  0.26351  0.30173  0.40644  1.0000
  C   C220      1.0  0.17880  0.40854  0.16790  1.0000
  C   C221      1.0  0.16631  0.40102  0.18580  1.0000
  C   C222      1.0  0.15235  0.38939  0.18567  1.0000
  C   C223      1.0  0.15025  0.38590  0.16760  1.0000
  C   C224      1.0  0.16279  0.39334  0.14973  1.0000
  C   C225      1.0  0.17732  0.40425  0.14996  1.0000
  H   H374      1.0  0.16743  0.40418  0.19971  1.0000
  H   H375      1.0  0.14272  0.38361  0.19955  1.0000
  H   H376      1.0  0.16136  0.39062  0.13573  1.0000
  H   H377      1.0  0.18700  0.40997  0.13608  1.0000
  C   C226      1.0  0.31490  0.42448  0.47322  1.0000
  H   H378      1.0  0.16689  0.32359  0.43963  1.0000
  H   H379      1.0  0.08520  0.43370  0.05511  1.0000
  H   H380      1.0  0.17276  0.35037  0.41701  1.0000
  H   H381      1.0  0.30712  0.43362  0.98236  1.0000
  C   C227      1.0  0.13868  0.44774  0.08454  1.0000
  H   H382      1.0  0.31468  0.44303  0.37639  1.0000
  H   H383      1.0  0.23701  0.40292  0.04007  1.0000
  H   H384      1.0  0.26951  0.45717  0.34766  1.0000
  N   N16       1.0  0.17647  0.39984  0.29584  1.0000
  Fe  Fe38      1.0  0.00841  0.30009  0.36563  1.0000
  C   C228      1.0  0.24077  0.45598  0.25192  1.0000
  C   C229      1.0  0.26140  0.45431  0.25228  1.0000
  H   H385      1.0  0.16291  0.30208  0.47002  1.0000
  H   H386      1.0  0.27260  0.44190  0.24710  1.0000
  N   N17       1.0  0.02376  0.25531  0.31497  1.0000
  C   C230      1.0  0.08312  0.29106  0.26720  1.0000
  H   H387      1.0  0.08041  0.31349  0.24063  1.0000
  S   S78       1.0  0.18886  0.33447  0.33407  1.0000
  C   C231      1.0  0.05830  0.32078  0.28797  1.0000
  S   S79       1.0  0.16290  0.29877  0.35819  1.0000
  H   H388      1.0  0.20234  0.42643  0.29017  1.0000
  C   C232      1.0  0.07631  0.31017  0.25675  1.0000
  C   C233      1.0  0.19293  0.39305  0.32645  1.0000
  Fe  Fe39      1.0  0.08860  0.24952  0.01979  1.0000
  C   C234      1.0  0.01266  0.25694  0.98334  1.0000
  H   H389      1.0  0.16613  0.28476  0.45367  1.0000
  H   H390      1.0  0.01133  0.25158  0.29104  1.0000
  Fe  Fe40      1.0  0.05982  0.28113  0.04189  1.0000
  H   H391      1.0  0.07592  0.39480  0.15960  1.0000
  Fe  Fe41      1.0  0.20300  0.32892  0.36068  1.0000
  H   H392      1.0  0.09959  0.29192  0.33328  1.0000
  H   H393      1.0  0.08813  0.31798  0.32583  1.0000
  C   C235      1.0  0.24656  0.41470  0.03535  1.0000
  H   H394      1.0  0.23548  0.42896  0.03719  1.0000
  C   C236      1.0  0.02630  0.33328  0.46229  1.0000
  H   H395      1.0  0.26831  0.39463  0.05313  1.0000
  H   H396      1.0  0.28525  0.39183  0.36803  1.0000
  H   H397      1.0  0.31986  0.47984  0.45300  1.0000
  C   C237      1.0  0.06527  0.30174  0.29848  1.0000
  H   H398      1.0  0.12640  0.26755  0.38688  1.0000
  H   H399      1.0  0.06138  0.46160  0.24895  1.0000
  H   H400      1.0  0.12204  0.42231  0.18468  1.0000
  C   C238      1.0  0.07238  0.33621  0.38117  1.0000
  C   C239      1.0  0.07344  0.34944  0.36277  1.0000
  C   C240      1.0  0.09201  0.35513  0.35242  1.0000
  C   C241      1.0  0.10968  0.34706  0.36012  1.0000
  C   C242      1.0  0.10881  0.33329  0.37819  1.0000
  C   C243      1.0  0.09007  0.32814  0.38889  1.0000
  H   H401      1.0  0.05981  0.35580  0.35683  1.0000
  H   H402      1.0  0.09266  0.36585  0.33850  1.0000
  H   H403      1.0  0.12245  0.32700  0.38416  1.0000
  H   H404      1.0  0.08931  0.31788  0.40310  1.0000
  H   H405      1.0  0.15442  0.44227  0.14641  1.0000
  H   H406      1.0  0.15261  0.24689  0.31796  1.0000
  C   C244      1.0  0.12261  0.43853  0.18178  1.0000
  H   H407      1.0  0.10562  0.47933  0.14714  1.0000
  H   H408      1.0  0.14627  0.26957  0.02497  1.0000
  H   H409      1.0  0.15755  0.29839  0.00741  1.0000
  C   C245      1.0  0.11411  0.44545  0.20197  1.0000
  H   H410      1.0  0.11838  0.31454  0.04875  1.0000
  C   C246      1.0  0.00510  0.41902  0.27223  1.0000
  S   S80       1.0  0.12114  0.24023  0.00341  1.0000
  C   C247      1.0  0.27326  0.44604  0.01362  1.0000
  H   H411      1.0  0.13914  0.43875  0.17776  1.0000
  H   H412      1.0  0.01102  0.42366  0.25597  1.0000
  C   C248      1.0  0.32484  0.44514  0.34457  1.0000
  H   H413      1.0  0.15441  0.33350  0.02203  1.0000
  H   H414      1.0  0.07037  0.48339  0.10053  1.0000
  Fe  Fe42      1.0  0.05377  0.23820  0.05367  1.0000
  C   C249      1.0  0.21945  0.28604  0.42506  1.0000
  H   H415      1.0  0.21776  0.29194  0.45407  1.0000
  H   H416      1.0  0.14271  0.39343  0.28185  1.0000
  C   C250      1.0  0.22384  0.42361  0.00135  1.0000
  C   C251      1.0  0.16818  0.24887  0.31184  1.0000
  H   H417      1.0  0.04506  0.24197  0.42272  1.0000
  H   H418      1.0  0.21498  0.42665  0.01616  1.0000
  H   H419      1.0  0.27053  0.42050  0.04813  1.0000
  H   H420      1.0  0.00880  0.29087  0.47638  1.0000
  H   H421      1.0  0.01486  0.44206  0.18643  1.0000
  H   H422      1.0  0.09767  0.47853  0.17318  1.0000
  H   H423      1.0  0.01218  0.40650  0.30796  1.0000
  N   N18       1.0  0.27741  0.42618  0.32370  1.0000
  H   H424      1.0  0.09588  0.32919  0.02518  1.0000
  C   C252      1.0  0.25645  0.42551  0.32140  1.0000
  H   H425      1.0  0.22533  0.43791  0.99062  1.0000
  C   C253      1.0  0.29385  0.42156  0.28743  1.0000
  H   H426      1.0  0.27356  0.37370  0.00554  1.0000
  C   C254      1.0  0.11200  0.45718  0.24745  1.0000
  H   H427      1.0  0.26538  0.42321  0.35567  1.0000
  H   H428      1.0  0.24448  0.43291  0.33264  1.0000
  H   H429      1.0  0.25312  0.43471  0.30691  1.0000
  H   H430      1.0  0.04107  0.39890  0.25528  1.0000
  Fe  Fe43      1.0  0.15960  0.33181  0.35616  1.0000
  H   H431      1.0  0.27923  0.42048  0.28430  1.0000
  S   S81       1.0  0.17902  0.27068  0.40928  1.0000
  H   H432      1.0  0.29464  0.39865  0.31354  1.0000
  H   H433      1.0  0.18088  0.30538  0.42573  1.0000
  H   H434      1.0  0.26441  0.39343  0.31809  1.0000
  H   H435      1.0  0.21616  0.35005  0.44454  1.0000
  H   H436      1.0  0.19710  0.37303  0.30656  1.0000
  H   H437      1.0  0.17012  0.40786  0.26610  1.0000
  H   H438      1.0  0.19188  0.37884  0.25270  1.0000
  H   H439      1.0  0.17423  0.37006  0.27445  1.0000
  C   C255      1.0  0.12947  0.47983  0.16150  1.0000
  H   H440      1.0  0.15714  0.25583  0.36935  1.0000
  H   H441      1.0  0.28376  0.46803  0.25801  1.0000
  S   S82       1.0  0.05382  0.41323  0.12811  1.0000
  H   H442      1.0  0.10525  0.36316  0.28488  1.0000
  H   H443      1.0  0.11966  0.33427  0.27355  1.0000
  C   C256      1.0  0.11017  0.47212  0.16164  1.0000
  H   H444      1.0  0.06531  0.40409  0.27224  1.0000
  C   C257      1.0  0.04512  0.46952  0.11488  1.0000
  C   C258      1.0  0.17517  0.26454  0.31586  1.0000
  C   C259      1.0  0.16918  0.46385  0.05499  1.0000
  Fe  Fe44      1.0  0.31682  0.37752  0.43317  1.0000
  H   H445      1.0  0.13054  0.27743  0.27265  1.0000
  H   H446      1.0  0.02521  0.28701  0.30695  1.0000
  C   C260      1.0  0.05836  0.40657  0.18543  1.0000
  C   C261      1.0  0.20371  0.33291  0.41942  1.0000
  C   C262      1.0  0.18801  0.35273  0.41719  1.0000
  H   H447      1.0  0.21881  0.33702  0.41731  1.0000
  H   H448      1.0  0.20487  0.32621  0.40632  1.0000
  H   H449      1.0  0.09104  0.42869  0.17524  1.0000
  H   H450      1.0  0.30225  0.38998  0.34467  1.0000
  H   H451      1.0  0.00237  0.37451  0.24661  1.0000
  H   H452      1.0  0.20794  0.27628  0.43126  1.0000
  H   H453      1.0  0.18672  0.36144  0.42878  1.0000
  H   H454      1.0  0.19605  0.40567  0.26664  1.0000
  H   H455      1.0  0.04497  0.37912  0.27574  1.0000
  H   H456      1.0  0.32377  0.45927  0.44101  1.0000
  H   H457      1.0  0.18350  0.44737  0.29602  1.0000
  H   H458      1.0  0.01838  0.34921  0.45995  1.0000
  H   H459      1.0  0.06261  0.42347  0.06477  1.0000
  C   C263      1.0  0.03166  0.42917  0.16077  1.0000
  H   H460      1.0  0.10767  0.29309  0.44130  1.0000
  H   H461      1.0  0.10453  0.25898  0.40304  1.0000
  H   H462      1.0  0.00548  0.24734  0.34462  1.0000
  C   C264      1.0  0.14386  0.30695  0.00139  1.0000
  H   H463      1.0  0.14687  0.34935  0.29074  1.0000
  H   H464      1.0  0.07624  0.43324  0.09051  1.0000
  H   H465      1.0  0.10106  0.45396  0.07627  1.0000
  H   H466      1.0  0.23473  0.27607  0.42404  1.0000
  S   S83       1.0  0.17890  0.46926  0.23611  1.0000
  H   H467      1.0  0.05535  0.25994  0.27789  1.0000
  H   H468      1.0  0.08060  0.44457  0.14415  1.0000
  C   C265      1.0  0.15882  0.38942  0.30647  1.0000
  C   C266      1.0  0.04872  0.40780  0.27882  1.0000
  Fe  Fe45      1.0  0.16165  0.44790  0.23174  1.0000
  S   S84       1.0  0.03054  0.26965  0.98641  1.0000
  H   H469      1.0  0.02464  0.30348  0.41968  1.0000
  H   H470      1.0  0.15987  0.30343  0.29791  1.0000
  C   C267      1.0  0.14175  0.46708  0.08395  1.0000
  C   C268      1.0  0.02239  0.29344  0.43456  1.0000
  H   H471      1.0  0.17148  0.33429  0.29180  1.0000
  H   H472      1.0  0.11352  0.34156  0.00683  1.0000
  N   N19       1.0  0.11199  0.30805  0.18159  1.0000
  C   C269      1.0  0.13448  0.30247  0.17282  1.0000
  C   C270      1.0  0.10653  0.29225  0.19975  1.0000
  C   C271      1.0  0.10691  0.32806  0.18788  1.0000
  C   C272      1.0  0.10018  0.30936  0.16591  1.0000
  C   C273      1.0  0.14363  0.31797  0.15534  1.0000
  C   C274      1.0  0.10563  0.27189  0.19561  1.0000
  C   C275      1.0  0.11897  0.33002  0.20273  1.0000
  C   C276      1.0  0.07667  0.31450  0.17237  1.0000
  H   H473      1.0  0.14370  0.29926  0.18447  1.0000
  H   H474      1.0  0.13779  0.28832  0.16707  1.0000
  H   H475      1.0  0.09164  0.29758  0.20942  1.0000
  H   H476      1.0  0.11771  0.28900  0.20958  1.0000
  H   H477      1.0  0.10900  0.34039  0.17471  1.0000
  H   H478      1.0  0.09044  0.33164  0.19506  1.0000
  H   H479      1.0  0.10420  0.32122  0.15279  1.0000
  H   H480      1.0  0.10461  0.29559  0.15933  1.0000
  H   H481      1.0  0.16025  0.31223  0.15061  1.0000
  H   H482      1.0  0.13698  0.32040  0.14201  1.0000
  H   H483      1.0  0.14220  0.33249  0.15966  1.0000
  H   H484      1.0  0.09273  0.27310  0.18842  1.0000
  H   H485      1.0  0.12013  0.26526  0.18643  1.0000
  H   H486      1.0  0.10297  0.26124  0.21009  1.0000
  H   H487      1.0  0.13554  0.32871  0.19614  1.0000
  H   H488      1.0  0.11647  0.31906  0.21693  1.0000
  H   H489      1.0  0.11356  0.34521  0.20649  1.0000
  H   H490      1.0  0.07114  0.33100  0.16934  1.0000
  H   H491      1.0  0.07085  0.30864  0.18831  1.0000
  H   H492      1.0  0.06969  0.30756  0.16383  1.0000
  S   S85       1.0  0.03726  0.42303  0.21770  1.0000
  Fe  Fe46      1.0  0.19324  0.30117  0.33789  1.0000
  H   H493      1.0  0.17962  0.38776  0.33722  1.0000
  C   C277      1.0  0.12036  0.28059  0.43989  1.0000
  H   H494      1.0  0.30356  0.43679  0.46780  1.0000
  H   H495      1.0  0.22870  0.32617  0.45671  1.0000
  H   H496      1.0  0.12405  0.25915  0.03670  1.0000
  S   S86       1.0  0.16123  0.46175  0.19969  1.0000
  C   C278      1.0  0.01003  0.24243  0.33000  1.0000
  C   C279      1.0  0.07790  0.28699  0.28805  1.0000
  C   C280      1.0  0.03182  0.47796  0.07280  1.0000
  H   H497      1.0  0.06240  0.28670  0.41575  1.0000
  C   C281      1.0  0.18236  0.39879  0.27401  1.0000
  C   C282      1.0  0.02803  0.43153  0.18065  1.0000
  S   S87       1.0  0.21064  0.45970  0.19422  1.0000
  C   C283      1.0  0.27976  0.44786  0.31827  1.0000
  N   N20       1.0  0.19938  0.31798  0.43858  1.0000
  C   C284      1.0  0.11282  0.33049  0.28976  1.0000
  C   C285      1.0  0.07667  0.45377  0.15587  1.0000
  Fe  Fe47      1.0  0.17958  0.29582  0.38257  1.0000
  H   H498      1.0  0.09871  0.32504  0.29044  1.0000
  H   H499      1.0  0.07685  0.46971  0.14903  1.0000
  H   H500      1.0  0.20072  0.36807  0.27530  1.0000
  C   C286      1.0  0.06407  0.32504  0.26713  1.0000
  C   C287      1.0  0.10540  0.35035  0.29773  1.0000
  H   H501      1.0  0.08929  0.35145  0.30613  1.0000
  C   C288      1.0  0.28610  0.39541  0.35165  1.0000
  C   C289      1.0  0.10032  0.30765  0.33294  1.0000
  H   H502      1.0  0.09685  0.30949  0.34874  1.0000
  S   S88       1.0  0.03243  0.26740  0.04539  1.0000
  H   H503      1.0  0.20679  0.38428  0.33193  1.0000
  C   C290      1.0  0.27975  0.41829  0.34509  1.0000
  N   N21       1.0  0.12729  0.31411  0.30031  1.0000
  C   C291      1.0  0.13377  0.29177  0.27401  1.0000
  S   S89       1.0  0.20458  0.28752  0.31040  1.0000
  C   C292      1.0  0.26106  0.43664  0.00404  1.0000
  C   C293      1.0  0.12630  0.29430  0.29599  1.0000
  C   C294      1.0  0.12176  0.31226  0.32271  1.0000
  H   H504      1.0  0.12261  0.32592  0.32739  1.0000
  S   S90       1.0  0.21056  0.29567  0.36229  1.0000
  C   C295      1.0  0.09044  0.44520  0.17130  1.0000
  C   C296      1.0  0.20848  0.25400  0.29583  1.0000
  H   H505      1.0  0.15312  0.31944  0.27595  1.0000
  H   H506      1.0  0.19238  0.40897  0.32655  1.0000
  H   H507      1.0  0.28841  0.40445  0.01977  1.0000
  H   H508      1.0  0.13309  0.30032  0.32977  1.0000
  C   C297      1.0  0.19453  0.38955  0.30531  1.0000
  H   H509      1.0  0.30946  0.41646  0.31158  1.0000
  H   H510      1.0  0.24958  0.46275  0.33339  1.0000
  C   C298      1.0  0.17016  0.42162  0.29751  1.0000
  C   C299      1.0  0.21752  0.30086  0.43876  1.0000
  H   H511      1.0  0.00988  0.42948  0.27896  1.0000
  H   H512      1.0  0.09008  0.33841  0.98954  1.0000
  H   H513      1.0  0.29579  0.44895  0.31749  1.0000
  C   C300      1.0  0.12236  0.44156  0.14647  1.0000
  H   H514      1.0  0.03311  0.27968  0.27602  1.0000
  C   C301      1.0  0.13962  0.39609  0.29729  1.0000
  H   H515      1.0  0.04713  0.40453  0.29526  1.0000
  H   H516      1.0  0.16500  0.27461  0.32511  1.0000
  C   C302      1.0  0.02551  0.28872  0.46996  1.0000
  C   C303      1.0  0.19533  0.26724  0.30760  1.0000
  C   C304      1.0  0.07595  0.46599  0.24620  1.0000
  H   H517      1.0  0.09141  0.43635  0.25764  1.0000
  S   S91       1.0  0.13345  0.43904  0.25280  1.0000
  H   H518      1.0  0.04381  0.42408  0.27344  1.0000
  H   H519      1.0  0.15745  0.42911  0.28963  1.0000
  H   H520      1.0  0.13251  0.47566  0.09505  1.0000
  H   H521      1.0  0.13254  0.41204  0.29754  1.0000
  H   H522      1.0  0.15052  0.43756  0.12420  1.0000
  H   H523      1.0  0.16356  0.37289  0.30768  1.0000
  H   H524      1.0  0.06423  0.26907  0.43905  1.0000
  C   C305      1.0  0.04132  0.42009  0.19300  1.0000
  C   C306      1.0  0.27815  0.40152  0.01143  1.0000
  C   C307      1.0  0.05403  0.48114  0.06920  1.0000
  H   H525      1.0  0.06880  0.39789  0.19487  1.0000
  C   C308      1.0  0.06235  0.40475  0.16542  1.0000
  H   H526      1.0  0.17480  0.43655  0.04385  1.0000
  H   H527      1.0  0.16343  0.42357  0.31320  1.0000
  H   H528      1.0  0.00269  0.32317  0.45516  1.0000
  H   H529      1.0  0.02122  0.43782  0.15132  1.0000
  H   H530      1.0  0.15055  0.29062  0.26902  1.0000
  H   H531      1.0  0.02125  0.33126  0.43399  1.0000
  C   C309      1.0  0.27734  0.37899  0.01755  1.0000
  C   C310      1.0  0.31938  0.40655  0.46602  1.0000
  H   H532      1.0  0.04292  0.33329  0.45805  1.0000
  C   C311      1.0  0.15360  0.24872  0.43717  1.0000
  S   S92       1.0  0.31654  0.34533  0.44827  1.0000
  N   N22       1.0  0.11176  0.44976  0.16516  1.0000
  C   C312      1.0  0.15538  0.26750  0.42502  1.0000
  C   C313      1.0  0.09931  0.32394  0.99559  1.0000
  H   H533      1.0  0.04615  0.47086  0.12993  1.0000
  H   H534      1.0  0.21799  0.29367  0.40967  1.0000
  H   H535      1.0  0.14329  0.46832  0.16310  1.0000
  H   H536      1.0  0.09893  0.44161  0.20928  1.0000
  C   C314      1.0  0.16564  0.44495  0.05515  1.0000
  H   H537      1.0  0.08183  0.45106  0.18501  1.0000
  H   H538      1.0  0.14393  0.30215  0.04084  1.0000
  S   S93       1.0  0.31538  0.47096  0.33974  1.0000
  C   C315      1.0  0.04888  0.41580  0.15311  1.0000
  H   H539      1.0  0.03901  0.45580  0.11693  1.0000
  C   C316      1.0  0.10864  0.32692  0.01207  1.0000
  H   H540      1.0  0.29164  0.42469  0.34824  1.0000
  C   C317      1.0  0.01099  0.39333  0.30238  1.0000
  H   H541      1.0  0.16685  0.32330  0.98168  1.0000
  C   C318      1.0  0.11841  0.26162  0.45165  1.0000
  H   H542      1.0  0.21474  0.41608  0.99556  1.0000
  H   H543      1.0  0.26924  0.47709  0.32659  1.0000
  C   C319      1.0  0.24490  0.40988  0.00245  1.0000
  C   C320      1.0  0.13157  0.31430  0.03579  1.0000
  S   S94       1.0  0.09790  0.27245  0.25393  1.0000
  C   C321      1.0  0.15038  0.43680  0.06985  1.0000
  C   C322      1.0  0.06869  0.43745  0.06190  1.0000
  H   H544      1.0  0.12799  0.38716  0.30642  1.0000
  C   C323      1.0  0.02566  0.25454  0.40149  1.0000
  H   H545      1.0  0.08361  0.27245  0.29614  1.0000
  C   C324      1.0  0.09294  0.45170  0.25121  1.0000
  H   H546      1.0  0.27653  0.45499  0.30321  1.0000
  H   H547      1.0  0.28808  0.43640  0.01593  1.0000
  H   H548      1.0  0.24472  0.39879  0.33959  1.0000
  H   H549      1.0  0.16562  0.24563  0.39153  1.0000
  S   S95       1.0  0.09545  0.25811  0.46865  1.0000
  H   H550      1.0  0.05392  0.26151  0.30952  1.0000
  H   H551      1.0  0.02307  0.38088  0.30764  1.0000
  H   H552      1.0  0.14267  0.46238  0.12896  1.0000
  C   C325      1.0  0.18015  0.31089  0.43949  1.0000
  C   C326      1.0  0.01940  0.32218  0.44946  1.0000
  H   H553      1.0  0.05018  0.44182  0.09053  1.0000
  H   H554      1.0  0.12395  0.42493  0.14971  1.0000
  H   H555      1.0  0.19330  0.36221  0.40254  1.0000
  N   N23       1.0  0.01461  0.39768  0.27985  1.0000
  C   C327      1.0  0.03742  0.39509  0.27183  1.0000
  H   H556      1.0  0.06069  0.44875  0.05110  1.0000
  C   C328      1.0  0.01419  0.27704  0.31528  1.0000
  H   H557      1.0  0.11331  0.46168  0.20070  1.0000
  N   N24       1.0  0.03024  0.30074  0.44915  1.0000
  C   C329      1.0  0.21404  0.33708  0.45696  1.0000
  H   H558      1.0  0.14210  0.33517  0.04714  1.0000
  C   C330      1.0  0.11691  0.29122  0.02536  1.0000
  H   H559      1.0  0.02604  0.38235  0.24224  1.0000
  S   S96       1.0  0.01868  0.46532  0.24845  1.0000
  C   C331      1.0  0.14365  0.44638  0.13624  1.0000
  C   C332      1.0  0.25969  0.41028  0.05124  1.0000
  H   H560      1.0  0.16663  0.23650  0.43657  1.0000
  C   C333      1.0  0.25135  0.40468  0.32376  1.0000
  H   H561      1.0  0.07740  0.45716  0.10886  1.0000
  H   H562      1.0  0.27690  0.46011  0.00346  1.0000
  H   H563      1.0  0.10232  0.29353  0.03651  1.0000
  N   N25       1.0  0.25774  0.41566  0.01382  1.0000
  H   H564      1.0  0.02649  0.46793  0.08687  1.0000
  H   H565      1.0  0.29701  0.43689  0.28137  1.0000
  C   C334      1.0  0.17372  0.29491  0.45795  1.0000
  Fe  Fe48      1.0  0.10769  0.24276  0.27331  1.0000
  S   S97       1.0  0.11537  0.23924  0.30319  1.0000
  C   C335      1.0  0.05301  0.30050  0.44246  1.0000
  H   H566      1.0  0.26617  0.37543  0.03165  1.0000
  H   H567      1.0  0.29269  0.37029  0.01958  1.0000
  C   C336      1.0  0.02640  0.25052  0.29464  1.0000
  N   N26       1.0  0.12556  0.31020  0.01825  1.0000
  H   H568      1.0  0.27613  0.38681  0.34864  1.0000
  C   C337      1.0  0.33083  0.47154  0.44185  1.0000
  H   H569      1.0  0.19423  0.31594  0.47049  1.0000
  H   H570      1.0  0.26892  0.43713  0.98809  1.0000
  H   H571      1.0  0.26402  0.45032  0.02785  1.0000
  H   H572      1.0  0.06062  0.45297  0.16354  1.0000
  C   C338      1.0  0.13090  0.27249  0.03469  1.0000
  H   H573      1.0  0.21043  0.47329  0.25886  1.0000
  C   C339      1.0  0.11772  0.25523  0.39080  1.0000
  H   H574      1.0  0.28638  0.40392  0.99554  1.0000
  H   H575      1.0  0.18671  0.28508  0.46409  1.0000
  H   H576      1.0  0.30615  0.41143  0.27897  1.0000
  H   H577      1.0  0.24614  0.47163  0.20353  1.0000
  C   C340      1.0  0.32835  0.41407  0.36883  1.0000
  C   C341      1.0  0.26774  0.46903  0.25856  1.0000
  H   H578      1.0  0.06002  0.29912  0.45544  1.0000
  C   C342      1.0  0.06601  0.28422  0.43072  1.0000
  H   H579      1.0  0.10571  0.28079  0.98433  1.0000
  H   H580      1.0  0.12826  0.34740  0.02819  1.0000
  C   C343      1.0  0.13500  0.24564  0.45008  1.0000
  H   H581      1.0  0.24631  0.44736  0.00389  1.0000
  C   C344      1.0  0.14994  0.32583  0.98655  1.0000
  C   C345      1.0  0.13946  0.33382  0.03266  1.0000
  C   C346      1.0  0.26605  0.46169  0.33251  1.0000
  S   S98       1.0  0.08028  0.25233  0.05212  1.0000
  C   C347      1.0  0.19637  0.32735  0.45647  1.0000
  H   H582      1.0  0.03809  0.26920  0.34337  1.0000
  H   H583      1.0  0.03839  0.25961  0.26286  1.0000
  H   H584      1.0  0.21044  0.34285  0.47106  1.0000
  H   H585      1.0  0.13212  0.27353  0.04977  1.0000
  H   H586      1.0  0.03767  0.26003  0.38974  1.0000
  H   H587      1.0  0.22403  0.25603  0.28935  1.0000
  H   H588      1.0  0.24942  0.41207  0.06592  1.0000
  C   C348      1.0  0.04478  0.25373  0.34101  1.0000
  Fe  Fe49      1.0  0.18140  0.48080  0.20317  1.0000
  C   C349      1.0  0.12965  0.25517  0.98014  1.0000
  H   H589      1.0  0.08869  0.31331  0.00184  1.0000
  H   H590      1.0  0.18516  0.23847  0.34939  1.0000
  H   H591      1.0  0.11330  0.44736  0.13466  1.0000
  H   H592      1.0  0.00232  0.40060  0.24322  1.0000
  C   C350      1.0  0.02988  0.24423  0.42015  1.0000
  H   H593      1.0  0.19575  0.24331  0.36813  1.0000
  H   H594      1.0  0.18203  0.33883  0.45791  1.0000
  C   C351      1.0  0.32203  0.43489  0.36441  1.0000
  H   H595      1.0  0.01511  0.36719  0.27804  1.0000
  H   H596      1.0  0.01015  0.27984  0.33080  1.0000
  C   C352      1.0  0.09011  0.46626  0.06914  1.0000
  H   H597      1.0  0.25335  0.40903  0.98684  1.0000
  C   C353      1.0  0.22640  0.47202  0.25872  1.0000
  H   H598      1.0  0.09249  0.46383  0.05364  1.0000
  H   H599      1.0  0.14530  0.33985  0.99245  1.0000
  H   H600      1.0  0.11104  0.31868  0.98300  1.0000
  H   H601      1.0  0.33262  0.48220  0.42739  1.0000
  C   C354      1.0  0.00062  0.24647  0.99966  1.0000
  H   H602      1.0  0.03701  0.24296  0.35299  1.0000
  C   C355      1.0  0.11395  0.47702  0.23892  1.0000
  H   H603      1.0  0.00275  0.24530  0.01459  1.0000
  H   H604      1.0  0.03415  0.48297  0.10958  1.0000
  H   H605      1.0  0.02959  0.47263  0.06005  1.0000
  C   C356      1.0  0.01426  0.23743  0.43548  1.0000
  H   H606      1.0  0.32602  0.40631  0.38420  1.0000
  H   H607      1.0  0.06011  0.48263  0.05280  1.0000
  H   H608      1.0  0.11132  0.25485  0.37802  1.0000
  C   C357      1.0  0.16370  0.24133  0.37807  1.0000
  C   C358      1.0  0.03449  0.26615  0.47260  1.0000
  H   H609      1.0  0.05032  0.26314  0.47499  1.0000
  C   C359      1.0  0.00975  0.38545  0.24988  1.0000
  H   H610      1.0  0.13975  0.24088  0.35539  1.0000
  H   H611      1.0  0.12863  0.48135  0.23596  1.0000
  S   S99       1.0  0.03738  0.47924  0.20018  1.0000
  C   C360      1.0  0.20182  0.23793  0.29260  1.0000
  H   H612      1.0  0.11240  0.48570  0.05645  1.0000
  C   C361      1.0  0.00715  0.38266  0.27270  1.0000
  S   S100      1.0  0.00052  0.26950  0.37462  1.0000
  C   C362      1.0  0.32099  0.42292  0.97883  1.0000
  H   H613      1.0  0.13521  0.23686  0.41168  1.0000
  C   C363      1.0  0.25340  0.48532  0.26490  1.0000
  H   H614      1.0  0.05300  0.23603  0.31778  1.0000
  C   C364      1.0  0.07778  0.35412  0.73772  1.0000
  H   H615      1.0  0.11611  0.30043  0.95086  1.0000
  H   H616      1.0  0.27814  0.29701  0.91927  1.0000
  C   C365      1.0  0.01095  0.31996  0.85394  1.0000
  C   C366      1.0  0.26046  0.26369  0.92834  1.0000
  H   H617      1.0  0.30091  0.45060  0.52420  1.0000
  H   H618      1.0  0.17408  0.26813  0.79073  1.0000
  C   C367      1.0  0.29605  0.44317  0.53987  1.0000
  S   S101      1.0  0.06978  0.37825  0.74338  1.0000
  H   H619      1.0  0.06129  0.34036  0.76595  1.0000
  H   H620      1.0  0.30057  0.29938  0.90035  1.0000
  H   H621      1.0  0.25289  0.28004  0.89427  1.0000
  C   C368      1.0  0.08567  0.46717  0.59061  1.0000
  H   H622      1.0  0.07557  0.27979  0.96300  1.0000
  H   H623      1.0  0.26425  0.45641  0.54357  1.0000
  H   H624      1.0  0.02049  0.31928  0.81095  1.0000
  C   C369      1.0  0.33151  0.47027  0.86233  1.0000
  C   C370      1.0  0.14278  0.23788  0.83661  1.0000
  S   S102      1.0  0.18298  0.25209  0.88447  1.0000
  S   S103      1.0  0.08199  0.26516  0.78352  1.0000
  H   H625      1.0  0.02198  0.32709  0.47846  1.0000
  C   C371      1.0  0.14174  0.27767  0.94181  1.0000
  C   C372      1.0  0.07639  0.28166  0.94679  1.0000
  Fe  Fe50      1.0  0.09479  0.26445  0.75097  1.0000
  S   S104      1.0  0.10402  0.29023  0.72695  1.0000
  Fe  Fe51      1.0  0.07597  0.40425  0.71803  1.0000
  C   C373      1.0  0.00150  0.23853  0.82963  1.0000
  Fe  Fe52      1.0  0.09573  0.41998  0.67543  1.0000
  H   H626      1.0  0.23553  0.25229  0.81051  1.0000
  S   S105      1.0  0.11543  0.41338  0.64620  1.0000
  S   S106      1.0  0.06577  0.40991  0.68900  1.0000
  S   S107      1.0  0.08324  0.45219  0.67774  1.0000
  Fe  Fe53      1.0  0.21542  0.29359  0.87396  1.0000
  S   S108      1.0  0.20653  0.27558  0.90454  1.0000
  S   S109      1.0  0.23613  0.31622  0.86654  1.0000
  Fe  Fe54      1.0  0.19342  0.27164  0.85505  1.0000
  Fe  Fe55      1.0  0.09221  0.44314  0.70738  1.0000
  S   S110      1.0  0.18414  0.30020  0.86707  1.0000
  S   S111      1.0  0.22573  0.26692  0.85894  1.0000
  Fe  Fe56      1.0  0.29831  0.40335  0.89544  1.0000
  S   S112      1.0  0.26498  0.40510  0.91002  1.0000
  S   S113      1.0  0.30972  0.41476  0.86283  1.0000
  Fe  Fe57      1.0  0.31279  0.38564  0.93397  1.0000
  S   S114      1.0  0.28100  0.38506  0.95184  1.0000
  Fe  Fe58      1.0  0.27569  0.37401  0.92641  1.0000
  S   S115      1.0  0.25782  0.34886  0.93386  1.0000
  Fe  Fe59      1.0  0.27310  0.41594  0.93400  1.0000
  S   S116      1.0  0.25653  0.44010  0.95177  1.0000
  S   S117      1.0  0.30856  0.37161  0.91017  1.0000
  S   S118      1.0  0.30530  0.41718  0.91779  1.0000
  H   H627      1.0  0.07446  0.30568  0.75980  1.0000
  C   C374      1.0  0.07918  0.31815  0.74864  1.0000
  H   H628      1.0  0.24010  0.23781  0.83393  1.0000
  H   H629      1.0  0.01629  0.26549  0.84425  1.0000
  H   H630      1.0  0.07157  0.40899  0.60699  1.0000
  C   C375      1.0  0.07209  0.26317  0.94148  1.0000
  Fe  Fe60      1.0  0.21477  0.24925  0.88911  1.0000
  C   C376      1.0  0.11887  0.27448  0.97436  1.0000
  C   C377      1.0  0.25124  0.34069  0.91488  1.0000
  C   C378      1.0  0.25919  0.34724  0.89465  1.0000
  C   C379      1.0  0.25416  0.33988  0.87998  1.0000
  C   C380      1.0  0.24106  0.32602  0.88538  1.0000
  C   C381      1.0  0.23295  0.31962  0.90562  1.0000
  C   C382      1.0  0.23811  0.32685  0.92029  1.0000
  H   H631      1.0  0.26934  0.35787  0.89031  1.0000
  H   H632      1.0  0.26052  0.34491  0.86437  1.0000
  H   H633      1.0  0.22271  0.30912  0.91000  1.0000
  H   H634      1.0  0.23183  0.32179  0.93590  1.0000
  H   H635      1.0  0.02276  0.30333  0.79413  1.0000
  C   C383      1.0  0.13873  0.23991  0.81762  1.0000
  C   C384      1.0  0.01723  0.44101  0.64255  1.0000
  H   H636      1.0  0.13796  0.36809  0.75207  1.0000
  C   C385      1.0  0.16892  0.25822  0.82266  1.0000
  Fe  Fe61      1.0  0.05424  0.44148  0.69400  1.0000
  H   H637      1.0  0.09057  0.24889  0.97359  1.0000
  C   C386      1.0  0.28659  0.29276  0.90478  1.0000
  H   H638      1.0  0.28277  0.44603  0.50422  1.0000
  C   C387      1.0  0.02236  0.44166  0.66039  1.0000
  H   H639      1.0  0.10339  0.35470  0.79587  1.0000
  C   C388      1.0  0.09293  0.31475  0.73088  1.0000
  C   C389      1.0  0.07169  0.33779  0.75207  1.0000
  C   C390      1.0  0.09106  0.35078  0.71971  1.0000
  C   C391      1.0  0.09869  0.33111  0.71635  1.0000
  C   C392      1.0  0.00786  0.45855  0.63133  1.0000
  H   H640      1.0  0.09581  0.36332  0.70857  1.0000
  H   H641      1.0  0.10928  0.32856  0.70256  1.0000
  C   C393      1.0  0.15816  0.45835  0.62285  1.0000
  C   C394      1.0  0.15470  0.44787  0.60986  1.0000
  C   C395      1.0  0.14247  0.43323  0.61723  1.0000
  C   C396      1.0  0.13281  0.42978  0.63743  1.0000
  C   C397      1.0  0.13646  0.44008  0.65044  1.0000
  C   C398      1.0  0.14946  0.45399  0.64322  1.0000
  H   H642      1.0  0.16159  0.45086  0.59416  1.0000
  H   H643      1.0  0.14024  0.42490  0.60718  1.0000
  H   H644      1.0  0.12943  0.43720  0.66614  1.0000
  C   C399      1.0  0.00957  0.25850  0.96404  1.0000
  Fe  Fe62      1.0  0.06155  0.24574  0.78098  1.0000
  H   H645      1.0  0.08589  0.35266  0.78163  1.0000
  H   H646      1.0  0.04237  0.44543  0.57758  1.0000
  H   H647      1.0  0.27918  0.46747  0.83848  1.0000
  H   H648      1.0  0.23132  0.25838  0.94771  1.0000
  C   C400      1.0  0.01726  0.45965  0.66742  1.0000
  C   C401      1.0  0.10577  0.47022  0.59405  1.0000
  H   H649      1.0  0.08928  0.46484  0.57502  1.0000
  C   C402      1.0  0.00693  0.47687  0.65672  1.0000
  C   C403      1.0  0.08404  0.41132  0.61294  1.0000
  S   S119      1.0  0.17297  0.47712  0.61379  1.0000
  C   C404      1.0  0.24358  0.25105  0.93665  1.0000
  H   H650      1.0  0.06376  0.44115  0.63603  1.0000
  C   C405      1.0  0.02197  0.23799  0.81974  1.0000
  S   S120      1.0  0.18076  0.47368  0.55706  1.0000
  C   C406      1.0  0.09173  0.43079  0.60179  1.0000
  H   H651      1.0  0.29341  0.26297  0.86895  1.0000
  H   H652      1.0  0.27600  0.28670  0.86553  1.0000
  C   C407      1.0  0.07294  0.45215  0.62603  1.0000
  C   C408      1.0  0.16521  0.25984  0.80360  1.0000
  C   C409      1.0  0.01258  0.27863  0.85163  1.0000
  H   H653      1.0  0.00009  0.28323  0.81658  1.0000
  H   H654      1.0  0.23650  0.24952  0.92484  1.0000
  S   S121      1.0  0.10707  0.41153  0.70399  1.0000
  H   H655      1.0  0.32475  0.44988  0.61552  1.0000
  H   H656      1.0  0.08785  0.48397  0.74890  1.0000
  Fe  Fe63      1.0  0.17597  0.28022  0.89686  1.0000
  N   N27       1.0  0.26795  0.42945  0.53199  1.0000
  H   H657      1.0  0.11387  0.25573  0.94309  1.0000
  C   C410      1.0  0.15763  0.24719  0.83918  1.0000
  C   C411      1.0  0.24745  0.42394  0.54195  1.0000
  C   C412      1.0  0.28338  0.41044  0.52948  1.0000
  H   H658      1.0  0.03009  0.42824  0.66876  1.0000
  C   C413      1.0  0.32510  0.42659  0.48727  1.0000
  C   C414      1.0  0.22926  0.44171  0.54379  1.0000
  C   C415      1.0  0.28661  0.39539  0.54892  1.0000
  H   H659      1.0  0.10572  0.43031  0.60701  1.0000
  C   C416      1.0  0.26742  0.44262  0.51172  1.0000
  H   H660      1.0  0.07330  0.48254  0.62900  1.0000
  C   C417      1.0  0.02066  0.30363  0.81022  1.0000
  H   H661      1.0  0.24376  0.41365  0.53415  1.0000
  H   H662      1.0  0.24769  0.41529  0.55739  1.0000
  H   H663      1.0  0.27888  0.40196  0.52037  1.0000
  H   H664      1.0  0.29846  0.41359  0.52063  1.0000
  H   H665      1.0  0.06438  0.29481  0.94297  1.0000
  H   H666      1.0  0.06825  0.43251  0.57532  1.0000
  H   H667      1.0  0.29746  0.47748  0.81799  1.0000
  C   C418      1.0  0.05783  0.44657  0.57864  1.0000
  H   H668      1.0  0.16618  0.25236  0.93728  1.0000
  C   C419      1.0  0.05677  0.44994  0.59972  1.0000
  H   H669      1.0  0.22617  0.45001  0.52902  1.0000
  H   H670      1.0  0.10328  0.23673  0.59171  1.0000
  H   H671      1.0  0.21526  0.43584  0.55218  1.0000
  H   H672      1.0  0.27640  0.38434  0.55268  1.0000
  H   H673      1.0  0.28404  0.40255  0.56192  1.0000
  H   H674      1.0  0.30276  0.38728  0.54686  1.0000
  H   H675      1.0  0.02111  0.42708  0.63716  1.0000
  C   C420      1.0  0.26036  0.43421  0.49685  1.0000
  S   S122      1.0  0.10810  0.46205  0.71770  1.0000
  S   S123      1.0  0.06206  0.43526  0.72410  1.0000
  C   C421      1.0  0.15314  0.25866  0.94770  1.0000
  H   H676      1.0  0.32330  0.44873  0.93583  1.0000
  C   C422      1.0  0.00828  0.27047  0.87432  1.0000
  C   C423      1.0  0.15001  0.25092  0.80110  1.0000
  C   C424      1.0  0.27200  0.47752  0.87765  1.0000
  H   H677      1.0  0.09056  0.46996  0.53759  1.0000
  S   S124      1.0  0.00407  0.45862  0.60764  1.0000
  C   C425      1.0  0.00024  0.29724  0.82138  1.0000
  C   C426      1.0  0.25752  0.48000  0.94263  1.0000
  C   C427      1.0  0.08877  0.48556  0.53831  1.0000
  H   H678      1.0  0.30853  0.40966  0.96118  1.0000
  H   H679      1.0  0.18552  0.47059  0.67913  1.0000
  H   H680      1.0  0.25487  0.25480  0.89266  1.0000
  H   H681      1.0  0.30078  0.26390  0.91914  1.0000
  H   H682      1.0  0.02707  0.28426  0.84781  1.0000
  H   H683      1.0  0.10908  0.48461  0.58454  1.0000
  H   H684      1.0  0.26955  0.43429  0.56092  1.0000
  C   C428      1.0  0.30972  0.46689  0.87281  1.0000
  H   H685      1.0  0.02287  0.26290  0.87905  1.0000
  H   H686      1.0  0.26735  0.48125  0.89282  1.0000
  H   H687      1.0  0.30652  0.42859  0.54302  1.0000
  H   H688      1.0  0.27064  0.26520  0.86064  1.0000
  H   H689      1.0  0.06713  0.23941  0.61832  1.0000
  H   H690      1.0  0.15338  0.48553  0.66934  1.0000
  H   H691      1.0  0.15245  0.46154  0.65345  1.0000
  C   C429      1.0  0.24139  0.23694  0.81824  1.0000
  H   H692      1.0  0.09125  0.28552  0.93824  1.0000
  H   H693      1.0  0.30462  0.26712  0.89309  1.0000
  N   N28       1.0  0.07679  0.45002  0.60454  1.0000
  H   H694      1.0  0.25737  0.45746  0.51308  1.0000
  H   H695      1.0  0.05647  0.26158  0.94999  1.0000
  S   S125      1.0  0.02436  0.46136  0.68900  1.0000
  H   H696      1.0  0.32153  0.44042  0.49274  1.0000
  H   H697      1.0  0.10908  0.24563  0.90435  1.0000
  H   H698      1.0  0.16035  0.24581  0.85392  1.0000
  H   H699      1.0  0.07088  0.26703  0.92553  1.0000
  C   C430      1.0  0.00262  0.47643  0.63854  1.0000
  H   H700      1.0  0.08474  0.33996  0.80717  1.0000
  C   C431      1.0  0.26413  0.26589  0.89238  1.0000
  H   H701      1.0  0.02485  0.25799  0.48565  1.0000
  H   H702      1.0  0.30627  0.45876  0.83760  1.0000
  H   H703      1.0  0.25994  0.44567  0.48292  1.0000
  H   H704      1.0  0.24472  0.43102  0.50253  1.0000
  S   S126      1.0  0.18819  0.26966  0.82501  1.0000
  C   C432      1.0  0.27350  0.44094  0.54476  1.0000
  C   C433      1.0  0.27055  0.45524  0.88143  1.0000
  C   C434      1.0  0.14711  0.24745  0.96690  1.0000
  H   H705      1.0  0.26865  0.26178  0.94060  1.0000
  Fe  Fe64      1.0  0.33240  0.48071  0.53283  1.0000
  H   H706      1.0  0.23138  0.45229  0.55217  1.0000
  C   C435      1.0  0.29269  0.26982  0.90650  1.0000
  H   H707      1.0  0.14725  0.25229  0.78638  1.0000
  H   H708      1.0  0.32116  0.48011  0.96777  1.0000
  S   S127      1.0  0.02781  0.25008  0.79469  1.0000
  C   C436      1.0  0.10861  0.24628  0.93566  1.0000
  C   C437      1.0  0.27717  0.27028  0.87098  1.0000
  N   N29       1.0  0.27532  0.25909  0.90939  1.0000
  C   C438      1.0  0.12492  0.28571  0.95535  1.0000
  H   H709      1.0  0.06957  0.23768  0.97603  1.0000
  H   H710      1.0  0.04905  0.43837  0.61061  1.0000
  H   H711      1.0  0.06211  0.45946  0.56697  1.0000
  H   H712      1.0  0.27115  0.42070  0.49244  1.0000
  H   H713      1.0  0.30764  0.48174  0.92912  1.0000
  C   C439      1.0  0.11240  0.25519  0.91310  1.0000
  C   C440      1.0  0.32181  0.40938  0.96678  1.0000
  H   H714      1.0  0.04601  0.46438  0.60116  1.0000
  H   H715      1.0  0.27740  0.29981  0.89329  1.0000
  H   H716      1.0  0.25431  0.45374  0.88699  1.0000
  C   C441      1.0  0.30922  0.48158  0.95932  1.0000
  H   H717      1.0  0.07902  0.41086  0.62925  1.0000
  H   H718      1.0  0.09685  0.39839  0.61090  1.0000
  S   S128      1.0  0.12910  0.47646  0.54089  1.0000
  H   H719      1.0  0.08767  0.44863  0.63104  1.0000
  H   H720      1.0  0.01865  0.26677  0.95135  1.0000
  H   H721      1.0  0.02401  0.24553  0.75229  1.0000
  H   H722      1.0  0.25244  0.27965  0.92617  1.0000
  H   H723      1.0  0.30884  0.45254  0.86951  1.0000
  C   C442      1.0  0.06201  0.47311  0.63048  1.0000
  H   H724      1.0  0.23073  0.45753  0.92306  1.0000
  H   H725      1.0  0.07022  0.24031  0.65534  1.0000
  S   S129      1.0  0.14643  0.29087  0.91713  1.0000
  N   N30       1.0  0.08704  0.24384  0.94563  1.0000
  C   C443      1.0  0.29425  0.47201  0.83439  1.0000
  H   H726      1.0  0.07445  0.48156  0.59076  1.0000
  C   C444      1.0  0.25038  0.46462  0.93860  1.0000
  H   H727      1.0  0.09723  0.42991  0.58570  1.0000
  H   H728      1.0  0.29791  0.45274  0.54950  1.0000
  N   N31       1.0  0.13022  0.32734  0.77352  1.0000
  C   C445      1.0  0.14186  0.30655  0.77098  1.0000
  C   C446      1.0  0.14234  0.33594  0.78329  1.0000
  C   C447      1.0  0.12884  0.33972  0.75299  1.0000
  C   C448      1.0  0.10928  0.32537  0.78609  1.0000
  C   C449      1.0  0.13388  0.29597  0.75849  1.0000
  C   C450      1.0  0.14529  0.32450  0.80431  1.0000
  C   C451      1.0  0.12462  0.36273  0.75063  1.0000
  C   C452      1.0  0.09527  0.34438  0.79280  1.0000
  H   H729      1.0  0.15823  0.30682  0.76388  1.0000
  H   H730      1.0  0.14181  0.29629  0.78571  1.0000
  H   H731      1.0  0.13550  0.35167  0.78474  1.0000
  H   H732      1.0  0.15783  0.33668  0.77368  1.0000
  H   H733      1.0  0.14334  0.33599  0.74202  1.0000
  H   H734      1.0  0.11680  0.33602  0.74739  1.0000
  H   H735      1.0  0.10049  0.32007  0.77788  1.0000
  H   H736      1.0  0.11012  0.31331  0.79958  1.0000
  H   H737      1.0  0.13464  0.30414  0.74284  1.0000
  H   H738      1.0  0.14370  0.28096  0.75771  1.0000
  H   H739      1.0  0.11813  0.29346  0.76531  1.0000
  H   H740      1.0  0.13053  0.32320  0.81492  1.0000
  H   H741      1.0  0.15513  0.30944  0.80398  1.0000
  H   H742      1.0  0.15327  0.33293  0.81039  1.0000
  H   H743      1.0  0.11079  0.36867  0.76101  1.0000
  H   H744      1.0  0.12197  0.36957  0.73533  1.0000
  H   H745      1.0  0.10525  0.47105  0.60963  1.0000
  H   H746      1.0  0.30402  0.46713  0.96240  1.0000
  H   H747      1.0  0.14418  0.32805  0.97268  1.0000
  H   H748      1.0  0.05402  0.47138  0.64640  1.0000
  H   H749      1.0  0.30866  0.46389  0.88925  1.0000
  H   H750      1.0  0.11873  0.45837  0.58912  1.0000
  H   H751      1.0  0.01650  0.31028  0.86717  1.0000
  S   S130      1.0  0.07232  0.24749  0.74784  1.0000
  C   C453      1.0  0.23673  0.46932  0.92578  1.0000
  H   H752      1.0  0.27634  0.44847  0.86798  1.0000
  H   H753      1.0  0.02373  0.31994  0.84080  1.0000
  H   H754      1.0  0.27880  0.44635  0.89325  1.0000
  H   H755      1.0  0.03410  0.29324  0.81516  1.0000
  H   H756      1.0  0.26764  0.47646  0.95297  1.0000
  H   H757      1.0  0.10373  0.27069  0.90972  1.0000
  H   H758      1.0  0.12884  0.25612  0.90774  1.0000
  H   H759      1.0  0.05039  0.48100  0.62153  1.0000
  H   H760      1.0  0.03165  0.29418  0.48037  1.0000
  N   N32       1.0  0.29238  0.48336  0.86714  1.0000
  H   H761      1.0  0.30701  0.47687  0.59818  1.0000
  H   H762      1.0  0.00643  0.33548  0.85692  1.0000
  H   H763      1.0  0.31832  0.48420  0.63114  1.0000
  C   C454      1.0  0.08568  0.23775  0.96787  1.0000
  H   H764      1.0  0.00071  0.28243  0.88307  1.0000
  S   S131      1.0  0.11908  0.23701  0.75640  1.0000
  Fe  Fe65      1.0  0.10455  0.23639  0.78878  1.0000
  H   H765      1.0  0.29003  0.48477  0.61958  1.0000
  H   H766      1.0  0.24964  0.23588  0.94453  1.0000
  C   C455      1.0  0.28323  0.23674  0.91258  1.0000
  S   S132      1.0  0.26068  0.50514  0.27124  1.0000
  S   S133      1.0  0.32158  0.55966  0.28850  1.0000
  H   H767      1.0  0.00731  0.71276  0.44997  1.0000
  S   S134      1.0  0.31551  0.52201  0.25656  1.0000
  C   C456      1.0  0.09117  0.63530  0.34151  1.0000
  Fe  Fe66      1.0  0.31883  0.52907  0.28502  1.0000
  H   H768      1.0  0.18188  0.65932  0.00520  1.0000
  H   H769      1.0  0.25221  0.58548  0.37859  1.0000
  S   S135      1.0  0.00246  0.66129  0.39734  1.0000
  H   H770      1.0  0.18187  0.59298  0.44500  1.0000
  H   H771      1.0  0.19831  0.50434  0.02214  1.0000
  S   S136      1.0  0.05998  0.52636  0.08942  1.0000
  H   H772      1.0  0.10040  0.73491  0.39927  1.0000
  Fe  Fe67      1.0  0.18350  0.64223  0.41770  1.0000
  S   S137      1.0  0.18112  0.66671  0.39079  1.0000
  S   S138      1.0  0.21245  0.62207  0.42545  1.0000
  Fe  Fe68      1.0  0.13740  0.64967  0.43364  1.0000
  S   S139      1.0  0.13106  0.67481  0.40824  1.0000
  S   S140      1.0  0.11388  0.63841  0.45980  1.0000
  Fe  Fe69      1.0  0.15430  0.65501  0.38924  1.0000
  S   S141      1.0  0.15127  0.65060  0.35986  1.0000
  Fe  Fe70      1.0  0.15837  0.68428  0.41217  1.0000
  S   S142      1.0  0.15841  0.62882  0.41433  1.0000
  S   S143      1.0  0.16279  0.66083  0.43938  1.0000
  C   C457      1.0  0.05619  0.66510  0.99818  1.0000
  Fe  Fe71      1.0  0.29232  0.50380  0.27614  1.0000
  H   H773      1.0  0.10642  0.67125  0.34937  1.0000
  H   H774      1.0  0.09949  0.48831  0.08113  1.0000
  H   H775      1.0  0.09407  0.51611  0.16738  1.0000
  Fe  Fe72      1.0  0.07693  0.70624  0.03600  1.0000
  S   S144      1.0  0.07036  0.67894  0.05931  1.0000
  H   H776      1.0  0.03370  0.56251  0.14834  1.0000
  Fe  Fe73      1.0  0.11539  0.56627  0.06698  1.0000
  S   S145      1.0  0.09036  0.56490  0.09440  1.0000
  S   S146      1.0  0.11887  0.59343  0.04205  1.0000
  Fe  Fe74      1.0  0.13519  0.52227  0.07957  1.0000
  S   S147      1.0  0.11198  0.51745  0.10833  1.0000
  H   H777      1.0  0.14514  0.72639  0.36830  1.0000
  Fe  Fe75      1.0  0.08938  0.53479  0.08950  1.0000
  S   S148      1.0  0.02504  0.69375  0.40639  1.0000
  Fe  Fe76      1.0  0.11529  0.54797  0.11064  1.0000
  S   S149      1.0  0.11453  0.55854  0.13852  1.0000
  S   S150      1.0  0.11232  0.53740  0.06052  1.0000
  S   S151      1.0  0.14053  0.55136  0.08355  1.0000
  C   C458      1.0  0.01372  0.51637  0.14830  1.0000
  H   H778      1.0  0.04253  0.57486  0.20691  1.0000
  C   C459      1.0  0.00733  0.52470  0.13030  1.0000
  C   C460      1.0  0.08483  0.65543  0.05470  1.0000
  C   C461      1.0  0.09790  0.65345  0.03622  1.0000
  C   C462      1.0  0.10819  0.63436  0.03248  1.0000
  C   C463      1.0  0.10582  0.61718  0.04730  1.0000
  C   C464      1.0  0.09297  0.61923  0.06584  1.0000
  C   C465      1.0  0.08240  0.63827  0.06947  1.0000
  H   H779      1.0  0.09978  0.66658  0.02472  1.0000
  H   H780      1.0  0.11795  0.63285  0.01807  1.0000
  H   H781      1.0  0.09113  0.60618  0.07741  1.0000
  H   H782      1.0  0.07233  0.63968  0.08379  1.0000
  H   H783      1.0  0.29848  0.57150  0.34342  1.0000
  C   C466      1.0  0.14870  0.67298  0.34223  1.0000
  C   C467      1.0  0.15615  0.67229  0.32201  1.0000
  C   C468      1.0  0.15446  0.68990  0.30759  1.0000
  H   H784      1.0  0.28530  0.57357  0.31731  1.0000
  H   H785      1.0  0.01539  0.72582  0.02768  1.0000
  C   C469      1.0  0.13891  0.69132  0.34801  1.0000
  H   H786      1.0  0.16359  0.65814  0.31747  1.0000
  H   H787      1.0  0.16073  0.68930  0.29199  1.0000
  C   C470      1.0  0.26290  0.59439  0.33484  1.0000
  H   H788      1.0  0.13293  0.69189  0.36362  1.0000
  C   C471      1.0  0.23563  0.64745  0.39804  1.0000
  C   C472      1.0  0.23543  0.63021  0.41294  1.0000
  C   C473      1.0  0.25393  0.61874  0.41743  1.0000
  C   C474      1.0  0.27254  0.62433  0.40685  1.0000
  H   H789      1.0  0.22153  0.65652  0.39462  1.0000
  H   H790      1.0  0.25383  0.60546  0.42900  1.0000
  H   H791      1.0  0.28666  0.61556  0.41057  1.0000
  C   C475      1.0  0.16050  0.52534  0.17748  1.0000
  C   C476      1.0  0.15860  0.51675  0.16219  1.0000
  C   C477      1.0  0.14491  0.52709  0.14965  1.0000
  C   C478      1.0  0.13265  0.54556  0.15295  1.0000
  C   C479      1.0  0.13437  0.55387  0.16844  1.0000
  C   C480      1.0  0.14847  0.54396  0.18043  1.0000
  C   C481      1.0  0.24686  0.48705  0.19483  1.0000
  H   H792      1.0  0.14397  0.52094  0.13734  1.0000
  H   H793      1.0  0.12499  0.56819  0.17097  1.0000
  H   H794      1.0  0.00350  0.67347  0.05515  1.0000
  H   H795      1.0  0.24891  0.50021  0.97886  1.0000
  H   H796      1.0  0.13240  0.65207  0.98250  1.0000
  H   H797      1.0  0.16228  0.69815  0.44885  1.0000
  H   H798      1.0  0.17531  0.70839  0.34060  1.0000
  H   H799      1.0  0.22340  0.52302  0.01179  1.0000
  H   H800      1.0  0.06175  0.70318  0.45659  1.0000
  S   S152      1.0  0.05656  0.50422  0.23224  1.0000
  H   H801      1.0  0.23952  0.62915  0.35755  1.0000
  C   C482      1.0  0.06047  0.63127  0.39264  1.0000
  C   C483      1.0  0.08681  0.51704  0.18317  1.0000
  N   N33       1.0  0.24496  0.52144  0.20381  1.0000
  H   H802      1.0  0.22148  0.49902  0.27030  1.0000
  C   C484      1.0  0.33031  0.51389  0.98670  1.0000
  H   H803      1.0  0.04771  0.64516  0.02546  1.0000
  H   H804      1.0  0.28654  0.57602  0.38755  1.0000
  C   C485      1.0  0.04770  0.66143  0.02092  1.0000
  C   C486      1.0  0.25007  0.52963  0.21952  1.0000
  H   H805      1.0  0.28921  0.64015  0.32597  1.0000
  H   H806      1.0  0.16816  0.50251  0.15962  1.0000
  H   H807      1.0  0.14999  0.55070  0.19212  1.0000
  C   C487      1.0  0.16923  0.63227  0.98902  1.0000
  S   S153      1.0  0.29579  0.64765  0.37666  1.0000
  H   H808      1.0  0.07058  0.65405  0.99492  1.0000
  H   H809      1.0  0.17784  0.54271  0.98777  1.0000
  H   H810      1.0  0.31313  0.56232  0.44466  1.0000
  S   S154      1.0  0.17865  0.51398  0.19233  1.0000
  H   H811      1.0  0.00208  0.65285  0.00379  1.0000
  C   C488      1.0  0.01579  0.72875  0.46826  1.0000
  S   S155      1.0  0.03628  0.69312  0.35127  1.0000
  C   C489      1.0  0.04913  0.51397  0.13024  1.0000
  H   H812      1.0  0.06529  0.50977  0.13018  1.0000
  H   H813      1.0  0.22738  0.61674  0.38115  1.0000
  H   H814      1.0  0.19339  0.56085  0.47653  1.0000
  C   C490      1.0  0.25573  0.53120  0.18360  1.0000
  H   H815      1.0  0.07474  0.50792  0.18868  1.0000
  C   C491      1.0  0.18835  0.54894  0.01123  1.0000
  H   H816      1.0  0.04346  0.52594  0.19189  1.0000
  C   C492      1.0  0.05008  0.64291  0.44930  1.0000
  C   C493      1.0  0.06196  0.65695  0.43774  1.0000
  C   C494      1.0  0.08169  0.65571  0.44074  1.0000
  C   C495      1.0  0.08944  0.64052  0.45537  1.0000
  H   H817      1.0  0.23241  0.53329  0.98632  1.0000
  C   C496      1.0  0.05782  0.62800  0.46411  1.0000
  H   H818      1.0  0.05605  0.66859  0.42642  1.0000
  H   H819      1.0  0.09078  0.66657  0.43186  1.0000
  H   H820      1.0  0.04505  0.63018  0.39141  1.0000
  Fe  Fe77      1.0  0.31784  0.48660  0.30775  1.0000
  H   H821      1.0  0.05927  0.66381  0.02809  1.0000
  C   C497      1.0  0.27275  0.64121  0.39146  1.0000
  C   C498      1.0  0.27736  0.58947  0.31530  1.0000
  H   H822      1.0  0.08591  0.70347  0.35606  1.0000
  C   C499      1.0  0.13647  0.70890  0.33343  1.0000
  H   H823      1.0  0.32671  0.52602  0.45887  1.0000
  H   H824      1.0  0.32891  0.59256  0.30180  1.0000
  C   C500      1.0  0.19547  0.50461  0.00719  1.0000
  H   H825      1.0  0.25493  0.50241  0.00113  1.0000
  H   H826      1.0  0.05540  0.57492  0.13771  1.0000
  H   H827      1.0  0.06763  0.69205  0.37544  1.0000
  H   H828      1.0  0.07502  0.63343  0.34580  1.0000
  C   C501      1.0  0.09040  0.67133  0.35785  1.0000
  C   C502      1.0  0.10655  0.62871  0.39997  1.0000
  H   H829      1.0  0.10016  0.62243  0.33445  1.0000
  H   H830      1.0  0.02764  0.67510  0.05849  1.0000
  H   H831      1.0  0.07108  0.72592  0.45365  1.0000
  H   H832      1.0  0.09990  0.62000  0.36901  1.0000
  Fe  Fe78      1.0  0.32484  0.62754  0.38384  1.0000
  H   H833      1.0  0.04226  0.69663  0.03092  1.0000
  H   H834      1.0  0.06002  0.63118  0.40851  1.0000
  C   C503      1.0  0.24217  0.50142  0.99468  1.0000
  H   H835      1.0  0.01659  0.53391  0.09848  1.0000
  N   N34       1.0  0.17291  0.65330  0.98029  1.0000
  H   H836      1.0  0.04873  0.61711  0.47309  1.0000
  C   C504      1.0  0.00773  0.65220  0.01738  1.0000
  H   H837      1.0  0.22777  0.60801  0.35948  1.0000
  C   C505      1.0  0.28615  0.57517  0.35636  1.0000
  H   H838      1.0  0.04558  0.66297  0.98976  1.0000
  H   H839      1.0  0.11168  0.63020  0.41315  1.0000
  C   C506      1.0  0.17563  0.59844  0.45931  1.0000
  H   H840      1.0  0.07057  0.61754  0.38820  1.0000
  N   N35       1.0  0.08857  0.65135  0.37164  1.0000
  H   H841      1.0  0.30510  0.55668  0.37688  1.0000
  H   H842      1.0  0.01415  0.68139  0.00151  1.0000
  H   H843      1.0  0.05853  0.66269  0.38792  1.0000
  C   C507      1.0  0.26373  0.53436  0.46217  1.0000
  H   H844      1.0  0.25428  0.66604  0.37551  1.0000
  C   C508      1.0  0.07733  0.62692  0.46724  1.0000
  N   N36       1.0  0.02718  0.67400  0.02806  1.0000
  C   C509      1.0  0.02069  0.55210  0.18697  1.0000
  C   C510      1.0  0.23269  0.48656  0.26525  1.0000
  H   H845      1.0  0.26593  0.63369  0.32680  1.0000
  H   H846      1.0  0.25309  0.58283  0.34045  1.0000
  H   H847      1.0  0.29443  0.55494  0.43651  1.0000
  C   C511      1.0  0.25252  0.49909  0.20751  1.0000
  H   H848      1.0  0.03503  0.73267  0.40388  1.0000
  C   C512      1.0  0.25704  0.59960  0.36953  1.0000
  C   C513      1.0  0.14467  0.70825  0.31321  1.0000
  H   H849      1.0  0.24330  0.52233  0.23479  1.0000
  N   N37       1.0  0.20543  0.52033  0.99166  1.0000
  C   C514      1.0  0.09965  0.63523  0.35975  1.0000
  H   H850      1.0  0.09834  0.50684  0.22845  1.0000
  H   H851      1.0  0.26825  0.59146  0.30382  1.0000
  H   H852      1.0  0.05792  0.65469  0.36662  1.0000
  H   H853      1.0  0.25639  0.52113  0.46905  1.0000
  H   H854      1.0  0.26948  0.49545  0.20496  1.0000
  S   S156      1.0  0.00067  0.50965  0.22457  1.0000
  H   H855      1.0  0.25587  0.54711  0.18349  1.0000
  H   H856      1.0  0.13352  0.49021  0.14717  1.0000
  C   C515      1.0  0.03003  0.69544  0.02381  1.0000
  H   H857      1.0  0.17159  0.61498  0.45498  1.0000
  H   H858      1.0  0.11607  0.63640  0.35427  1.0000
  H   H859      1.0  0.26344  0.60539  0.37949  1.0000
  H   H860      1.0  0.09354  0.68946  0.37838  1.0000
  H   H861      1.0  0.08817  0.65833  0.39996  1.0000
  C   C516      1.0  0.04258  0.52251  0.11230  1.0000
  C   C517      1.0  0.03466  0.51074  0.14824  1.0000
  H   H862      1.0  0.28746  0.59350  0.47520  1.0000
  N   N38       1.0  0.27301  0.59550  0.35105  1.0000
  H   H863      1.0  0.08101  0.67436  0.34637  1.0000
  H   H864      1.0  0.05509  0.59503  0.19317  1.0000
  H   H865      1.0  0.05318  0.55425  0.12857  1.0000
  H   H866      1.0  0.04105  0.63991  0.05956  1.0000
  H   H867      1.0  0.17633  0.56275  0.01063  1.0000
  C   C518      1.0  0.05033  0.56029  0.14241  1.0000
  H   H868      1.0  0.12012  0.62088  0.39048  1.0000
  H   H869      1.0  0.20516  0.68450  0.35046  1.0000
  C   C519      1.0  0.07551  0.70997  0.45204  1.0000
  C   C520      1.0  0.25423  0.65285  0.38724  1.0000
  H   H870      1.0  0.17752  0.70881  0.36472  1.0000
  H   H871      1.0  0.18267  0.53796  0.02446  1.0000
  C   C521      1.0  0.16930  0.66483  0.99680  1.0000
  H   H872      1.0  0.12856  0.72291  0.33787  1.0000
  S   S157      1.0  0.29340  0.51386  0.30371  1.0000
  H   H873      1.0  0.21709  0.52337  0.19358  1.0000
  S   S158      1.0  0.08163  0.70667  0.00327  1.0000
  H   H874      1.0  0.04574  0.58122  0.16947  1.0000
  H   H875      1.0  0.07011  0.71009  0.32550  1.0000
  C   C522      1.0  0.02021  0.66795  0.05044  1.0000
  N   N39       1.0  0.06012  0.54988  0.17744  1.0000
  C   C523      1.0  0.07886  0.53900  0.18574  1.0000
  C   C524      1.0  0.05869  0.57196  0.17608  1.0000
  C   C525      1.0  0.06288  0.54542  0.15690  1.0000
  H   H876      1.0  0.09885  0.51020  0.19196  1.0000
  C   C526      1.0  0.00780  0.72731  0.45236  1.0000
  C   C527      1.0  0.05648  0.57851  0.19601  1.0000
  H   H877      1.0  0.18543  0.72178  0.30939  1.0000
  Fe  Fe79      1.0  0.00555  0.49536  0.19811  1.0000
  H   H878      1.0  0.09191  0.54687  0.17878  1.0000
  H   H879      1.0  0.27208  0.52369  0.18026  1.0000
  H   H880      1.0  0.04541  0.72376  0.38082  1.0000
  H   H881      1.0  0.07254  0.57687  0.16569  1.0000
  H   H882      1.0  0.07899  0.54484  0.14876  1.0000
  H   H883      1.0  0.05985  0.53029  0.15810  1.0000
  C   C528      1.0  0.19281  0.54121  0.99152  1.0000
  C   C529      1.0  0.14489  0.71948  0.46727  1.0000
  C   C530      1.0  0.15285  0.71284  0.44910  1.0000
  H   H884      1.0  0.26664  0.57451  0.45256  1.0000
  S   S159      1.0  0.13763  0.71517  0.98292  1.0000
  H   H885      1.0  0.07611  0.53879  0.20204  1.0000
  H   H886      1.0  0.07011  0.57188  0.20266  1.0000
  C   C531      1.0  0.28248  0.59214  0.46190  1.0000
  C   C532      1.0  0.08392  0.68992  0.36782  1.0000
  C   C533      1.0  0.20917  0.51728  0.22526  1.0000
  H   H887      1.0  0.12643  0.48850  0.17354  1.0000
  C   C534      1.0  0.02377  0.73399  0.34741  1.0000
  H   H888      1.0  0.00910  0.55106  0.20118  1.0000
  C   C535      1.0  0.06616  0.65077  0.37909  1.0000
  H   H889      1.0  0.23642  0.48764  0.00301  1.0000
  H   H890      1.0  0.27461  0.53446  0.23087  1.0000
  H   H891      1.0  0.01917  0.63611  0.05214  1.0000
  H   H892      1.0  0.14898  0.64910  0.02221  1.0000
  H   H893      1.0  0.15367  0.63199  0.99823  1.0000
  H   H894      1.0  0.28033  0.51114  0.22299  1.0000
  H   H895      1.0  0.30812  0.51869  0.44938  1.0000
  H   H896      1.0  0.09480  0.61929  0.40565  1.0000
  H   H897      1.0  0.21698  0.54366  0.20416  1.0000
  H   H898      1.0  0.24335  0.54592  0.21842  1.0000
  H   H899      1.0  0.13557  0.66961  0.00618  1.0000
  H   H900      1.0  0.24461  0.51723  0.16425  1.0000
  S   S160      1.0  0.15741  0.71705  0.40859  1.0000
  H   H901      1.0  0.08152  0.70988  0.43587  1.0000
  S   S161      1.0  0.10287  0.72146  0.03350  1.0000
  H   H902      1.0  0.28159  0.53435  0.20476  1.0000
  C   C536      1.0  0.02169  0.52751  0.11235  1.0000
  H   H903      1.0  0.06024  0.68006  0.99250  1.0000
  H   H904      1.0  0.14319  0.60118  0.46596  1.0000
  H   H905      1.0  0.21214  0.50077  0.22678  1.0000
  C   C537      1.0  0.22558  0.52055  0.99631  1.0000
  C   C538      1.0  0.22208  0.52711  0.20573  1.0000
  C   C539      1.0  0.01096  0.71098  0.03066  1.0000
  H   H906      1.0  0.09279  0.64901  0.32993  1.0000
  H   H907      1.0  0.28863  0.59946  0.30913  1.0000
  C   C540      1.0  0.09864  0.64984  0.38874  1.0000
  H   H908      1.0  0.27312  0.53181  0.44739  1.0000
  H   H909      1.0  0.00932  0.73104  0.35654  1.0000
  C   C541      1.0  0.18449  0.71339  0.34865  1.0000
  H   H910      1.0  0.24771  0.49227  0.22344  1.0000
  H   H911      1.0  0.03520  0.70089  0.00762  1.0000
  C   C542      1.0  0.03944  0.71812  0.34212  1.0000
  C   C543      1.0  0.09680  0.49143  0.23460  1.0000
  C   C544      1.0  0.02451  0.64541  0.05962  1.0000
  H   H912      1.0  0.16738  0.60440  0.98175  1.0000
  H   H913      1.0  0.03970  0.50425  0.16204  1.0000
  C   C545      1.0  0.27697  0.63252  0.33610  1.0000
  H   H914      1.0  0.25230  0.60851  0.33050  1.0000
  S   S162      1.0  0.16156  0.49922  0.06758  1.0000
  H   H915      1.0  0.27695  0.56315  0.36030  1.0000
  C   C546      1.0  0.01124  0.67314  0.01728  1.0000
  H   H916      1.0  0.17940  0.62455  0.99970  1.0000
  H   H917      1.0  0.20207  0.55311  0.01338  1.0000
  C   C547      1.0  0.07779  0.48594  0.23809  1.0000
  C   C548      1.0  0.28662  0.61085  0.34442  1.0000
  H   H918      1.0  0.15667  0.57657  0.46382  1.0000
  C   C549      1.0  0.04195  0.54220  0.19148  1.0000
  C   C550      1.0  0.29715  0.57254  0.37358  1.0000
  Fe  Fe80      1.0  0.01103  0.66756  0.42363  1.0000
  H   H919      1.0  0.21356  0.70230  0.32909  1.0000
  H   H920      1.0  0.20051  0.55217  0.97951  1.0000
  H   H921      1.0  0.30922  0.58168  0.36919  1.0000
  H   H922      1.0  0.29276  0.61206  0.35713  1.0000
  S   S163      1.0  0.14403  0.72998  0.29451  1.0000
  H   H923      1.0  0.10457  0.70780  0.45842  1.0000
  H   H924      1.0  0.01675  0.54429  0.17692  1.0000
  H   H925      1.0  0.16958  0.68095  0.99051  1.0000
  H   H926      1.0  0.30067  0.60607  0.33343  1.0000
  H   H927      1.0  0.04144  0.54264  0.20726  1.0000
  Fe  Fe81      1.0  0.03147  0.49126  0.22816  1.0000
  H   H928      1.0  0.11224  0.65706  0.38342  1.0000
  C   C551      1.0  0.05802  0.72224  0.32990  1.0000
  H   H929      1.0  0.16521  0.51588  0.99756  1.0000
  C   C552      1.0  0.23698  0.61430  0.36638  1.0000
  Fe  Fe82      1.0  0.01401  0.68951  0.38079  1.0000
  H   H930      1.0  0.21604  0.70389  0.35367  1.0000
  H   H931      1.0  0.27047  0.60555  0.45876  1.0000
  S   S164      1.0  0.02575  0.64303  0.44561  1.0000
  H   H932      1.0  0.01644  0.64310  0.07554  1.0000
  H   H933      1.0  0.29936  0.50901  0.99705  1.0000
  H   H934      1.0  0.26968  0.64098  0.34834  1.0000
  C   C553      1.0  0.27351  0.57309  0.46562  1.0000
  C   C554      1.0  0.27304  0.52712  0.21916  1.0000
  C   C555      1.0  0.24685  0.53197  0.16538  1.0000
  H   H935      1.0  0.08674  0.49935  0.06044  1.0000
  C   C556      1.0  0.17202  0.50694  0.01024  1.0000
  C   C557      1.0  0.30284  0.55127  0.44885  1.0000
  N   N40       1.0  0.28835  0.55343  0.46860  1.0000
  C   C558      1.0  0.20619  0.70056  0.34517  1.0000
  H   H936      1.0  0.16408  0.51320  0.02386  1.0000
  Fe  Fe83      1.0  0.10587  0.72411  0.00055  1.0000
  H   H937      1.0  0.25119  0.54750  0.46019  1.0000
  H   H938      1.0  0.25761  0.53728  0.15150  1.0000
  H   H939      1.0  0.20255  0.48939  0.00388  1.0000
  H   H940      1.0  0.21127  0.52141  0.23867  1.0000
  C   C559      1.0  0.14892  0.72543  0.43129  1.0000
  H   H941      1.0  0.29535  0.59286  0.44876  1.0000
  H   H942      1.0  0.23218  0.54289  0.16548  1.0000
  H   H943      1.0  0.12916  0.67921  0.46983  1.0000
  H   H944      1.0  0.19274  0.52265  0.22481  1.0000
  C   C560      1.0  0.30941  0.51825  0.98655  1.0000
  H   H945      1.0  0.07090  0.73008  0.39757  1.0000
  H   H946      1.0  0.09926  0.68437  0.45780  1.0000
  H   H947      1.0  0.23158  0.49299  0.19131  1.0000
  H   H948      1.0  0.02178  0.64056  0.01652  1.0000
  H   H949      1.0  0.32729  0.53134  0.43283  1.0000
  S   S165      1.0  0.32603  0.59501  0.39723  1.0000
  H   H950      1.0  0.01901  0.56828  0.18065  1.0000
  C   C561      1.0  0.15633  0.58964  0.47036  1.0000
  C   C562      1.0  0.14930  0.66419  0.01268  1.0000
  H   H951      1.0  0.05322  0.49605  0.07260  1.0000
  H   H952      1.0  0.20515  0.64177  0.98029  1.0000
  C   C563      1.0  0.09243  0.69854  0.46356  1.0000
  H   H953      1.0  0.14822  0.67447  0.02285  1.0000
  C   C564      1.0  0.31685  0.53055  0.44776  1.0000
  S   S166      1.0  0.05362  0.73486  0.03547  1.0000
  H   H954      1.0  0.20538  0.73340  0.29367  1.0000
  H   H955      1.0  0.18830  0.59459  0.46726  1.0000
  H   H956      1.0  0.02128  0.49269  0.07321  1.0000
  H   H957      1.0  0.00454  0.70738  0.04690  1.0000
  H   H958      1.0  0.16812  0.49185  0.01320  1.0000
  C   C565      1.0  0.33112  0.56051  0.30921  1.0000
  H   H959      1.0  0.05754  0.67282  0.47509  1.0000
  C   C566      1.0  0.27656  0.53663  0.47619  1.0000
  H   H960      1.0  0.18343  0.73549  0.37404  1.0000
  N   N41       1.0  0.18321  0.73580  0.34323  1.0000
  H   H961      1.0  0.25850  0.48594  0.18079  1.0000
  C   C567      1.0  0.09725  0.48614  0.06685  1.0000
  H   H962      1.0  0.04394  0.63117  0.76617  1.0000
  C   C568      1.0  0.06731  0.51853  0.53906  1.0000
  H   H963      1.0  0.16684  0.68546  0.88165  1.0000
  C   C569      1.0  0.00232  0.71025  0.85036  1.0000
  C   C570      1.0  0.03752  0.50677  0.70133  1.0000
  H   H964      1.0  0.18034  0.70453  0.86679  1.0000
  H   H965      1.0  0.25200  0.63922  0.85832  1.0000
  C   C571      1.0  0.24231  0.69837  0.83736  1.0000
  H   H966      1.0  0.02470  0.68370  0.84486  1.0000
  H   H967      1.0  0.03428  0.50005  0.66617  1.0000
  H   H968      1.0  0.08883  0.54525  0.76152  1.0000
  H   H969      1.0  0.00758  0.54678  0.71262  1.0000
  S   S167      1.0  0.10555  0.69140  0.78351  1.0000
  H   H970      1.0  0.19483  0.68170  0.95097  1.0000
  H   H971      1.0  0.01670  0.69674  0.89273  1.0000
  C   C572      1.0  0.25143  0.49998  0.93354  1.0000
  C   C573      1.0  0.31984  0.49245  0.61539  1.0000
  H   H972      1.0  0.04269  0.58916  0.51792  1.0000
  C   C574      1.0  0.20337  0.68500  0.82722  1.0000
  H   H973      1.0  0.28113  0.50101  0.84100  1.0000
  Fe  Fe84      1.0  0.15688  0.53006  0.55535  1.0000
  S   S168      1.0  0.14012  0.56190  0.55513  1.0000
  H   H974      1.0  0.24346  0.66221  0.86736  1.0000
  H   H975      1.0  0.02702  0.54329  0.61558  1.0000
  Fe  Fe85      1.0  0.15113  0.49080  0.54877  1.0000
  H   H976      1.0  0.03804  0.67848  0.89893  1.0000
  C   C575      1.0  0.01559  0.55529  0.69879  1.0000
  C   C576      1.0  0.15224  0.73211  0.83013  1.0000
  C   C577      1.0  0.23834  0.65085  0.86228  1.0000
  C   C578      1.0  0.07795  0.52779  0.71613  1.0000
  S   S169      1.0  0.12316  0.68333  0.72734  1.0000
  Fe  Fe86      1.0  0.10581  0.59117  0.65400  1.0000
  S   S170      1.0  0.09814  0.59303  0.68649  1.0000
  S   S171      1.0  0.13821  0.58327  0.63764  1.0000
  Fe  Fe87      1.0  0.06207  0.59976  0.65019  1.0000
  S   S172      1.0  0.05015  0.60282  0.68219  1.0000
  S   S173      1.0  0.04305  0.60334  0.62746  1.0000
  Fe  Fe88      1.0  0.07499  0.62024  0.67782  1.0000
  S   S174      1.0  0.06582  0.64715  0.69312  1.0000
  Fe  Fe89      1.0  0.07411  0.57563  0.68857  1.0000
  S   S175      1.0  0.08466  0.61989  0.64490  1.0000
  S   S176      1.0  0.08394  0.57102  0.65696  1.0000
  H   H977      1.0  0.03021  0.52544  0.65371  1.0000
  C   C579      1.0  0.29406  0.48893  0.84486  1.0000
  S   S177      1.0  0.24987  0.70401  0.89424  1.0000
  H   H978      1.0  0.04636  0.54201  0.68599  1.0000
  H   H979      1.0  0.06408  0.55572  0.75682  1.0000
  H   H980      1.0  0.20133  0.66927  0.87736  1.0000
  Fe  Fe90      1.0  0.24635  0.55162  0.91403  1.0000
  S   S178      1.0  0.22987  0.52967  0.90920  1.0000
  H   H981      1.0  0.30742  0.73488  0.86494  1.0000
  S   S179      1.0  0.25049  0.58111  0.89364  1.0000
  S   S180      1.0  0.23476  0.56469  0.94163  1.0000
  H   H982      1.0  0.05101  0.56331  0.61884  1.0000
  H   H983      1.0  0.10231  0.68619  0.51073  1.0000
  H   H984      1.0  0.30811  0.49520  0.83754  1.0000
  C   C580      1.0  0.16036  0.66437  0.96489  1.0000
  C   C581      1.0  0.23783  0.50472  0.92065  1.0000
  H   H985      1.0  0.04557  0.69013  0.49199  1.0000
  C   C582      1.0  0.07820  0.51440  0.73436  1.0000
  S   S181      1.0  0.06627  0.55298  0.71636  1.0000
  H   H986      1.0  0.19860  0.64408  0.95702  1.0000
  H   H987      1.0  0.11743  0.72445  0.65106  1.0000
  H   H988      1.0  0.07914  0.68502  0.73670  1.0000
  C   C583      1.0  0.24764  0.64508  0.91145  1.0000
  H   H989      1.0  0.19031  0.66006  0.86208  1.0000
  H   H990      1.0  0.01430  0.66479  0.82197  1.0000
  H   H991      1.0  0.27066  0.66337  0.90157  1.0000
  H   H992      1.0  0.30865  0.55855  0.94837  1.0000
  H   H993      1.0  0.13191  0.70160  0.68381  1.0000
  H   H994      1.0  0.11390  0.51984  0.65746  1.0000
  H   H995      1.0  0.07043  0.70588  0.86037  1.0000
  C   C584      1.0  0.07768  0.67538  0.49368  1.0000
  H   H996      1.0  0.25858  0.63116  0.91302  1.0000
  H   H997      1.0  0.04251  0.62977  0.73200  1.0000
  Fe  Fe91      1.0  0.07398  0.70989  0.78548  1.0000
  Fe  Fe92      1.0  0.26763  0.55755  0.94389  1.0000
  C   C585      1.0  0.24049  0.68153  0.90256  1.0000
  C   C586      1.0  0.21956  0.68138  0.90698  1.0000
  C   C587      1.0  0.21272  0.66307  0.91381  1.0000
  C   C588      1.0  0.22676  0.64487  0.91597  1.0000
  H   H998      1.0  0.29112  0.56178  0.85449  1.0000
  H   H999      1.0  0.20867  0.69536  0.90537  1.0000
  H   H1000     1.0  0.19653  0.66298  0.91731  1.0000
  C   C589      1.0  0.08634  0.52078  0.69824  1.0000
  H   H1001     1.0  0.08598  0.53103  0.68415  1.0000
  H   H1002     1.0  0.19456  0.54415  0.49970  1.0000
  H   H1003     1.0  0.11975  0.66001  0.48997  1.0000
  C   C590      1.0  0.10727  0.67248  0.71855  1.0000
  C   C591      1.0  0.08606  0.67611  0.72532  1.0000
  C   C592      1.0  0.07365  0.66847  0.71714  1.0000
  C   C593      1.0  0.08230  0.65648  0.70263  1.0000
  C   C594      1.0  0.10356  0.65229  0.69623  1.0000
  C   C595      1.0  0.11596  0.66048  0.70400  1.0000
  H   H1004     1.0  0.05723  0.67169  0.72226  1.0000
  H   H1005     1.0  0.11040  0.64304  0.68508  1.0000
  H   H1006     1.0  0.13237  0.65750  0.69873  1.0000
  C   C596      1.0  0.11617  0.73227  0.68847  1.0000
  N   N42       1.0  0.08644  0.69424  0.48613  1.0000
  C   C597      1.0  0.07216  0.71220  0.49339  1.0000
  H   H1007     1.0  0.21945  0.66793  0.95416  1.0000
  H   H1008     1.0  0.10493  0.57102  0.50050  1.0000
  H   H1009     1.0  0.31161  0.53832  0.48562  1.0000
  H   H1010     1.0  0.05816  0.71624  0.48729  1.0000
  H   H1011     1.0  0.00520  0.59537  0.58732  1.0000
  H   H1012     1.0  0.13659  0.67414  0.49318  1.0000
  Fe  Fe93      1.0  0.19385  0.50052  0.53909  1.0000
  H   H1013     1.0  0.29371  0.71166  0.93491  1.0000
  S   S182      1.0  0.18675  0.51664  0.56471  1.0000
  H   H1014     1.0  0.22304  0.70496  0.80663  1.0000
  C   C598      1.0  0.10559  0.49288  0.53938  1.0000
  H   H1015     1.0  0.30858  0.50536  0.93359  1.0000
  C   C599      1.0  0.29355  0.50159  0.87434  1.0000
  C   C600      1.0  0.13975  0.56850  0.57771  1.0000
  C   C601      1.0  0.12185  0.57926  0.58778  1.0000
  C   C602      1.0  0.12126  0.58382  0.60625  1.0000
  C   C603      1.0  0.13881  0.57822  0.61432  1.0000
  C   C604      1.0  0.15688  0.56800  0.60395  1.0000
  C   C605      1.0  0.15726  0.56285  0.58583  1.0000
  H   H1016     1.0  0.10831  0.58371  0.58153  1.0000
  H   H1017     1.0  0.10727  0.59178  0.61416  1.0000
  H   H1018     1.0  0.17051  0.56389  0.61002  1.0000
  H   H1019     1.0  0.17122  0.55487  0.57796  1.0000
  H   H1020     1.0  0.13999  0.73012  0.84309  1.0000
  H   H1021     1.0  0.07770  0.70968  0.52346  1.0000
  C   C606      1.0  0.08437  0.52600  0.53923  1.0000
  H   H1022     1.0  0.32240  0.52184  0.58139  1.0000
  C   C607      1.0  0.08722  0.49416  0.73475  1.0000
  C   C608      1.0  0.13053  0.58373  0.50125  1.0000
  H   H1023     1.0  0.07161  0.51968  0.74824  1.0000
  C   C609      1.0  0.15870  0.59839  0.50224  1.0000
  H   H1024     1.0  0.14705  0.62610  0.48236  1.0000
  C   C610      1.0  0.06041  0.51426  0.65879  1.0000
  H   H1025     1.0  0.27656  0.52689  0.85571  1.0000
  H   H1026     1.0  0.07097  0.55959  0.77848  1.0000
  H   H1027     1.0  0.25679  0.51172  0.93700  1.0000
  C   C611      1.0  0.14438  0.73181  0.96054  1.0000
  H   H1028     1.0  0.02419  0.56422  0.70351  1.0000
  C   C612      1.0  0.20322  0.67134  0.96204  1.0000
  C   C613      1.0  0.02711  0.58606  0.63083  1.0000
  C   C614      1.0  0.19522  0.65150  0.97007  1.0000
  H   H1029     1.0  0.01118  0.56972  0.58351  1.0000
  H   H1030     1.0  0.29572  0.50300  0.59788  1.0000
  H   H1031     1.0  0.00368  0.50434  0.69142  1.0000
  H   H1032     1.0  0.01378  0.66474  0.79690  1.0000
  C   C615      1.0  0.06505  0.71013  0.51623  1.0000
  H   H1033     1.0  0.12251  0.54795  0.66479  1.0000
  C   C616      1.0  0.12619  0.51242  0.64661  1.0000
  H   H1034     1.0  0.17509  0.59914  0.49740  1.0000
  C   C617      1.0  0.03472  0.56802  0.62375  1.0000
  H   H1035     1.0  0.11978  0.54451  0.69112  1.0000
  C   C618      1.0  0.25445  0.66336  0.90496  1.0000
  H   H1036     1.0  0.31066  0.56410  0.47831  1.0000
  C   C619      1.0  0.31462  0.54613  0.95912  1.0000
  Fe  Fe94      1.0  0.24170  0.59363  0.92183  1.0000
  H   H1037     1.0  0.25306  0.69375  0.84772  1.0000
  H   H1038     1.0  0.07730  0.66969  0.50990  1.0000
  H   H1039     1.0  0.04703  0.62126  0.79117  1.0000
  C   C620      1.0  0.16580  0.49426  0.66286  1.0000
  N   N43       1.0  0.15697  0.51638  0.65905  1.0000
  H   H1040     1.0  0.03575  0.49131  0.70168  1.0000
  H   H1041     1.0  0.13226  0.66254  0.95718  1.0000
  H   H1042     1.0  0.22930  0.50127  0.55555  1.0000
  C   C621      1.0  0.24406  0.49965  0.54555  1.0000
  H   H1043     1.0  0.08298  0.54165  0.53917  1.0000
  C   C622      1.0  0.03034  0.51048  0.72287  1.0000
  H   H1044     1.0  0.29653  0.56236  0.51189  1.0000
  C   C623      1.0  0.14683  0.62014  0.49842  1.0000
  C   C624      1.0  0.17345  0.52869  0.65309  1.0000
  H   H1045     1.0  0.21000  0.71019  0.84527  1.0000
  H   H1046     1.0  0.18076  0.52741  0.66580  1.0000
  H   H1047     1.0  0.07939  0.72568  0.48775  1.0000
  H   H1048     1.0  0.02808  0.61852  0.57102  1.0000
  H   H1049     1.0  0.16087  0.55862  0.51570  1.0000
  H   H1050     1.0  0.07387  0.60502  0.57214  1.0000
  C   C625      1.0  0.19563  0.67348  0.86326  1.0000
  C   C626      1.0  0.04418  0.73135  0.86223  1.0000
  C   C627      1.0  0.13718  0.66430  0.97037  1.0000
  H   H1051     1.0  0.05771  0.69696  0.52309  1.0000
  H   H1052     1.0  0.03541  0.69176  0.95498  1.0000
  H   H1053     1.0  0.14144  0.55371  0.67504  1.0000
  H   H1054     1.0  0.00668  0.72929  0.88449  1.0000
  H   H1055     1.0  0.22063  0.69383  0.86498  1.0000
  H   H1056     1.0  0.03606  0.70812  0.91196  1.0000
  N   N44       1.0  0.04366  0.59170  0.55902  1.0000
  C   C628      1.0  0.02261  0.59101  0.55684  1.0000
  C   C629      1.0  0.05537  0.59959  0.53857  1.0000
  C   C630      1.0  0.04122  0.60586  0.57298  1.0000
  C   C631      1.0  0.05344  0.57078  0.56759  1.0000
  H   H1057     1.0  0.02117  0.71530  0.47821  1.0000
  C   C632      1.0  0.05747  0.58764  0.52219  1.0000
  C   C633      1.0  0.05946  0.61587  0.57101  1.0000
  C   C634      1.0  0.07550  0.56749  0.57044  1.0000
  H   H1058     1.0  0.04925  0.66434  0.50142  1.0000
  H   H1059     1.0  0.02341  0.57966  0.54785  1.0000
  H   H1060     1.0  0.07108  0.60054  0.53888  1.0000
  H   H1061     1.0  0.04794  0.61528  0.53311  1.0000
  H   H1062     1.0  0.16317  0.62554  0.96222  1.0000
  H   H1063     1.0  0.31694  0.51668  0.90050  1.0000
  H   H1064     1.0  0.05901  0.70326  0.89430  1.0000
  H   H1065     1.0  0.05267  0.55965  0.55913  1.0000
  H   H1066     1.0  0.28695  0.52204  0.47982  1.0000
  S   S183      1.0  0.31092  0.57783  0.87710  1.0000
  C   C635      1.0  0.03521  0.71651  0.96833  1.0000
  H   H1067     1.0  0.28249  0.71805  0.90139  1.0000
  H   H1068     1.0  0.15404  0.62988  0.50369  1.0000
  H   H1069     1.0  0.14385  0.72143  0.66695  1.0000
  H   H1070     1.0  0.08793  0.66293  0.48675  1.0000
  H   H1071     1.0  0.05610  0.62415  0.58345  1.0000
  H   H1072     1.0  0.06169  0.62705  0.55692  1.0000
  H   H1073     1.0  0.07569  0.57134  0.58476  1.0000
  H   H1074     1.0  0.08558  0.57562  0.55797  1.0000
  H   H1075     1.0  0.08269  0.55143  0.57084  1.0000
  S   S184      1.0  0.14089  0.50599  0.57509  1.0000
  S   S185      1.0  0.16498  0.51600  0.52826  1.0000
  C   C636      1.0  0.22843  0.65987  0.84399  1.0000
  H   H1076     1.0  0.19628  0.67289  0.82568  1.0000
  H   H1077     1.0  0.22172  0.64796  0.84145  1.0000
  C   C637      1.0  0.09466  0.50028  0.69867  1.0000
  H   H1078     1.0  0.05652  0.49246  0.53815  1.0000
  C   C638      1.0  0.04228  0.70890  0.89567  1.0000
  S   S186      1.0  0.30248  0.49666  0.54869  1.0000
  H   H1079     1.0  0.11112  0.70523  0.49113  1.0000
  H   H1080     1.0  0.06506  0.52806  0.65958  1.0000
  H   H1081     1.0  0.16692  0.69225  0.85567  1.0000
  H   H1082     1.0  0.03744  0.59813  0.58879  1.0000
  S   S187      1.0  0.07692  0.71984  0.75237  1.0000
  H   H1083     1.0  0.03979  0.69198  0.87386  1.0000
  C   C639      1.0  0.22050  0.69566  0.84889  1.0000
  N   N45       1.0  0.21247  0.67875  0.84559  1.0000
  H   H1084     1.0  0.17394  0.48915  0.64867  1.0000
  H   H1085     1.0  0.28680  0.53992  0.51440  1.0000
  H   H1086     1.0  0.00429  0.56650  0.69110  1.0000
  C   C640      1.0  0.17238  0.61870  0.97378  1.0000
  N   N46       1.0  0.02741  0.52158  0.68568  1.0000
  C   C641      1.0  0.00602  0.59226  0.63674  1.0000
  H   H1087     1.0  0.16608  0.72710  0.78152  1.0000
  H   H1088     1.0  0.31570  0.72074  0.89718  1.0000
  H   H1089     1.0  0.05010  0.71055  0.97187  1.0000
  C   C642      1.0  0.24580  0.49747  0.52598  1.0000
  C   C643      1.0  0.21786  0.69099  0.80719  1.0000
  H   H1090     1.0  0.01388  0.51036  0.72883  1.0000
  C   C644      1.0  0.07641  0.55868  0.76247  1.0000
  S   S188      1.0  0.12903  0.71943  0.81129  1.0000
  H   H1091     1.0  0.06494  0.51275  0.64287  1.0000
  H   H1092     1.0  0.15638  0.59315  0.51876  1.0000
  H   H1093     1.0  0.11627  0.51895  0.54048  1.0000
  C   C645      1.0  0.13538  0.71658  0.68232  1.0000
  C   C646      1.0  0.14580  0.52098  0.64217  1.0000
  H   H1094     1.0  0.14593  0.71471  0.69247  1.0000
  S   S189      1.0  0.27373  0.58774  0.92683  1.0000
  Fe  Fe95      1.0  0.28210  0.57326  0.89984  1.0000
  C   C647      1.0  0.02694  0.70604  0.95858  1.0000
  C   C648      1.0  0.05643  0.67600  0.49003  1.0000
  H   H1095     1.0  0.15583  0.51508  0.62895  1.0000
  C   C649      1.0  0.18819  0.55973  0.49291  1.0000
  C   C650      1.0  0.02977  0.70879  0.82097  1.0000
  N   N47       1.0  0.07045  0.59728  0.75011  1.0000
  C   C651      1.0  0.08502  0.57733  0.74990  1.0000
  C   C652      1.0  0.08205  0.61341  0.73792  1.0000
  C   C653      1.0  0.05385  0.59697  0.73984  1.0000
  C   C654      1.0  0.06182  0.59994  0.77146  1.0000
  C   C655      1.0  0.10165  0.61386  0.74444  1.0000
  C   C656      1.0  0.03674  0.61566  0.73849  1.0000
  C   C657      1.0  0.05483  0.62166  0.77526  1.0000
  H   H1096     1.0  0.09111  0.57474  0.73429  1.0000
  H   H1097     1.0  0.09855  0.57701  0.75586  1.0000
  H   H1098     1.0  0.07232  0.62850  0.73790  1.0000
  H   H1099     1.0  0.08657  0.61204  0.72192  1.0000
  H   H1100     1.0  0.06062  0.59445  0.72430  1.0000
  H   H1101     1.0  0.04584  0.58433  0.74737  1.0000
  H   H1102     1.0  0.04861  0.59219  0.77807  1.0000
  H   H1103     1.0  0.07327  0.59259  0.78093  1.0000
  H   H1104     1.0  0.09992  0.61071  0.76087  1.0000
  H   H1105     1.0  0.11475  0.60297  0.73792  1.0000
  H   H1106     1.0  0.10566  0.62893  0.73865  1.0000
  H   H1107     1.0  0.16665  0.65888  0.95055  1.0000
  H   H1108     1.0  0.02731  0.61435  0.72840  1.0000
  H   H1109     1.0  0.03424  0.52447  0.72423  1.0000
  C   C658      1.0  0.00517  0.52012  0.69016  1.0000
  Fe  Fe96      1.0  0.23004  0.73265  0.88203  1.0000
  C   C659      1.0  0.26514  0.49498  0.51329  1.0000
  H   H1110     1.0  0.24867  0.69081  0.82449  1.0000
  C   C660      1.0  0.28085  0.49700  0.53968  1.0000
  C   C661      1.0  0.28263  0.49469  0.52013  1.0000
  C   C662      1.0  0.00001  0.56354  0.62697  1.0000
  C   C663      1.0  0.16681  0.73058  0.79540  1.0000
  C   C664      1.0  0.09535  0.48703  0.71694  1.0000
  C   C665      1.0  0.02426  0.73483  0.97329  1.0000
  H   H1111     1.0  0.26021  0.57390  0.47842  1.0000
  C   C666      1.0  0.10334  0.51314  0.53983  1.0000
  C   C667      1.0  0.32026  0.56055  0.86100  1.0000
  H   H1112     1.0  0.04447  0.56559  0.58262  1.0000
  C   C668      1.0  0.13109  0.54320  0.67690  1.0000
  H   H1113     1.0  0.12593  0.56742  0.47993  1.0000
  C   C669      1.0  0.16472  0.72935  0.95005  1.0000
  N   N48       1.0  0.03784  0.73019  0.88449  1.0000
  H   H1114     1.0  0.08506  0.71323  0.70094  1.0000
  C   C670      1.0  0.03068  0.54252  0.68414  1.0000
  C   C671      1.0  0.02326  0.72920  0.81394  1.0000
  H   H1115     1.0  0.05415  0.50622  0.69772  1.0000
  H   H1116     1.0  0.02979  0.55145  0.66889  1.0000
  H   H1117     1.0  0.12839  0.67878  0.97446  1.0000
  H   H1118     1.0  0.01558  0.60569  0.54865  1.0000
  S   S190      1.0  0.12213  0.72950  0.75187  1.0000
  C   C672      1.0  0.00793  0.71409  0.95319  1.0000
  H   H1119     1.0  0.15138  0.51874  0.69013  1.0000
  H   H1120     1.0  0.05337  0.72359  0.51956  1.0000
  H   H1121     1.0  0.10095  0.70351  0.68059  1.0000
  H   H1122     1.0  0.06916  0.50093  0.66719  1.0000
  H   H1123     1.0  0.12890  0.49596  0.65184  1.0000
  C   C673      1.0  0.31512  0.54148  0.83874  1.0000
  H   H1124     1.0  0.02634  0.61652  0.75323  1.0000
  H   H1125     1.0  0.21964  0.49297  0.90716  1.0000
  H   H1126     1.0  0.31607  0.50867  0.61618  1.0000
  C   C674      1.0  0.03714  0.51512  0.66589  1.0000
  H   H1127     1.0  0.13153  0.51138  0.68383  1.0000
  H   H1128     1.0  0.17597  0.71698  0.95550  1.0000
  H   H1129     1.0  0.16169  0.68045  0.96072  1.0000
  H   H1130     1.0  0.23103  0.67886  0.80361  1.0000
  H   H1131     1.0  0.29391  0.49774  0.89055  1.0000
  C   C675      1.0  0.12187  0.56766  0.49613  1.0000
  S   S191      1.0  0.01949  0.51161  0.59198  1.0000
  H   H1132     1.0  0.26069  0.51592  0.87816  1.0000
  H   H1133     1.0  0.16035  0.55191  0.49307  1.0000
  H   H1134     1.0  0.14171  0.53742  0.63677  1.0000
  H   H1135     1.0  0.18441  0.52723  0.62105  1.0000
  H   H1136     1.0  0.26569  0.53860  0.49058  1.0000
  C   C676      1.0  0.19045  0.52392  0.63487  1.0000
  H   H1137     1.0  0.16678  0.54491  0.64920  1.0000
  C   C677      1.0  0.08959  0.71699  0.68438  1.0000
  H   H1138     1.0  0.24105  0.66192  0.83087  1.0000
  H   H1139     1.0  0.06402  0.57161  0.52656  1.0000
  H   H1140     1.0  0.27726  0.53133  0.87930  1.0000
  H   H1141     1.0  0.06083  0.70812  0.68640  1.0000
  C   C678      1.0  0.17649  0.69008  0.86677  1.0000
  H   H1142     1.0  0.24217  0.71458  0.83129  1.0000
  H   H1143     1.0  0.13079  0.62147  0.50693  1.0000
  C   C679      1.0  0.27801  0.71779  0.93240  1.0000
  C   C680      1.0  0.02116  0.55683  0.62168  1.0000
  H   H1144     1.0  0.03874  0.49809  0.73264  1.0000
  H   H1145     1.0  0.12051  0.51547  0.63258  1.0000
  H   H1146     1.0  0.06797  0.59370  0.50851  1.0000
  H   H1147     1.0  0.06796  0.62916  0.77273  1.0000
  H   H1148     1.0  0.20925  0.69441  0.79506  1.0000
  C   C681      1.0  0.30722  0.55514  0.85179  1.0000
  S   S192      1.0  0.04972  0.69417  0.80667  1.0000
  C   C682      1.0  0.03360  0.69342  0.88967  1.0000
  Fe  Fe97      1.0  0.10921  0.70313  0.75051  1.0000
  S   S193      1.0  0.21784  0.62212  0.92435  1.0000
  C   C683      1.0  0.12360  0.67511  0.48617  1.0000
  H   H1149     1.0  1.00000  0.60636  0.64180  1.0000
  S   S194      1.0  0.27884  0.54262  0.91743  1.0000
  H   H1150     1.0  0.30509  0.53751  0.83141  1.0000
  Fe  Fe98      1.0  0.11499  0.71934  0.78538  1.0000
  C   C684      1.0  0.01945  0.69943  0.83929  1.0000
  C   C685      1.0  0.10551  0.69095  0.49420  1.0000
  Fe  Fe99      1.0  0.01674  0.52349  0.56008  1.0000
  H   H1151     1.0  0.22781  0.64321  0.87486  1.0000
  H   H1152     1.0  0.30780  0.50720  0.86657  1.0000
  C   C686      1.0  0.27593  0.51977  0.87161  1.0000
  C   C687      1.0  0.28839  0.55489  0.50495  1.0000
  C   C688      1.0  0.30262  0.48891  0.60695  1.0000
  C   C689      1.0  0.23034  0.48937  0.91694  1.0000
  C   C690      1.0  0.16472  0.56312  0.49917  1.0000
  H   H1153     1.0  0.19487  0.56969  0.49839  1.0000
  C   C691      1.0  0.14283  0.52143  0.67807  1.0000
  S   S195      1.0  0.04360  0.53492  0.53845  1.0000
  C   C692      1.0  0.19160  0.51569  0.96239  1.0000
  H   H1154     1.0  0.19085  0.69830  0.82843  1.0000
  C   C693      1.0  0.07126  0.71737  0.67541  1.0000
  H   H1155     1.0  0.12686  0.55254  0.50480  1.0000
  C   C694      1.0  0.31546  0.48911  0.93653  1.0000
  H   H1156     1.0  0.12706  0.58169  0.51785  1.0000
  H   H1157     1.0  0.20181  0.53363  0.63218  1.0000
  H   H1158     1.0  0.12101  0.59838  0.49591  1.0000
  H   H1159     1.0  0.21915  0.52603  0.96011  1.0000
  H   H1160     1.0  0.00375  0.68734  0.80619  1.0000
  H   H1161     1.0  0.19876  0.50818  0.63718  1.0000
  H   H1162     1.0  0.26911  0.72696  0.94369  1.0000
  C   C695      1.0  0.06952  0.49824  0.53870  1.0000
  N   N49       1.0  0.15300  0.58389  0.49283  1.0000
  H   H1163     1.0  0.27038  0.70482  0.93496  1.0000
  H   H1164     1.0  0.27299  0.56431  0.50528  1.0000
  H   H1165     1.0  0.18084  0.53027  0.96143  1.0000
  H   H1166     1.0  0.06596  0.73456  0.88971  1.0000
  C   C696      1.0  0.06666  0.72215  0.85433  1.0000
  H   H1167     1.0  0.03441  0.72416  0.85692  1.0000
  C   C697      1.0  0.30064  0.55279  0.48366  1.0000
  S   S196      1.0  0.22422  0.49743  0.51705  1.0000
  C   C698      1.0  0.26151  0.49962  0.55231  1.0000
  H   H1168     1.0  0.06935  0.72381  0.83784  1.0000
  C   C699      1.0  0.15087  0.72801  0.81204  1.0000
  C   C700      1.0  0.27770  0.72959  0.91094  1.0000
  H   H1169     1.0  0.00271  0.49074  0.66219  1.0000
  H   H1170     1.0  0.19733  0.51312  0.94681  1.0000
  C   C701      1.0  0.20998  0.51549  0.97106  1.0000
  S   S197      1.0  0.99988  0.50021  0.55852  1.0000
  H   H1171     1.0  0.07651  0.71109  0.66151  1.0000
  C   C702      1.0  0.00499  0.67084  0.81040  1.0000
  H   H1172     1.0  0.26003  0.50139  0.56746  1.0000
  C   C703      1.0  0.00710  0.58566  0.57643  1.0000
  H   H1173     1.0  0.08323  0.61522  0.47859  1.0000
  H   H1174     1.0  0.10090  0.49466  0.68494  1.0000
  H   H1175     1.0  0.11068  0.72763  0.70486  1.0000
  H   H1176     1.0  0.14792  0.70974  0.48104  1.0000
  H   H1177     1.0  0.29580  0.49232  0.96562  1.0000
  H   H1178     1.0  0.31643  0.73156  0.91719  1.0000
  C   C704      1.0  0.30154  0.53431  0.97272  1.0000
  S   S198      1.0  0.27531  0.53936  0.97280  1.0000
  H   H1179     1.0  0.14474  0.72609  0.54711  1.0000
  H   H1180     1.0  0.20292  0.67897  0.97420  1.0000
  H   H1181     1.0  0.18365  0.50320  0.97062  1.0000
  H   H1182     1.0  0.28088  0.73270  0.87005  1.0000
  C   C705      1.0  0.18066  0.48714  0.67733  1.0000
  H   H1183     1.0  0.29744  0.49289  0.51023  1.0000
  H   H1184     1.0  0.21945  0.50023  0.97072  1.0000
  H   H1185     1.0  0.11834  0.73399  0.54640  1.0000
  H   H1186     1.0  0.04155  0.73300  0.92335  1.0000
  H   H1187     1.0  0.19471  0.49353  0.67149  1.0000
  H   H1188     1.0  0.26659  0.49310  0.49819  1.0000
  H   H1189     1.0  0.18871  0.61469  0.96654  1.0000
  H   H1190     1.0  0.06185  0.73247  0.67212  1.0000
  C   C706      1.0  0.31287  0.73536  0.90203  1.0000
  Fe  Fe100     1.0  0.17144  0.49094  0.58192  1.0000
  H   H1191     1.0  0.17338  0.49042  0.69240  1.0000
  H   H1192     1.0  0.07742  0.72997  0.85735  1.0000
  Fe  Fe101     1.0  0.99983  0.49059  0.59132  1.0000
  N   N50       1.0  0.09911  0.73537  0.67759  1.0000
  H   H1193     1.0  0.00908  0.73577  0.90603  1.0000
  H   H1194     1.0  0.25973  0.48627  0.86963  1.0000
  H   H1195     1.0  0.06562  0.88771  0.46895  1.0000
  S   S199      1.0  0.10165  0.77642  0.28411  1.0000
  H   H1196     1.0  0.27591  0.93233  0.22855  1.0000
  H   H1197     1.0  0.13055  0.75045  0.36059  1.0000
  C   C707      1.0  0.02686  0.91089  0.46854  1.0000
  S   S200      1.0  0.19749  0.96817  0.18320  1.0000
  Fe  Fe102     1.0  0.24614  0.95177  0.14530  1.0000
  S   S201      1.0  0.23532  0.93145  0.17428  1.0000
  S   S202      1.0  0.27588  0.93987  0.12551  1.0000
  Fe  Fe103     1.0  0.20419  0.94270  0.16683  1.0000
  S   S203      1.0  0.17853  0.92510  0.17395  1.0000
  Fe  Fe104     1.0  0.22966  0.95877  0.18791  1.0000
  S   S204      1.0  0.23484  0.95814  0.21871  1.0000
  S   S205      1.0  0.21536  0.96123  0.13693  1.0000
  H   H1198     1.0  0.09155  0.75849  0.09921  1.0000
  Fe  Fe105     1.0  0.10060  0.86926  0.11502  1.0000
  S   S206      1.0  0.11180  0.86549  0.14315  1.0000
  S   S207      1.0  0.08281  0.89889  0.10213  1.0000
  Fe  Fe106     1.0  0.12413  0.82847  0.10578  1.0000
  S   S208      1.0  0.13803  0.82191  0.13287  1.0000
  S   S209      1.0  0.13341  0.80419  0.08679  1.0000
  Fe  Fe107     1.0  0.10656  0.83403  0.14876  1.0000
  S   S210      1.0  0.09396  0.81554  0.17826  1.0000
  Fe  Fe108     1.0  0.14226  0.85390  0.12500  1.0000
  S   S211      1.0  0.17171  0.86329  0.12440  1.0000
  S   S212      1.0  0.09225  0.83880  0.12224  1.0000
  S   S213      1.0  0.13147  0.85942  0.09635  1.0000
  Fe  Fe109     1.0  0.08285  0.78333  0.31337  1.0000
  S   S214      1.0  0.09419  0.81144  0.31091  1.0000
  S   S215      1.0  0.04941  0.78268  0.32223  1.0000
  S   S216      1.0  0.14018  0.78528  0.29786  1.0000
  Fe  Fe110     1.0  0.11828  0.79105  0.32645  1.0000
  S   S217      1.0  0.13125  0.79515  0.35122  1.0000
  Fe  Fe111     1.0  0.11484  0.80312  0.28254  1.0000
  S   S218      1.0  0.11932  0.82686  0.25444  1.0000
  C   C708      1.0  0.06724  0.79626  0.14155  1.0000
  H   H1199     1.0  0.05210  0.82435  0.21742  1.0000
  H   H1200     1.0  0.12046  0.76648  0.10791  1.0000
  C   C709      1.0  0.15738  0.74840  0.00326  1.0000
  C   C710      1.0  0.11262  0.77784  0.14187  1.0000
  C   C711      1.0  0.18770  0.76482  0.35763  1.0000
  H   H1201     1.0  0.03497  0.78102  0.38102  1.0000
  H   H1202     1.0  0.16702  0.87851  0.21223  1.0000
  H   H1203     1.0  0.25506  0.95251  0.05813  1.0000
  Fe  Fe112     1.0  0.07027  0.80203  0.45736  1.0000
  S   S219      1.0  0.07017  0.82310  0.42760  1.0000
  C   C712      1.0  0.12913  0.75126  0.44978  1.0000
  H   H1204     1.0  0.30228  0.89218  0.38917  1.0000
  C   C713      1.0  0.06220  0.83987  0.26978  1.0000
  H   H1205     1.0  0.16900  0.80328  0.19319  1.0000
  H   H1206     1.0  0.05738  0.80814  0.13275  1.0000
  C   C714      1.0  0.11466  0.80371  0.37221  1.0000
  C   C715      1.0  0.09734  0.81866  0.37031  1.0000
  C   C716      1.0  0.08418  0.82497  0.38740  1.0000
  C   C717      1.0  0.08788  0.81589  0.40648  1.0000
  C   C718      1.0  0.10533  0.80107  0.40837  1.0000
  C   C719      1.0  0.11893  0.79537  0.39121  1.0000
  H   H1207     1.0  0.09419  0.82549  0.35567  1.0000
  H   H1208     1.0  0.07083  0.83660  0.38584  1.0000
  H   H1209     1.0  0.10846  0.79419  0.42300  1.0000
  H   H1210     1.0  0.13260  0.78416  0.39265  1.0000
  C   C720      1.0  0.06135  0.90974  0.11823  1.0000
  C   C721      1.0  0.05317  0.89875  0.13664  1.0000
  C   C722      1.0  0.03539  0.90758  0.14879  1.0000
  C   C723      1.0  0.02588  0.92745  0.14267  1.0000
  C   C724      1.0  0.03445  0.93854  0.12448  1.0000
  C   C725      1.0  0.05208  0.92969  0.11225  1.0000
  H   H1211     1.0  0.06030  0.88334  0.14134  1.0000
  H   H1212     1.0  0.01015  0.86678  0.44764  1.0000
  H   H1213     1.0  0.02745  0.95388  0.11972  1.0000
  H   H1214     1.0  0.05847  0.93826  0.09806  1.0000
  C   C726      1.0  0.10191  0.81867  0.19888  1.0000
  C   C727      1.0  0.10471  0.80234  0.21455  1.0000
  C   C728      1.0  0.11040  0.80463  0.23148  1.0000
  C   C729      1.0  0.11262  0.82343  0.23317  1.0000
  C   C730      1.0  0.10957  0.83984  0.21757  1.0000
  C   C731      1.0  0.10453  0.83742  0.20032  1.0000
  H   H1215     1.0  0.10277  0.78779  0.21348  1.0000
  H   H1216     1.0  0.11325  0.79179  0.24310  1.0000
  H   H1217     1.0  0.11106  0.85448  0.21885  1.0000
  H   H1218     1.0  0.10208  0.85017  0.18843  1.0000
  H   H1219     1.0  0.04839  0.85054  0.21725  1.0000
  C   C732      1.0  0.17628  0.90931  0.15887  1.0000
  C   C733      1.0  0.15863  0.90099  0.16370  1.0000
  C   C734      1.0  0.15671  0.88738  0.15281  1.0000
  C   C735      1.0  0.17259  0.88181  0.13715  1.0000
  C   C736      1.0  0.19019  0.89020  0.13229  1.0000
  C   C737      1.0  0.19199  0.90403  0.14299  1.0000
  H   H1220     1.0  0.14660  0.90479  0.17619  1.0000
  H   H1221     1.0  0.14331  0.88065  0.15700  1.0000
  H   H1222     1.0  0.20261  0.88584  0.12030  1.0000
  H   H1223     1.0  0.20571  0.91025  0.13926  1.0000
  H   H1224     1.0  0.31643  0.89383  0.44093  1.0000
  H   H1225     1.0  0.27233  0.91628  0.28890  1.0000
  H   H1226     1.0  0.18718  0.86883  0.17652  1.0000
  H   H1227     1.0  0.03188  0.89742  0.44290  1.0000
  H   H1228     1.0  0.02157  0.84101  0.44901  1.0000
  C   C738      1.0  0.28597  0.95562  0.10356  1.0000
  H   H1229     1.0  0.01636  0.90890  0.11203  1.0000
  C   C739      1.0  0.30556  0.94895  0.09279  1.0000
  H   H1230     1.0  0.30147  0.91687  0.43161  1.0000
  C   C740      1.0  0.09228  0.78468  0.05569  1.0000
  C   C741      1.0  0.11181  0.77347  0.05701  1.0000
  C   C742      1.0  0.12435  0.77986  0.06624  1.0000
  C   C743      1.0  0.11741  0.79732  0.07449  1.0000
  C   C744      1.0  0.09789  0.80848  0.07320  1.0000
  C   C745      1.0  0.08545  0.80221  0.06380  1.0000
  H   H1231     1.0  0.11720  0.75989  0.05094  1.0000
  H   H1232     1.0  0.13942  0.77110  0.06721  1.0000
  H   H1233     1.0  0.09239  0.82197  0.07940  1.0000
  H   H1234     1.0  0.07040  0.81101  0.06278  1.0000
  H   H1235     1.0  0.09482  0.75088  0.18308  1.0000
  C   C746      1.0  0.00907  0.76490  0.45883  1.0000
  H   H1236     1.0  0.29385  0.90419  0.24424  1.0000
  N   N51       1.0  0.29865  0.93013  0.02834  1.0000
  H   H1237     1.0  0.27952  0.95893  0.05189  1.0000
  H   H1238     1.0  0.26622  0.92392  0.26427  1.0000
  H   H1239     1.0  0.16103  0.81174  0.22339  1.0000
  H   H1240     1.0  0.12010  0.76617  0.44995  1.0000
  C   C747      1.0  0.14598  0.74244  0.36275  1.0000
  H   H1241     1.0  0.11205  0.75483  0.39898  1.0000
  H   H1242     1.0  0.06141  0.77786  0.27902  1.0000
  C   C748      1.0  0.33067  0.88452  0.26531  1.0000
  H   H1243     1.0  0.03664  0.79610  0.24589  1.0000
  H   H1244     1.0  0.29837  0.93196  0.20969  1.0000
  N   N52       1.0  0.30927  0.92020  0.25662  1.0000
  H   H1245     1.0  0.02768  0.80027  0.29088  1.0000
  H   H1246     1.0  0.16074  0.81433  0.17042  1.0000
  H   H1247     1.0  0.31440  0.90401  0.28588  1.0000
  H   H1248     1.0  0.26340  0.98212  0.26349  1.0000
  H   H1249     1.0  0.31732  0.96049  0.24014  1.0000
  H   H1250     1.0  0.14898  0.84280  0.21223  1.0000
  H   H1251     1.0  0.08436  0.78047  0.38991  1.0000
  H   H1252     1.0  0.07474  0.80406  0.14871  1.0000
  H   H1253     1.0  0.01849  0.96596  0.06242  1.0000
  H   H1254     1.0  0.13520  0.75485  0.41782  1.0000
  C   C749      1.0  0.31829  0.91533  0.05686  1.0000
  C   C750      1.0  0.32257  0.92006  0.44751  1.0000
  H   H1255     1.0  0.03686  0.90195  0.09243  1.0000
  H   H1256     1.0  0.11847  0.78917  0.12896  1.0000
  C   C751      1.0  0.29245  0.96803  0.01253  1.0000
  H   H1257     1.0  0.01179  0.84569  0.28077  1.0000
  C   C752      1.0  0.08251  0.78334  0.12736  1.0000
  H   H1258     1.0  0.32838  0.91953  0.06452  1.0000
  H   H1259     1.0  0.29205  0.90476  0.40979  1.0000
  N   N53       1.0  0.09871  0.76758  0.13611  1.0000
  C   C753      1.0  0.15556  0.77020  0.00546  1.0000
  H   H1260     1.0  0.06098  0.76506  0.26010  1.0000
  H   H1261     1.0  0.05631  0.75057  0.42232  1.0000
  C   C754      1.0  0.11157  0.75648  0.11984  1.0000
  H   H1262     1.0  0.17134  0.77207  0.36042  1.0000
  C   C755      1.0  0.03624  0.83322  0.24623  1.0000
  Fe  Fe113     1.0  0.32016  0.96130  0.29883  1.0000
  H   H1263     1.0  0.19452  0.75855  0.31903  1.0000
  H   H1264     1.0  0.01144  0.81096  0.27367  1.0000
  H   H1265     1.0  0.32600  0.88129  0.41128  1.0000
  C   C756      1.0  0.01553  0.83102  0.29062  1.0000
  H   H1266     1.0  0.27595  0.90982  0.01430  1.0000
  C   C757      1.0  0.32922  0.93131  0.40157  1.0000
  H   H1267     1.0  0.32919  0.95565  0.06707  1.0000
  H   H1268     1.0  0.19215  0.82422  0.17117  1.0000
  H   H1269     1.0  0.11802  0.94840  0.16029  1.0000
  C   C758      1.0  0.04985  0.78268  0.41903  1.0000
  C   C759      1.0  0.31401  0.96088  0.07502  1.0000
  H   H1270     1.0  0.32638  0.90084  0.05240  1.0000
  C   C760      1.0  0.05182  0.77781  0.37532  1.0000
  C   C761      1.0  0.07998  0.85794  0.46461  1.0000
  H   H1271     1.0  0.02113  0.92485  0.06664  1.0000
  H   H1272     1.0  0.28749  0.94468  0.00126  1.0000
  C   C762      1.0  0.06348  0.87690  0.46088  1.0000
  C   C763      1.0  0.27165  0.94607  0.05646  1.0000
  H   H1273     1.0  0.16485  0.74579  0.98798  1.0000
  C   C764      1.0  0.09701  0.75040  0.40204  1.0000
  H   H1274     1.0  0.06898  0.75261  0.18252  1.0000
  H   H1275     1.0  0.06685  0.84828  0.25444  1.0000
  H   H1276     1.0  0.03251  0.84776  0.25125  1.0000
  H   H1277     1.0  0.04762  0.86303  0.43838  1.0000
  H   H1278     1.0  0.06010  0.80973  0.28530  1.0000
  S   S220      1.0  0.24266  0.97813  0.15953  1.0000
  C   C765      1.0  0.04094  0.85843  0.45456  1.0000
  H   H1279     1.0  0.31296  0.93786  0.40176  1.0000
  H   H1280     1.0  0.04818  0.84864  0.27757  1.0000
  H   H1281     1.0  0.31104  0.91863  0.46174  1.0000
  C   C766      1.0  0.32891  0.92812  0.25047  1.0000
  H   H1282     1.0  0.07573  0.74508  0.31466  1.0000
  H   H1283     1.0  0.14191  0.80130  0.02746  1.0000
  H   H1284     1.0  0.04215  0.79632  0.41019  1.0000
  H   H1285     1.0  0.07282  0.77652  0.12154  1.0000
  S   S221      1.0  0.07555  0.76855  0.46129  1.0000
  C   C767      1.0  0.12156  0.78344  0.99802  1.0000
  H   H1286     1.0  0.14933  0.74867  0.37431  1.0000
  H   H1287     1.0  0.24025  0.96439  0.25541  1.0000
  H   H1288     1.0  0.19406  0.76728  0.36961  1.0000
  H   H1289     1.0  0.29669  0.91438  0.99290  1.0000
  H   H1290     1.0  0.02885  0.89893  0.16287  1.0000
  H   H1291     1.0  0.09261  0.76451  0.37243  1.0000
  H   H1292     1.0  0.05040  0.84368  0.45955  1.0000
  H   H1293     1.0  0.02606  0.83160  0.29992  1.0000
  H   H1294     1.0  0.14233  0.74375  0.00772  1.0000
  C   C768      1.0  0.31243  0.90099  0.27178  1.0000
  C   C769      1.0  0.14518  0.80643  0.99466  1.0000
  H   H1295     1.0  0.07510  0.81171  0.26095  1.0000
  C   C770      1.0  0.02773  0.89274  0.45946  1.0000
  C   C771      1.0  0.16141  0.74584  0.34273  1.0000
  H   H1296     1.0  0.10576  0.81496  0.98991  1.0000
  C   C772      1.0  0.13765  0.74486  0.43160  1.0000
  C   C773      1.0  0.26321  0.98310  0.20821  1.0000
  C   C774      1.0  0.25036  0.97237  0.24347  1.0000
  N   N54       1.0  0.06250  0.76261  0.39053  1.0000
  H   H1297     1.0  0.10449  0.78665  0.15354  1.0000
  C   C775      1.0  0.31737  0.90951  0.43313  1.0000
  C   C776      1.0  0.05863  0.79817  0.36749  1.0000
  H   H1298     1.0  0.15588  0.74068  0.33170  1.0000
  H   H1299     1.0  0.03429  0.76282  0.41268  1.0000
  H   H1300     1.0  0.06750  0.88385  0.44476  1.0000
  H   H1301     1.0  0.13867  0.81855  0.98328  1.0000
  H   H1302     1.0  0.13756  0.82694  0.01544  1.0000
  Fe  Fe114     1.0  0.28925  0.97643  0.44318  1.0000
  H   H1303     1.0  0.27362  0.93814  0.07171  1.0000
  H   H1304     1.0  0.29658  0.88994  0.00763  1.0000
  C   C777      1.0  0.12724  0.95450  0.14584  1.0000
  N   N55       1.0  0.14344  0.78617  0.99216  1.0000
  N   N56       1.0  0.11192  0.93724  0.12565  1.0000
  C   C778      1.0  0.11651  0.93414  0.10436  1.0000
  C   C779      1.0  0.09338  0.95375  0.12821  1.0000
  C   C780      1.0  0.10680  0.91800  0.13900  1.0000
  C   C781      1.0  0.13062  0.94203  0.12956  1.0000
  C   C782      1.0  0.13341  0.91600  0.09934  1.0000
  H   H1305     1.0  0.02268  0.93747  0.08513  1.0000
  C   C783      1.0  0.09962  0.91786  0.16153  1.0000
  C   C784      1.0  0.08300  0.75846  0.17417  1.0000
  H   H1306     1.0  0.10248  0.93241  0.10034  1.0000
  H   H1307     1.0  0.12145  0.94746  0.09368  1.0000
  H   H1308     1.0  0.07949  0.77467  0.17432  1.0000
  H   H1309     1.0  0.07955  0.94871  0.12726  1.0000
  H   H1310     1.0  0.09468  0.91338  0.13423  1.0000
  H   H1311     1.0  0.12027  0.90561  0.13762  1.0000
  H   H1312     1.0  0.14169  0.92804  0.13348  1.0000
  H   H1313     1.0  0.13921  0.95046  0.11579  1.0000
  H   H1314     1.0  0.12794  0.90167  0.10577  1.0000
  H   H1315     1.0  0.13750  0.91697  0.08290  1.0000
  H   H1316     1.0  0.14754  0.91548  0.10436  1.0000
  H   H1317     1.0  0.17128  0.77297  0.00325  1.0000
  C   C785      1.0  0.30512  0.91001  0.02197  1.0000
  H   H1318     1.0  0.31155  0.94638  0.04329  1.0000
  H   H1319     1.0  0.09441  0.90353  0.16890  1.0000
  H   H1320     1.0  0.08645  0.92997  0.16519  1.0000
  H   H1321     1.0  0.11239  0.91802  0.16827  1.0000
  C   C786      1.0  0.02003  0.90710  0.09625  1.0000
  H   H1322     1.0  0.25976  0.97968  0.10475  1.0000
  C   C787      1.0  0.08409  0.76535  0.38793  1.0000
  S   S222      1.0  0.07593  0.77779  0.04384  1.0000
  H   H1323     1.0  0.01320  0.89500  0.09457  1.0000
  H   H1324     1.0  0.19819  0.86153  0.19784  1.0000
  H   H1325     1.0  0.14524  0.86944  0.22825  1.0000
  C   C788      1.0  0.05214  0.83537  0.22639  1.0000
  H   H1326     1.0  0.14860  0.77060  0.02145  1.0000
  H   H1327     1.0  0.03776  0.77255  0.27703  1.0000
  H   H1328     1.0  0.18321  0.79753  0.23191  1.0000
  C   C789      1.0  0.06027  0.81832  0.26982  1.0000
  H   H1329     1.0  0.14332  0.75913  0.13647  1.0000
  H   H1330     1.0  0.07311  0.74041  0.37161  1.0000
  C   C790      1.0  0.05235  0.77714  0.26844  1.0000
  C   C791      1.0  0.27769  0.93121  0.04187  1.0000
  H   H1331     1.0  0.21356  0.84586  0.15863  1.0000
  H   H1332     1.0  0.10967  0.97807  0.11048  1.0000
  C   C792      1.0  0.04850  0.79713  0.25359  1.0000
  C   C793      1.0  0.18979  0.82450  0.21045  1.0000
  H   H1333     1.0  0.14725  0.82402  0.19213  1.0000
  H   H1334     1.0  0.06284  0.79742  0.24192  1.0000
  C   C794      1.0  0.16268  0.81775  0.18433  1.0000
  H   H1335     1.0  0.17090  0.81980  0.24090  1.0000
  H   H1336     1.0  0.17200  0.84492  0.16690  1.0000
  C   C795      1.0  0.01426  0.92715  0.08223  1.0000
  H   H1337     1.0  0.07454  0.83907  0.27759  1.0000
  C   C796      1.0  0.02414  0.81362  0.27921  1.0000
  C   C797      1.0  0.21533  0.84751  0.17334  1.0000
  H   H1338     1.0  0.21281  0.73668  0.32285  1.0000
  H   H1339     1.0  0.12321  0.74399  0.12573  1.0000
  C   C798      1.0  0.01963  0.85413  0.45605  1.0000
  Fe  Fe115     1.0  0.06012  0.73644  0.00231  1.0000
  H   H1340     1.0  0.05754  0.80608  0.37957  1.0000
  C   C799      1.0  0.30381  0.91562  0.23899  1.0000
  H   H1341     1.0  0.09458  0.86238  0.46395  1.0000
  H   H1342     1.0  0.09065  0.79656  0.99395  1.0000
  C   C800      1.0  0.29848  0.94612  0.00969  1.0000
  H   H1343     1.0  0.04852  0.80795  0.35754  1.0000
  H   H1344     1.0  0.07559  0.74949  0.14995  1.0000
  H   H1345     1.0  0.09219  0.97225  0.09841  1.0000
  H   H1346     1.0  0.26570  0.93484  0.03289  1.0000
  C   C801      1.0  0.25036  0.97243  0.22355  1.0000
  H   H1347     1.0  0.12014  0.97034  0.14095  1.0000
  C   C802      1.0  0.27488  0.97440  0.09650  1.0000
  H   H1348     1.0  0.22325  0.83317  0.18106  1.0000
  H   H1349     1.0  0.31380  0.94434  0.99943  1.0000
  H   H1350     1.0  0.14235  0.95464  0.14867  1.0000
  H   H1351     1.0  0.16013  0.76226  0.33717  1.0000
  H   H1352     1.0  0.12041  0.76908  0.99472  1.0000
  H   H1353     1.0  0.19584  0.77258  0.34329  1.0000
  H   H1354     1.0  0.02189  0.83185  0.24259  1.0000
  S   S223      1.0  0.10503  0.76352  0.33135  1.0000
  H   H1355     1.0  0.01453  0.76601  0.34498  1.0000
  C   C803      1.0  0.10002  0.74698  0.10957  1.0000
  H   H1356     1.0  0.19810  0.83094  0.21826  1.0000
  H   H1357     1.0  0.29758  0.93805  0.27969  1.0000
  H   H1358     1.0  0.04201  0.91483  0.46625  1.0000
  H   H1359     1.0  0.26044  0.94137  0.28064  1.0000
  H   H1360     1.0  0.08978  0.79372  0.11437  1.0000
  H   H1361     1.0  0.17021  0.85569  0.23084  1.0000
  H   H1362     1.0  0.28999  0.94968  0.25736  1.0000
  C   C804      1.0  0.27185  0.92846  0.27556  1.0000
  H   H1363     1.0  0.28984  0.95321  0.38164  1.0000
  H   H1364     1.0  0.15285  0.86331  0.19275  1.0000
  H   H1365     1.0  0.33097  0.88146  0.25055  1.0000
  N   N57       1.0  0.18032  0.84087  0.19535  1.0000
  Fe  Fe116     1.0  0.12516  0.75917  0.30184  1.0000
  C   C805      1.0  0.16013  0.85257  0.20455  1.0000
  S   S224      1.0  0.28925  0.98039  0.29657  1.0000
  C   C806      1.0  0.29273  0.93488  0.26707  1.0000
  C   C807      1.0  0.30467  0.90351  0.39654  1.0000
  C   C808      1.0  0.17744  0.83250  0.17866  1.0000
  C   C809      1.0  0.17508  0.81308  0.22731  1.0000
  C   C810      1.0  0.16099  0.86464  0.21983  1.0000
  H   H1366     1.0  0.06773  0.83337  0.22889  1.0000
  H   H1367     1.0  0.31423  0.93450  0.09829  1.0000
  C   C811      1.0  0.29229  0.93327  0.22560  1.0000
  Fe  Fe117     1.0  0.08013  0.75036  0.03003  1.0000
  C   C812      1.0  0.13509  0.81185  0.01539  1.0000
  S   S225      1.0  0.32265  0.92795  0.30788  1.0000
  H   H1368     1.0  0.20147  0.81321  0.20282  1.0000
  C   C813      1.0  0.31473  0.93186  0.03851  1.0000
  H   H1369     1.0  0.32944  0.87037  0.27640  1.0000
  C   C814      1.0  0.32915  0.94790  0.23511  1.0000
  H   H1370     1.0  0.29344  0.94839  0.22664  1.0000
  N   N58       1.0  0.04246  0.81594  0.26234  1.0000
  H   H1371     1.0  0.22538  0.85865  0.17007  1.0000
  C   C815      1.0  0.19458  0.85555  0.18616  1.0000
  Fe  Fe118     1.0  0.31879  0.96895  0.47029  1.0000
  S   S226      1.0  0.28217  0.96262  0.42066  1.0000
  S   S227      1.0  0.08489  0.75413  0.99669  1.0000
  C   C816      1.0  0.09477  0.97352  0.11292  1.0000
  H   H1372     1.0  0.32342  0.88964  0.33281  1.0000
  C   C817      1.0  0.28564  0.96927  0.38018  1.0000
  H   H1373     1.0  0.27612  0.97181  0.01981  1.0000
  H   H1374     1.0  0.30427  0.89757  0.03519  1.0000
  H   H1375     1.0  0.08977  0.95759  0.14325  1.0000
  H   H1376     1.0  0.04099  0.78159  0.43461  1.0000
  H   H1377     1.0  0.29871  0.89394  0.27609  1.0000
  H   H1378     1.0  0.32968  0.93167  0.02779  1.0000
  H   H1379     1.0  0.11572  0.78213  0.01439  1.0000
  H   H1380     1.0  0.27624  0.91625  0.05151  1.0000
  N   N59       1.0  0.04177  0.87353  0.46628  1.0000
  H   H1381     1.0  0.07437  0.79641  0.35826  1.0000
  C   C818      1.0  0.02671  0.75384  0.34074  1.0000
  H   H1382     1.0  0.30225  0.97179  0.02074  1.0000
  H   H1383     1.0  0.32141  0.90774  0.01392  1.0000
  C   C819      1.0  0.13139  0.76399  0.14918  1.0000
  H   H1384     1.0  0.05694  0.78730  0.15300  1.0000
  C   C820      1.0  0.08929  0.75275  0.15324  1.0000
  H   H1385     1.0  0.31778  0.90872  0.22916  1.0000
  C   C821      1.0  0.19621  0.74196  0.32297  1.0000
  H   H1386     1.0  0.03226  0.74892  0.38036  1.0000
  C   C822      1.0  0.30283  0.97946  0.06766  1.0000
  H   H1387     1.0  0.11834  0.81262  0.01911  1.0000
  C   C823      1.0  0.32584  0.89663  0.40213  1.0000
  C   C824      1.0  0.04552  0.75787  0.32918  1.0000
  C   C825      1.0  0.26347  0.98239  0.24808  1.0000
  C   C826      1.0  0.28556  0.98123  0.36114  1.0000
  H   H1388     1.0  0.32800  0.94609  0.22029  1.0000
  C   C827      1.0  0.05045  0.76370  0.41143  1.0000
  C   C828      1.0  0.13241  0.73843  0.46764  1.0000
  H   H1389     1.0  0.30352  0.91784  0.38565  1.0000
  H   H1390     1.0  0.30391  0.91330  0.06784  1.0000
  H   H1391     1.0  0.06525  0.78434  0.41949  1.0000
  H   H1392     1.0  0.13828  0.77250  0.15628  1.0000
  H   H1393     1.0  0.12740  0.75069  0.16038  1.0000
  H   H1394     1.0  0.28998  0.97432  0.34813  1.0000
  C   C829      1.0  0.29264  0.90611  0.00846  1.0000
  H   H1395     1.0  0.16150  0.80761  0.99197  1.0000
  S   S228      1.0  0.32866  0.98055  0.31521  1.0000
  H   H1396     1.0  0.32175  0.93632  0.44158  1.0000
  C   C830      1.0  0.01672  0.74752  0.47135  1.0000
  H   H1397     1.0  0.05395  0.77175  0.36160  1.0000
  H   H1398     1.0  0.17972  0.74788  0.29862  1.0000
  H   H1399     1.0  0.29439  0.97802  0.99761  1.0000
  C   C831      1.0  0.10626  0.79979  0.98751  1.0000
  H   H1400     1.0  0.08303  0.84892  0.45282  1.0000
  H   H1401     1.0  0.09007  0.75073  0.41799  1.0000
  H   H1402     1.0  0.19308  0.98412  0.21920  1.0000
  S   S229      1.0  0.03351  0.74809  0.98642  1.0000
  C   C832      1.0  0.19076  0.74205  0.35865  1.0000
  H   H1403     1.0  0.26337  0.98326  0.19281  1.0000
  H   H1404     1.0  0.08254  0.98570  0.11844  1.0000
  S   S230      1.0  0.00303  0.93773  0.15772  1.0000
  C   C833      1.0  0.06356  0.74209  0.38671  1.0000
  H   H1405     1.0  0.20738  0.73601  0.35761  1.0000
  H   H1406     1.0  0.00930  0.77943  0.46145  1.0000
  H   H1407     1.0  0.31491  0.97904  0.11865  1.0000
  C   C834      1.0  0.28046  0.97803  0.39714  1.0000
  H   H1408     1.0  0.01166  0.89056  0.46299  1.0000
  H   H1409     1.0  0.10020  0.73815  0.15493  1.0000
  C   C835      1.0  0.06120  0.74207  0.32374  1.0000
  H   H1410     1.0  0.01723  0.92418  0.46098  1.0000
  S   S231      1.0  0.28920  0.95899  0.47444  1.0000
  C   C836      1.0  0.00188  0.97075  0.06814  1.0000
  H   H1411     1.0  0.01141  0.85027  0.47174  1.0000
  N   N60       1.0  0.33149  0.90999  0.41287  1.0000
  C   C837      1.0  0.00054  0.76351  0.44326  1.0000
  C   C838      1.0  0.00008  0.74472  0.43991  1.0000
  S   S232      1.0  0.32025  0.98395  0.43831  1.0000
  H   H1412     1.0  0.08952  0.73782  0.12044  1.0000
  H   H1413     1.0  0.00109  0.82815  0.30121  1.0000
  C   C839      1.0  0.19125  0.73593  0.30530  1.0000
  H   H1414     1.0  0.16697  0.73819  0.01344  1.0000
  H   H1415     1.0  0.11129  0.73692  0.10020  1.0000
  C   C840      1.0  0.04277  0.73680  0.38805  1.0000
  C   C841      1.0  0.31234  0.94606  0.81248  1.0000
  C   C842      1.0  0.10242  0.80316  0.76849  1.0000
  H   H1416     1.0  0.26769  0.76715  0.91794  1.0000
  H   H1417     1.0  0.11412  0.74958  0.96117  1.0000
  S   S233      1.0  0.07876  0.77745  0.74079  1.0000
  C   C843      1.0  0.00783  0.76014  0.88012  1.0000
  H   H1418     1.0  0.28099  0.96568  0.52570  1.0000
  H   H1419     1.0  0.12883  0.81344  0.78104  1.0000
  C   C844      1.0  0.18524  0.74147  0.81501  1.0000
  C   C845      1.0  0.01517  0.73806  0.88959  1.0000
  H   H1420     1.0  0.28926  0.92314  0.73872  1.0000
  S   S234      1.0  0.20385  0.78394  0.85542  1.0000
  C   C846      1.0  0.00539  0.74297  0.96766  1.0000
  Fe  Fe119     1.0  0.23469  0.77604  0.86365  1.0000
  S   S235      1.0  0.25842  0.79609  0.85442  1.0000
  H   H1421     1.0  0.17857  0.79857  0.96288  1.0000
  Fe  Fe120     1.0  0.10402  0.85781  0.59170  1.0000
  S   S236      1.0  0.08375  0.84471  0.61980  1.0000
  S   S237      1.0  0.11033  0.85078  0.56063  1.0000
  Fe  Fe121     1.0  0.11911  0.88305  0.61338  1.0000
  S   S238      1.0  0.10027  0.87164  0.64317  1.0000
  S   S239      1.0  0.13656  0.90857  0.60548  1.0000
  Fe  Fe122     1.0  0.11016  0.84136  0.63436  1.0000
  S   S240      1.0  0.12314  0.81195  0.65290  1.0000
  Fe  Fe123     1.0  0.07545  0.87607  0.62620  1.0000
  S   S241      1.0  0.04356  0.89099  0.63966  1.0000
  S   S242      1.0  0.13115  0.85247  0.60572  1.0000
  S   S243      1.0  0.09365  0.88933  0.59697  1.0000
  S   S244      1.0  0.22376  0.76041  0.89498  1.0000
  C   C847      1.0  0.14696  0.91580  0.62245  1.0000
  C   C848      1.0  0.14864  0.90387  0.64115  1.0000
  C   C849      1.0  0.15794  0.90983  0.65380  1.0000
  C   C850      1.0  0.16548  0.92776  0.64788  1.0000
  C   C851      1.0  0.16313  0.93999  0.62947  1.0000
  C   C852      1.0  0.15407  0.93394  0.61675  1.0000
  H   H1422     1.0  0.14317  0.88988  0.64570  1.0000
  H   H1423     1.0  0.15962  0.90035  0.66808  1.0000
  H   H1424     1.0  0.04035  0.84888  0.49149  1.0000
  H   H1425     1.0  0.15259  0.94336  0.60239  1.0000
  C   C853      1.0  0.09248  0.84335  0.55130  1.0000
  H   H1426     1.0  0.12578  0.78021  0.50169  1.0000
  C   C854      1.0  0.08510  0.83188  0.52430  1.0000
  C   C855      1.0  0.09803  0.83960  0.53177  1.0000
  S   S245      1.0  0.06447  0.76827  0.50955  1.0000
  H   H1427     1.0  0.08970  0.82875  0.50936  1.0000
  H   H1428     1.0  0.11262  0.84232  0.52253  1.0000
  C   C856      1.0  0.01634  0.92680  0.63715  1.0000
  C   C857      1.0  0.03337  0.91481  0.62710  1.0000
  C   C858      1.0  0.04214  0.92211  0.60732  1.0000
  C   C859      1.0  0.03434  0.94141  0.59779  1.0000
  H   H1429     1.0  0.11902  0.95386  0.64130  1.0000
  H   H1430     1.0  0.05486  0.91288  0.59927  1.0000
  H   H1431     1.0  0.04144  0.94702  0.58256  1.0000
  C   C860      1.0  0.11185  0.77736  0.80611  1.0000
  C   C861      1.0  0.27569  0.82804  0.89593  1.0000
  C   C862      1.0  0.25889  0.81829  0.90278  1.0000
  C   C863      1.0  0.25338  0.80844  0.89028  1.0000
  C   C864      1.0  0.26450  0.80847  0.87069  1.0000
  C   C865      1.0  0.28123  0.81829  0.86382  1.0000
  C   C866      1.0  0.28685  0.82797  0.87637  1.0000
  H   H1432     1.0  0.25014  0.81830  0.91787  1.0000
  H   H1433     1.0  0.24041  0.80103  0.89573  1.0000
  H   H1434     1.0  0.28992  0.81839  0.84869  1.0000
  Fe  Fe124     1.0  0.22425  0.98049  0.66506  1.0000
  C   C867      1.0  0.09143  0.78722  0.71656  1.0000
  C   C868      1.0  0.08200  0.80509  0.70575  1.0000
  C   C869      1.0  0.09161  0.81303  0.68627  1.0000
  C   C870      1.0  0.11086  0.80324  0.67760  1.0000
  C   C871      1.0  0.12048  0.78565  0.68860  1.0000
  C   C872      1.0  0.11076  0.77756  0.70795  1.0000
  H   H1435     1.0  0.06707  0.81269  0.71236  1.0000
  H   H1436     1.0  0.08408  0.82663  0.67792  1.0000
  H   H1437     1.0  0.13546  0.77814  0.68201  1.0000
  H   H1438     1.0  0.11821  0.76385  0.71614  1.0000
  H   H1439     1.0  0.26488  0.92096  0.79495  1.0000
  H   H1440     1.0  0.04571  0.83023  0.56466  1.0000
  S   S246      1.0  0.31022  0.88672  0.88938  1.0000
  H   H1441     1.0  0.16436  0.77750  0.74402  1.0000
  Fe  Fe125     1.0  0.04753  0.77069  0.48566  1.0000
  C   C873      1.0  0.31515  0.91509  0.83708  1.0000
  S   S247      1.0  0.17838  0.93408  0.66345  1.0000
  C   C874      1.0  0.30364  0.93350  0.82955  1.0000
  C   C875      1.0  0.13588  0.76182  0.93628  1.0000
  C   C876      1.0  0.15627  0.75953  0.92594  1.0000
  C   C877      1.0  0.17440  0.78442  0.96236  1.0000
  Fe  Fe126     1.0  0.19357  0.76615  0.88598  1.0000
  C   C878      1.0  0.28106  0.92287  0.78945  1.0000
  C   C879      1.0  0.13206  0.78911  0.52725  1.0000
  H   H1442     1.0  0.15292  0.75567  0.75693  1.0000
  H   H1443     1.0  0.01654  0.92341  0.57439  1.0000
  H   H1444     1.0  0.14331  0.79718  0.96069  1.0000
  H   H1445     1.0  0.01496  0.91926  0.55047  1.0000
  C   C880      1.0  0.25611  0.96908  0.57367  1.0000
  C   C881      1.0  0.33107  0.95626  0.85507  1.0000
  H   H1446     1.0  0.19629  0.73918  0.78402  1.0000
  H   H1447     1.0  0.00942  0.92118  0.65244  1.0000
  H   H1448     1.0  0.26954  0.76287  0.88470  1.0000
  H   H1449     1.0  0.01928  0.90863  0.48457  1.0000
  H   H1450     1.0  0.18641  0.74132  0.92470  1.0000
  H   H1451     1.0  0.01792  0.86779  0.49258  1.0000
  H   H1452     1.0  0.10933  0.79975  0.97130  1.0000
  H   H1453     1.0  0.10980  0.93288  0.65910  1.0000
  H   H1454     1.0  0.25409  0.91753  0.75521  1.0000
  H   H1455     1.0  0.11417  0.76337  0.81742  1.0000
  C   C882      1.0  0.07095  0.75206  0.70379  1.0000
  H   H1456     1.0  0.15449  0.76460  0.73092  1.0000
  H   H1457     1.0  0.00546  0.95684  0.53893  1.0000
  C   C883      1.0  0.26847  0.94848  0.76280  1.0000
  C   C884      1.0  0.15140  0.78455  0.97051  1.0000
  H   H1458     1.0  0.01892  0.76986  0.87811  1.0000
  H   H1459     1.0  0.27030  0.95402  0.74637  1.0000
  H   H1460     1.0  0.13745  0.74237  0.52545  1.0000
  Fe  Fe127     1.0  0.31040  0.85432  0.90391  1.0000
  H   H1461     1.0  0.14276  0.81273  0.75618  1.0000
  H   H1462     1.0  0.11202  0.83035  0.74828  1.0000
  H   H1463     1.0  0.28215  0.93390  0.79794  1.0000
  H   H1464     1.0  0.08511  0.83073  0.75420  1.0000
  H   H1465     1.0  0.28806  0.93816  0.83719  1.0000
  C   C885      1.0  0.06037  0.83276  0.55545  1.0000
  S   S248      1.0  0.20735  0.74902  0.81656  1.0000
  H   H1466     1.0  0.15046  0.76784  0.50800  1.0000
  H   H1467     1.0  0.13191  0.79627  0.73593  1.0000
  H   H1468     1.0  0.09330  0.78931  0.53106  1.0000
  C   C886      1.0  0.01761  0.95351  0.60792  1.0000
  C   C887      1.0  0.15660  0.79169  0.77927  1.0000
  H   H1469     1.0  0.27068  0.89463  0.75068  1.0000
  H   H1470     1.0  0.13490  0.80761  0.55646  1.0000
  S   S249      1.0  0.24318  0.74775  0.85125  1.0000
  C   C888      1.0  0.16929  0.73890  0.83161  1.0000
  H   H1471     1.0  0.03098  0.87301  0.51733  1.0000
  H   H1472     1.0  0.05067  0.75688  0.88000  1.0000
  C   C889      1.0  0.15189  0.76949  0.74537  1.0000
  C   C890      1.0  0.18391  0.73735  0.79689  1.0000
  H   H1473     1.0  0.30522  0.95081  0.74716  1.0000
  H   H1474     1.0  0.10109  0.81588  0.73694  1.0000
  S   S250      1.0  0.04937  0.81913  0.52714  1.0000
  H   H1475     1.0  0.05657  0.86368  0.50695  1.0000
  C   C891      1.0  0.26749  0.90655  0.75959  1.0000
  C   C892      1.0  0.03490  0.86543  0.48827  1.0000
  S   S251      1.0  0.00893  0.97775  0.59538  1.0000
  C   C893      1.0  0.07353  0.84003  0.56311  1.0000
  H   H1476     1.0  0.02685  0.96940  0.64672  1.0000
  H   H1477     1.0  0.11960  0.77545  0.74667  1.0000
  H   H1478     1.0  0.11191  0.76324  0.78216  1.0000
  N   N61       1.0  0.12355  0.79046  0.76836  1.0000
  H   H1479     1.0  0.07460  0.95653  0.59420  1.0000
  C   C894      1.0  0.08951  0.94809  0.59763  1.0000
  H   H1480     1.0  0.07473  0.95661  0.66481  1.0000
  C   C895      1.0  0.13747  0.80302  0.77073  1.0000
  H   H1481     1.0  0.29979  0.83542  0.87090  1.0000
  C   C896      1.0  0.06623  0.82837  0.53616  1.0000
  C   C897      1.0  0.30521  0.93924  0.76115  1.0000
  C   C898      1.0  0.13084  0.78341  0.74870  1.0000
  H   H1482     1.0  0.28958  0.75325  0.85234  1.0000
  C   C899      1.0  0.10100  0.77453  0.53844  1.0000
  H   H1483     1.0  0.09661  0.80969  0.78224  1.0000
  C   C900      1.0  0.10702  0.94942  0.65435  1.0000
  H   H1484     1.0  0.07401  0.76075  0.54950  1.0000
  Fe  Fe128     1.0  0.19690  0.95885  0.65219  1.0000
  H   H1485     1.0  0.25342  0.94372  0.76792  1.0000
  H   H1486     1.0  0.28553  0.95318  0.56069  1.0000
  Fe  Fe129     1.0  0.21131  0.75412  0.84590  1.0000
  Fe  Fe130     1.0  0.06029  0.80175  0.50193  1.0000
  H   H1487     1.0  0.13612  0.76233  0.78607  1.0000
  H   H1488     1.0  0.12337  0.80468  0.52411  1.0000
  H   H1489     1.0  0.17011  0.74209  0.84561  1.0000
  C   C901      1.0  0.28613  0.75621  0.88303  1.0000
  C   C902      1.0  0.10698  0.73826  0.65534  1.0000
  H   H1490     1.0  0.14207  0.78253  0.57055  1.0000
  C   C903      1.0  0.09422  0.95365  0.61565  1.0000
  H   H1491     1.0  0.09129  0.79381  0.76884  1.0000
  C   C904      1.0  0.12138  0.77257  0.78509  1.0000
  S   S252      1.0  0.26001  0.96067  0.59824  1.0000
  C   C905      1.0  0.13879  0.78180  0.50727  1.0000
  N   N62       1.0  0.21663  0.91807  0.58983  1.0000
  C   C906      1.0  0.21014  0.94060  0.58626  1.0000
  C   C907      1.0  0.21658  0.91096  0.61181  1.0000
  C   C908      1.0  0.20121  0.90961  0.58404  1.0000
  C   C909      1.0  0.23757  0.91313  0.57696  1.0000
  C   C910      1.0  0.20686  0.95095  0.56505  1.0000
  C   C911      1.0  0.23169  0.91838  0.61978  1.0000
  C   C912      1.0  0.19846  0.88809  0.59438  1.0000
  C   C913      1.0  0.24812  0.89089  0.57940  1.0000
  H   H1492     1.0  0.19567  0.94513  0.59685  1.0000
  H   H1493     1.0  0.22160  0.94771  0.58913  1.0000
  H   H1494     1.0  0.21988  0.89442  0.61607  1.0000
  H   H1495     1.0  0.20106  0.91550  0.62081  1.0000
  H   H1496     1.0  0.18564  0.91894  0.58732  1.0000
  H   H1497     1.0  0.20477  0.91010  0.56763  1.0000
  H   H1498     1.0  0.23693  0.91792  0.56088  1.0000
  H   H1499     1.0  0.24825  0.92204  0.57859  1.0000
  H   H1500     1.0  0.22138  0.94973  0.55375  1.0000
  H   H1501     1.0  0.19537  0.94534  0.56048  1.0000
  H   H1502     1.0  0.10449  0.77930  0.57511  1.0000
  H   H1503     1.0  0.24774  0.91403  0.61199  1.0000
  H   H1504     1.0  0.22779  0.93478  0.61900  1.0000
  H   H1505     1.0  0.23069  0.91151  0.63584  1.0000
  H   H1506     1.0  0.21298  0.87708  0.59313  1.0000
  H   H1507     1.0  0.18820  0.88337  0.58726  1.0000
  H   H1508     1.0  0.19072  0.88746  0.61034  1.0000
  H   H1509     1.0  0.24313  0.88307  0.57007  1.0000
  H   H1510     1.0  0.24579  0.88273  0.59503  1.0000
  H   H1511     1.0  0.26492  0.88994  0.57462  1.0000
  H   H1512     1.0  0.15380  0.79156  0.79552  1.0000
  C   C914      1.0  0.11248  0.78825  0.56136  1.0000
  H   H1513     1.0  0.16257  0.77626  0.77661  1.0000
  H   H1514     1.0  0.32739  0.91894  0.74288  1.0000
  C   C915      1.0  0.10039  0.82100  0.75086  1.0000
  H   H1515     1.0  0.11002  0.94556  0.61657  1.0000
  H   H1516     1.0  0.07569  0.92094  0.63097  1.0000
  H   H1517     1.0  0.04037  0.95050  0.66303  1.0000
  S   S253      1.0  0.32581  0.85636  0.92786  1.0000
  H   H1518     1.0  0.14637  0.79041  0.53097  1.0000
  H   H1519     1.0  0.12757  0.75148  0.56795  1.0000
  H   H1520     1.0  0.16925  0.80005  0.77232  1.0000
  S   S254      1.0  0.28257  0.83949  0.91247  1.0000
  H   H1521     1.0  0.28882  0.78737  0.92326  1.0000
  H   H1522     1.0  0.26361  0.89933  0.77552  1.0000
  H   H1523     1.0  0.09498  0.96989  0.61155  1.0000
  H   H1524     1.0  0.04483  0.97597  0.65695  1.0000
  H   H1525     1.0  0.12145  0.74647  0.68665  1.0000
  H   H1526     1.0  0.05225  0.95010  0.62530  1.0000
  H   H1527     1.0  0.09420  0.74071  0.64754  1.0000
  C   C916      1.0  0.13266  0.75677  0.55160  1.0000
  H   H1528     1.0  0.29366  0.76928  0.87657  1.0000
  H   H1529     1.0  0.31205  0.77119  0.91499  1.0000
  H   H1530     1.0  0.07579  0.84840  0.47943  1.0000
  S   S255      1.0  0.20175  0.97620  0.62083  1.0000
  H   H1531     1.0  0.30650  0.94705  0.77261  1.0000
  H   H1532     1.0  0.32549  0.97274  0.85350  1.0000
  H   H1533     1.0  0.14622  0.79323  0.49578  1.0000
  H   H1534     1.0  0.16840  0.95405  0.62502  1.0000
  S   S256      1.0  0.23013  0.95180  0.65367  1.0000
  H   H1535     1.0  0.26222  0.96310  0.78887  1.0000
  H   H1536     1.0  0.06922  0.92688  0.67395  1.0000
  S   S257      1.0  0.29796  0.96957  0.80421  1.0000
  H   H1537     1.0  0.06911  0.84291  0.57817  1.0000
  H   H1538     1.0  0.30829  0.90556  0.85023  1.0000
  C   C917      1.0  0.08543  0.95811  0.65012  1.0000
  S   S258      1.0  0.02651  0.74888  0.49153  1.0000
  H   H1539     1.0  0.10500  0.76501  0.52699  1.0000
  H   H1540     1.0  0.09510  0.78280  0.80800  1.0000
  S   S259      1.0  0.16366  0.77765  0.90512  1.0000
  H   H1541     1.0  0.07808  0.90312  0.66772  1.0000
  H   H1542     1.0  0.00721  0.96050  0.56242  1.0000
  H   H1543     1.0  0.10145  0.95192  0.58420  1.0000
  H   H1544     1.0  0.30012  0.95135  0.86813  1.0000
  C   C918      1.0  0.32920  0.74695  0.88782  1.0000
  S   S260      1.0  0.11960  0.74548  0.49043  1.0000
  N   N63       1.0  0.11970  0.77671  0.54449  1.0000
  H   H1545     1.0  0.20094  0.96720  0.56486  1.0000
  C   C919      1.0  0.12990  0.74785  0.95345  1.0000
  H   H1546     1.0  0.05417  0.91739  0.66205  1.0000
  H   H1547     1.0  0.28605  0.89529  0.81123  1.0000
  H   H1548     1.0  0.32376  0.76303  0.88243  1.0000
  H   H1549     1.0  0.07534  0.77774  0.56408  1.0000
  H   H1550     1.0  0.08430  0.97461  0.64483  1.0000
  Fe  Fe131     1.0  0.23449  0.97110  0.62298  1.0000
  S   S261      1.0  0.04061  0.80423  0.48012  1.0000
  H   H1551     1.0  0.29969  0.90347  0.75618  1.0000
  C   C920      1.0  0.28656  0.91609  0.75489  1.0000
  C   C921      1.0  0.04191  0.96383  0.65107  1.0000
  N   N64       1.0  0.28562  0.93118  0.76732  1.0000
  H   H1552     1.0  0.00425  0.76116  0.86538  1.0000
  H   H1553     1.0  0.25330  0.97851  0.76759  1.0000
  H   H1554     1.0  0.18409  0.77144  0.97013  1.0000
  H   H1555     1.0  0.10738  0.77074  0.64721  1.0000
  H   H1556     1.0  0.11895  0.78837  0.80954  1.0000
  S   S262      1.0  0.23326  0.98212  0.69365  1.0000
  H   H1557     1.0  0.17816  0.78306  0.94638  1.0000
  S   S263      1.0  0.32528  0.91681  0.92150  1.0000
  H   H1558     1.0  0.30842  0.90620  0.80087  1.0000
  C   C922      1.0  0.08468  0.76593  0.55567  1.0000
  C   C923      1.0  0.29624  0.77701  0.91264  1.0000
  Fe  Fe132     1.0  0.09202  0.76876  0.48481  1.0000
  C   C924      1.0  0.12917  0.79503  0.56771  1.0000
  H   H1559     1.0  0.28545  0.75231  0.93264  1.0000
  H   H1560     1.0  0.31889  0.92939  0.87263  1.0000
  H   H1561     1.0  0.09772  0.91889  0.63963  1.0000
  H   H1562     1.0  0.12471  0.77440  0.93096  1.0000
  C   C925      1.0  0.05829  0.95925  0.63244  1.0000
  C   C926      1.0  0.26611  0.96681  0.77234  1.0000
  Fe  Fe133     1.0  0.08937  0.74543  0.75568  1.0000
  N   N65       1.0  0.29075  0.74546  0.90310  1.0000
  C   C927      1.0  0.08144  0.92676  0.64140  1.0000
  C   C928      1.0  0.01728  0.93016  0.55837  1.0000
  H   H1563     1.0  0.13109  0.75540  0.65277  1.0000
  C   C929      1.0  0.06988  0.91843  0.66241  1.0000
  H   H1564     1.0  0.14818  0.77086  0.96764  1.0000
  C   C930      1.0  0.13318  0.73905  0.54190  1.0000
  H   H1565     1.0  0.10094  0.80187  0.55756  1.0000
  H   H1566     1.0  0.32820  0.97756  0.88376  1.0000
  H   H1567     1.0  0.14878  0.75832  0.54967  1.0000
  H   H1568     1.0  0.29976  0.89232  0.78718  1.0000
  N   N66       1.0  0.07959  0.94921  0.63541  1.0000
  H   H1569     1.0  0.27989  0.97371  0.76740  1.0000
  C   C931      1.0  0.26895  0.97013  0.53794  1.0000
  S   S264      1.0  0.33162  0.98013  0.74995  1.0000
  H   H1570     1.0  0.29638  0.78620  0.89751  1.0000
  C   C932      1.0  0.11799  0.75617  0.64605  1.0000
  H   H1571     1.0  0.03315  0.93272  0.55214  1.0000
  H   H1572     1.0  0.00045  0.75562  0.81916  1.0000
  C   C933      1.0  0.00586  0.73997  0.82490  1.0000
  H   H1573     1.0  0.04164  0.74722  0.85421  1.0000
  H   H1574     1.0  0.04492  0.88920  0.49811  1.0000
  H   H1575     1.0  0.09012  0.93180  0.59971  1.0000
  H   H1576     1.0  0.09147  0.75305  0.56609  1.0000
  C   C934      1.0  0.04183  0.74687  0.91186  1.0000
  C   C935      1.0  0.29147  0.74327  0.86687  1.0000
  C   C936      1.0  0.08381  0.75391  0.68236  1.0000
  H   H1577     1.0  0.12412  0.75619  0.62989  1.0000
  H   H1578     1.0  0.09161  0.76671  0.68004  1.0000
  H   H1579     1.0  0.07311  0.75919  0.67194  1.0000
  C   C937      1.0  0.27150  0.96310  0.55774  1.0000
  H   H1580     1.0  0.12243  0.80093  0.58174  1.0000
  H   H1581     1.0  0.31446  0.94913  0.88655  1.0000
  Fe  Fe134     1.0  0.32859  0.88759  0.91122  1.0000
  H   H1582     1.0  0.10883  0.95565  0.66673  1.0000
  H   H1583     1.0  0.24677  0.98216  0.72865  1.0000
  C   C938      1.0  0.33238  0.93982  0.80251  1.0000
  H   H1584     1.0  0.06054  0.74132  0.70694  1.0000
  H   H1585     1.0  0.05847  0.97396  0.62194  1.0000
  C   C939      1.0  0.32545  0.92414  0.75704  1.0000
  C   C940      1.0  0.31553  0.94583  0.87171  1.0000
  H   H1586     1.0  0.32982  0.95272  0.84099  1.0000
  C   C941      1.0  0.23807  0.98196  0.56973  1.0000
  H   H1587     1.0  0.32704  0.91112  0.76936  1.0000
  C   C942      1.0  0.29483  0.90318  0.79729  1.0000
  H   H1588     1.0  0.06123  0.76689  0.70584  1.0000
  C   C943      1.0  0.28413  0.76005  0.91720  1.0000
  C   C944      1.0  0.04974  0.74235  0.89057  1.0000
  C   C945      1.0  0.04245  0.87364  0.50302  1.0000
  C   C946      1.0  0.17065  0.74314  0.93267  1.0000
  C   C947      1.0  0.25090  0.98305  0.53405  1.0000
  H   H1589     1.0  0.08076  0.74781  0.71489  1.0000
  S   S265      1.0  0.08944  0.80217  0.47880  1.0000
  C   C948      1.0  0.00842  0.94615  0.62757  1.0000
  C   C949      1.0  0.00233  0.95046  0.55525  1.0000
  H   H1590     1.0  0.03116  0.73650  0.79974  1.0000
  S   S266      1.0  0.08290  0.73716  0.78919  1.0000
  H   H1591     1.0  0.02645  0.75661  0.91367  1.0000
  H   H1592     1.0  0.05228  0.75504  0.91494  1.0000
  S   S267      1.0  0.19879  0.73685  0.87596  1.0000
  H   H1593     1.0  0.26139  0.73618  0.91034  1.0000
  H   H1594     1.0  0.40697  0.06822  0.97827  1.0000
  S   S268      1.0  0.59091  0.20726  0.28745  1.0000
  Fe  Fe135     1.0  0.60790  0.19789  0.25849  1.0000
  S   S269      1.0  0.61191  0.16538  0.25586  1.0000
  Fe  Fe136     1.0  0.54746  0.06458  0.22697  1.0000
  S   S270      1.0  0.52957  0.09299  0.21217  1.0000
  S   S271      1.0  0.53407  0.04443  0.25472  1.0000
  Fe  Fe137     1.0  0.58700  0.06971  0.19763  1.0000
  S   S272      1.0  0.57264  0.09850  0.18029  1.0000
  Fe  Fe138     1.0  0.55694  0.10625  0.21028  1.0000
  S   S273      1.0  0.55425  0.13814  0.21407  1.0000
  Fe  Fe139     1.0  0.54693  0.08264  0.18369  1.0000
  S   S274      1.0  0.53535  0.08319  0.15638  1.0000
  S   S275      1.0  0.57343  0.07854  0.22741  1.0000
  S   S276      1.0  0.56269  0.05329  0.19868  1.0000
  Fe  Fe140     1.0  0.47919  0.20947  0.43149  1.0000
  H   H1595     1.0  0.64881  0.08415  0.19578  1.0000
  H   H1596     1.0  0.36953  0.00110  0.34827  1.0000
  Fe  Fe141     1.0  0.47798  0.18621  0.39993  1.0000
  S   S277      1.0  0.47134  0.21440  0.37750  1.0000
  S   S278      1.0  0.48408  0.15428  0.39470  1.0000
  C   C950      1.0  0.64790  0.12567  0.17791  1.0000
  H   H1597     1.0  0.64283  0.08624  0.22961  1.0000
  S   S279      1.0  0.50892  0.98738  0.12923  1.0000
  N   N67       1.0  0.63155  0.11313  0.18370  1.0000
  S   S280      1.0  0.50321  0.19583  0.40799  1.0000
  S   S281      1.0  0.45444  0.19724  0.42548  1.0000
  Fe  Fe142     1.0  0.40517  0.06858  0.33833  1.0000
  S   S282      1.0  0.43742  0.07300  0.32528  1.0000
  S   S283      1.0  0.38201  0.07270  0.31934  1.0000
  Fe  Fe143     1.0  0.41136  0.06071  0.38102  1.0000
  S   S284      1.0  0.44404  0.06417  0.37130  1.0000
  S   S285      1.0  0.39979  0.05228  0.41405  1.0000
  Fe  Fe144     1.0  0.43279  0.09089  0.34930  1.0000
  S   S286      1.0  0.43935  0.12240  0.34340  1.0000
  Fe  Fe145     1.0  0.44539  0.04596  0.34862  1.0000
  H   H1598     1.0  0.58889  0.01497  0.17373  1.0000
  S   S287      1.0  0.39970  0.08849  0.36060  1.0000
  S   S288      1.0  0.41341  0.04048  0.36008  1.0000
  H   H1599     1.0  0.39512  0.98816  0.44747  1.0000
  H   H1600     1.0  0.64443  0.08792  0.14334  1.0000
  Fe  Fe146     1.0  0.37250  0.99158  0.98626  1.0000
  C   C951      1.0  0.41799  0.06504  0.26715  1.0000
  H   H1601     1.0  0.35864  0.02527  0.36909  1.0000
  H   H1602     1.0  0.52866  0.99685  0.21621  1.0000
  H   H1603     1.0  0.45268  0.98816  0.39945  1.0000
  H   H1604     1.0  0.49172  0.06400  0.28535  1.0000
  C   C952      1.0  0.34172  0.99366  0.11005  1.0000
  H   H1605     1.0  0.59917  0.11687  0.19755  1.0000
  H   H1606     1.0  0.56456  0.15649  0.46675  1.0000
  H   H1607     1.0  0.48400  0.03089  0.23579  1.0000
  Fe  Fe147     1.0  0.48066  0.01069  0.13433  1.0000
  S   S289      1.0  0.47684  0.02405  0.16149  1.0000
  H   H1608     1.0  0.43948  0.07762  0.27481  1.0000
  H   H1609     1.0  0.60494  0.12654  0.25599  1.0000
  H   H1610     1.0  0.49501  0.00803  0.99166  1.0000
  C   C953      1.0  0.57650  0.99440  0.13711  1.0000
  H   H1611     1.0  0.34343  0.01837  0.45128  1.0000
  S   S290      1.0  0.37361  0.00321  0.28028  1.0000
  H   H1612     1.0  0.56651  0.05741  0.09813  1.0000
  H   H1613     1.0  0.44621  0.01355  0.40296  1.0000
  H   H1614     1.0  0.60109  0.07405  0.15639  1.0000
  C   C954      1.0  0.40875  0.98838  0.38469  1.0000
  C   C955      1.0  0.35662  0.99733  0.34419  1.0000
  H   H1615     1.0  0.58382  0.02145  0.10517  1.0000
  C   C956      1.0  0.60304  0.14391  0.17594  1.0000
  S   S291      1.0  0.44068  0.01481  0.08139  1.0000
  H   H1616     1.0  0.56040  0.05824  0.12408  1.0000
  C   C957      1.0  0.61402  0.06293  0.15152  1.0000
  S   S292      1.0  0.48359  0.02522  0.10204  1.0000
  C   C958      1.0  0.57821  0.21984  0.42128  1.0000
  C   C959      1.0  0.38047  0.05337  0.30803  1.0000
  C   C960      1.0  0.36563  0.05685  0.29657  1.0000
  C   C961      1.0  0.36314  0.04148  0.28827  1.0000
  C   C962      1.0  0.37591  0.02267  0.29092  1.0000
  C   C963      1.0  0.39117  0.01938  0.30181  1.0000
  C   C964      1.0  0.39330  0.03456  0.31063  1.0000
  H   H1617     1.0  0.35582  0.07144  0.29430  1.0000
  H   H1618     1.0  0.61198  0.99775  0.07494  1.0000
  H   H1619     1.0  0.40097  0.00482  0.30374  1.0000
  H   H1620     1.0  0.40474  0.03169  0.31948  1.0000
  C   C965      1.0  0.37426  0.04951  0.42025  1.0000
  C   C966      1.0  0.53160  0.16549  0.47344  1.0000
  H   H1621     1.0  0.59103  0.03658  0.14144  1.0000
  C   C967      1.0  0.57127  0.05047  0.11255  1.0000
  C   C968      1.0  0.59001  0.02757  0.25993  1.0000
  H   H1622     1.0  0.58408  0.98833  0.20332  1.0000
  S   S293      1.0  0.36943  0.99766  0.01685  1.0000
  C   C969      1.0  0.57135  0.02777  0.11682  1.0000
  H   H1623     1.0  0.41441  0.02257  0.05369  1.0000
  C   C970      1.0  0.35973  0.06343  0.41086  1.0000
  C   C971      1.0  0.47141  0.14580  0.38038  1.0000
  C   C972      1.0  0.45832  0.15903  0.36876  1.0000
  C   C973      1.0  0.44903  0.15166  0.35713  1.0000
  C   C974      1.0  0.45212  0.13097  0.35759  1.0000
  C   C975      1.0  0.46511  0.11774  0.36931  1.0000
  C   C976      1.0  0.47489  0.12517  0.38046  1.0000
  H   H1624     1.0  0.45548  0.17494  0.36859  1.0000
  H   H1625     1.0  0.43905  0.16200  0.34803  1.0000
  H   H1626     1.0  0.46778  0.10181  0.36962  1.0000
  H   H1627     1.0  0.48509  0.11484  0.38933  1.0000
  H   H1628     1.0  0.57889  0.01842  0.06821  1.0000
  C   C977      1.0  0.34370  0.05620  0.36692  1.0000
  C   C978      1.0  0.51911  0.06663  0.15815  1.0000
  C   C979      1.0  0.51126  0.05527  0.17651  1.0000
  C   C980      1.0  0.49833  0.04218  0.17741  1.0000
  C   C981      1.0  0.49362  0.04002  0.15991  1.0000
  C   C982      1.0  0.50201  0.05088  0.14151  1.0000
  C   C983      1.0  0.51449  0.06435  0.14067  1.0000
  H   H1629     1.0  0.51495  0.05684  0.19000  1.0000
  H   H1630     1.0  0.49194  0.03373  0.19167  1.0000
  H   H1631     1.0  0.49841  0.04935  0.12797  1.0000
  H   H1632     1.0  0.52059  0.07303  0.12642  1.0000
  H   H1633     1.0  0.54450  0.99025  0.14783  1.0000
  N   N68       1.0  0.57384  0.01636  0.13747  1.0000
  H   H1634     1.0  0.65367  0.07850  0.16571  1.0000
  H   H1635     1.0  0.45551  0.99997  0.23674  1.0000
  Fe  Fe148     1.0  0.51057  0.00032  0.09681  1.0000
  H   H1636     1.0  0.64711  0.11090  0.21751  1.0000
  H   H1637     1.0  0.61676  0.09750  0.17028  1.0000
  H   H1638     1.0  0.40332  0.00032  0.03757  1.0000
  H   H1639     1.0  0.35761  0.05917  0.36998  1.0000
  C   C984      1.0  0.59473  0.15800  0.24542  1.0000
  C   C985      1.0  0.58142  0.17209  0.23460  1.0000
  C   C986      1.0  0.56881  0.16574  0.22548  1.0000
  C   C987      1.0  0.56929  0.14527  0.22711  1.0000
  C   C988      1.0  0.58215  0.13115  0.23840  1.0000
  C   C989      1.0  0.59489  0.13752  0.24742  1.0000
  H   H1640     1.0  0.58107  0.18786  0.23294  1.0000
  H   H1641     1.0  0.55881  0.17675  0.21689  1.0000
  C   C990      1.0  0.37579  0.10215  0.43693  1.0000
  H   H1642     1.0  0.33851  0.06912  0.35558  1.0000
  C   C991      1.0  0.64846  0.09255  0.15561  1.0000
  C   C992      1.0  0.37965  0.11933  0.41901  1.0000
  H   H1643     1.0  0.36286  0.99146  0.33010  1.0000
  S   S294      1.0  0.62363  0.23008  0.31027  1.0000
  C   C993      1.0  0.61134  0.12601  0.19125  1.0000
  H   H1644     1.0  0.62155  0.10637  0.22829  1.0000
  H   H1645     1.0  0.58240  0.11535  0.24003  1.0000
  C   C994      1.0  0.62569  0.05068  0.16500  1.0000
  H   H1646     1.0  0.61453  0.01270  0.16048  1.0000
  H   H1647     1.0  0.56252  0.99651  0.17591  1.0000
  C   C995      1.0  0.53126  0.01791  0.23278  1.0000
  C   C996      1.0  0.53053  0.02145  0.25166  1.0000
  H   H1648     1.0  0.59151  0.16989  0.97983  1.0000
  H   H1649     1.0  0.56637  0.16512  0.98336  1.0000
  H   H1650     1.0  0.58082  0.20274  0.98055  1.0000
  H   H1651     1.0  0.53352  0.02959  0.21978  1.0000
  H   H1652     1.0  0.66108  0.10082  0.14847  1.0000
  C   C997      1.0  0.52358  0.98810  0.26657  1.0000
  H   H1653     1.0  0.36012  0.03921  0.34463  1.0000
  H   H1654     1.0  0.52757  0.17221  0.98700  1.0000
  H   H1655     1.0  0.56382  0.18937  0.46359  1.0000
  S   S295      1.0  0.45957  0.99138  0.13278  1.0000
  H   H1656     1.0  0.34300  0.00952  0.10857  1.0000
  H   H1657     1.0  0.62977  0.00940  0.24708  1.0000
  H   H1658     1.0  0.49096  0.03374  0.00856  1.0000
  H   H1659     1.0  0.55179  0.01942  0.18478  1.0000
  H   H1660     1.0  0.50119  0.01858  0.06067  1.0000
  C   C998      1.0  0.34794  0.03095  0.44004  1.0000
  H   H1661     1.0  0.58393  0.18565  0.47722  1.0000
  C   C999      1.0  0.63529  0.04599  0.12507  1.0000
  H   H1662     1.0  0.40916  0.01436  0.40545  1.0000
  C   C1000     1.0  0.44125  0.00222  0.39758  1.0000
  H   H1663     1.0  0.66461  0.22485  0.28481  1.0000
  C   C1001     1.0  0.64694  0.03359  0.13854  1.0000
  H   H1664     1.0  0.60421  0.03290  0.25879  1.0000
  H   H1665     1.0  0.55684  0.02639  0.11360  1.0000
  C   C1002     1.0  0.52831  0.99941  0.23079  1.0000
  H   H1666     1.0  0.38080  0.10352  0.45016  1.0000
  C   C1003     1.0  0.34929  0.03638  0.35915  1.0000
  H   H1667     1.0  0.65947  0.02200  0.13364  1.0000
  H   H1668     1.0  0.62757  0.02099  0.22225  1.0000
  C   C1004     1.0  0.48262  0.04363  0.04523  1.0000
  H   H1669     1.0  0.38279  0.08738  0.43271  1.0000
  H   H1670     1.0  0.58681  0.05340  0.11077  1.0000
  H   H1671     1.0  0.36481  0.02069  0.06980  1.0000
  S   S296      1.0  0.63989  0.04232  0.10051  1.0000
  H   H1672     1.0  0.51945  0.99526  0.99765  1.0000
  H   H1673     1.0  0.55577  0.03894  0.15430  1.0000
  H   H1674     1.0  0.54439  0.17450  0.00819  1.0000
  H   H1675     1.0  0.59660  0.13888  0.16550  1.0000
  C   C1005     1.0  0.62949  0.10592  0.16594  1.0000
  H   H1676     1.0  0.55878  0.22480  0.99998  1.0000
  C   C1006     1.0  0.52171  0.99547  0.03508  1.0000
  C   C1007     1.0  0.64240  0.03622  0.15843  1.0000
  H   H1677     1.0  0.35150  0.04424  0.27964  1.0000
  H   H1678     1.0  0.53176  0.22868  0.00329  1.0000
  H   H1679     1.0  0.51607  0.20928  0.98859  1.0000
  Fe  Fe149     1.0  0.49454  0.22495  0.38769  1.0000
  Fe  Fe150     1.0  0.34197  0.99664  0.28488  1.0000
  H   H1680     1.0  0.55915  0.17531  0.03473  1.0000
  H   H1681     1.0  0.51498  0.03376  0.04048  1.0000
  H   H1682     1.0  0.57024  0.99048  0.26187  1.0000
  C   C1008     1.0  0.36832  0.03347  0.43505  1.0000
  H   H1683     1.0  0.44156  0.00805  0.38153  1.0000
  C   C1009     1.0  0.48393  0.00294  0.03864  1.0000
  H   H1684     1.0  0.65148  0.02668  0.16879  1.0000
  H   H1685     1.0  0.39241  0.15473  0.40066  1.0000
  H   H1686     1.0  0.54422  0.01422  0.03315  1.0000
  Fe  Fe151     1.0  0.61451  0.22617  0.28282  1.0000
  S   S297      1.0  0.63329  0.21441  0.25543  1.0000
  C   C1010     1.0  0.52657  0.00655  0.26854  1.0000
  H   H1687     1.0  0.52581  0.00929  0.28320  1.0000
  H   H1688     1.0  0.33731  0.00215  0.38064  1.0000
  C   C1011     1.0  0.64509  0.99100  0.22535  1.0000
  H   H1689     1.0  0.48261  0.05260  0.05625  1.0000
  C   C1012     1.0  0.46574  0.98584  0.21069  1.0000
  Fe  Fe152     1.0  0.44940  0.22627  0.40356  1.0000
  N   N69       1.0  0.50321  0.01160  0.03187  1.0000
  C   C1013     1.0  0.63508  0.09536  0.20029  1.0000
  H   H1690     1.0  0.34308  0.98692  0.12573  1.0000
  C   C1014     1.0  0.63679  0.10027  0.21989  1.0000
  H   H1691     1.0  0.57723  0.04060  0.26169  1.0000
  H   H1692     1.0  0.46120  0.99555  0.27585  1.0000
  H   H1693     1.0  0.60205  0.99283  0.16297  1.0000
  H   H1694     1.0  0.39806  0.00301  0.38206  1.0000
  H   H1695     1.0  0.41956  0.99892  0.42522  1.0000
  C   C1015     1.0  0.47865  0.06721  0.27782  1.0000
  H   H1696     1.0  0.48144  0.00080  0.22470  1.0000
  H   H1697     1.0  0.40484  0.07485  0.27508  1.0000
  H   H1698     1.0  0.51704  0.03225  0.00659  1.0000
  H   H1699     1.0  0.53034  0.16077  0.45993  1.0000
  H   H1700     1.0  0.61016  0.00620  0.20507  1.0000
  C   C1016     1.0  0.41954  0.99987  0.40938  1.0000
  H   H1701     1.0  0.57737  0.18281  0.01277  1.0000
  C   C1017     1.0  0.54640  0.22427  0.99275  1.0000
  C   C1018     1.0  0.54527  0.18976  0.00917  1.0000
  N   N70       1.0  0.45552  0.04828  0.26840  1.0000
  C   C1019     1.0  0.43655  0.06228  0.27667  1.0000
  C   C1020     1.0  0.47172  0.04734  0.27969  1.0000
  C   C1021     1.0  0.45005  0.02782  0.27183  1.0000
  C   C1022     1.0  0.46184  0.05650  0.24639  1.0000
  H   H1702     1.0  0.42342  0.99034  0.37411  1.0000
  H   H1703     1.0  0.46381  0.00002  0.19948  1.0000
  C   C1023     1.0  0.46705  0.00919  0.27521  1.0000
  C   C1024     1.0  0.48293  0.04689  0.23561  1.0000
  H   H1704     1.0  0.43150  0.05706  0.29305  1.0000
  H   H1705     1.0  0.66308  0.16252  0.47397  1.0000
  H   H1706     1.0  0.48590  0.03664  0.27482  1.0000
  H   H1707     1.0  0.46642  0.04151  0.29592  1.0000
  H   H1708     1.0  0.43763  0.02558  0.28538  1.0000
  H   H1709     1.0  0.44359  0.02650  0.25937  1.0000
  H   H1710     1.0  0.45075  0.05508  0.23804  1.0000
  H   H1711     1.0  0.46166  0.07287  0.24380  1.0000
  H   H1712     1.0  0.52065  0.98914  0.05132  1.0000
  H   H1713     1.0  0.53017  0.19515  0.01857  1.0000
  H   H1714     1.0  0.35184  0.01813  0.05193  1.0000
  C   C1025     1.0  0.61914  0.06095  0.13149  1.0000
  H   H1715     1.0  0.59018  0.15390  0.18401  1.0000
  N   N71       1.0  0.54823  0.20346  0.98900  1.0000
  H   H1716     1.0  0.47860  0.00112  0.05513  1.0000
  H   H1717     1.0  0.47133  0.00741  0.28977  1.0000
  H   H1718     1.0  0.48094  0.00938  0.26326  1.0000
  H   H1719     1.0  0.49537  0.04900  0.24168  1.0000
  H   H1720     1.0  0.48550  0.05452  0.21970  1.0000
  H   H1721     1.0  0.37998  0.99682  0.41601  1.0000
  C   C1026     1.0  0.59956  0.00933  0.16078  1.0000
  C   C1027     1.0  0.55527  0.02376  0.15240  1.0000
  H   H1722     1.0  0.60603  0.01731  0.12858  1.0000
  C   C1028     1.0  0.35246  0.01411  0.06800  1.0000
  Fe  Fe153     1.0  0.46530  0.00349  0.09973  1.0000
  H   H1723     1.0  0.64737  0.13548  0.16300  1.0000
  C   C1029     1.0  0.60404  0.99560  0.21862  1.0000
  C   C1030     1.0  0.43804  0.98696  0.32748  1.0000
  H   H1724     1.0  0.58417  0.21007  0.43424  1.0000
  H   H1725     1.0  0.61238  0.13256  0.20376  1.0000
  C   C1031     1.0  0.61840  0.22317  0.44068  1.0000
  C   C1032     1.0  0.59291  0.02045  0.14113  1.0000
  H   H1726     1.0  0.36423  0.07597  0.39957  1.0000
  H   H1727     1.0  0.37950  0.02296  0.44260  1.0000
  Fe  Fe154     1.0  0.57492  0.23341  0.26828  1.0000
  H   H1728     1.0  0.59253  0.03258  0.22805  1.0000
  C   C1033     1.0  0.62671  0.00672  0.23330  1.0000
  H   H1729     1.0  0.41319  0.05069  0.26843  1.0000
  S   S298      1.0  0.61941  0.05342  0.19003  1.0000
  H   H1730     1.0  0.57541  0.20987  0.41258  1.0000
  H   H1731     1.0  0.61010  0.07056  0.12111  1.0000
  C   C1034     1.0  0.64716  0.23478  0.31181  1.0000
  H   H1732     1.0  0.35909  0.10237  0.44152  1.0000
  H   H1733     1.0  0.48418  0.07420  0.26211  1.0000
  H   H1734     1.0  0.40932  0.11520  0.44106  1.0000
  H   H1735     1.0  0.43402  0.13492  0.43595  1.0000
  H   H1736     1.0  0.55119  0.15841  0.29998  1.0000
  H   H1737     1.0  0.64517  0.98958  0.21000  1.0000
  S   S299      1.0  0.47000  0.01864  0.34468  1.0000
  H   H1738     1.0  0.54118  0.02587  0.14658  1.0000
  C   C1035     1.0  0.55154  0.01075  0.17362  1.0000
  H   H1739     1.0  0.46658  0.07812  0.28542  1.0000
  H   H1740     1.0  0.39597  0.13996  0.43510  1.0000
  H   H1741     1.0  0.36908  0.13324  0.42298  1.0000
  C   C1036     1.0  0.44556  0.00275  0.33020  1.0000
  H   H1742     1.0  0.53602  0.00714  0.17735  1.0000
  C   C1037     1.0  0.58255  0.99484  0.21659  1.0000
  H   H1743     1.0  0.54752  0.22476  0.22279  1.0000
  C   C1038     1.0  0.46001  0.99885  0.34201  1.0000
  H   H1744     1.0  0.57448  0.01813  0.24231  1.0000
  H   H1745     1.0  0.42283  0.21753  0.46616  1.0000
  H   H1746     1.0  0.61465  0.15307  0.16756  1.0000
  H   H1747     1.0  0.62234  0.08697  0.20420  1.0000
  S   S300      1.0  0.48448  0.20673  0.46257  1.0000
  C   C1039     1.0  0.50186  0.22065  0.46453  1.0000
  H   H1748     1.0  0.62551  0.11873  0.15390  1.0000
  C   C1040     1.0  0.56737  0.19090  0.47751  1.0000
  N   N72       1.0  0.60584  0.00146  0.23723  1.0000
  H   H1749     1.0  0.64484  0.13614  0.18847  1.0000
  C   C1041     1.0  0.33919  0.06148  0.41656  1.0000
  H   H1750     1.0  0.37886  0.00254  0.09537  1.0000
  H   H1751     1.0  0.53106  0.18187  0.46940  1.0000
  H   H1752     1.0  0.47115  0.01341  0.03238  1.0000
  C   C1042     1.0  0.50148  0.02643  0.04491  1.0000
  C   C1043     1.0  0.41980  0.00654  0.05698  1.0000
  H   H1753     1.0  0.44065  0.01790  0.32270  1.0000
  C   C1044     1.0  0.59023  0.02005  0.24105  1.0000
  H   H1754     1.0  0.58720  0.01606  0.27365  1.0000
  S   S301      1.0  0.59036  0.22297  0.23957  1.0000
  H   H1755     1.0  0.48305  0.05402  0.03061  1.0000
  S   S302      1.0  0.53891  0.00947  0.07614  1.0000
  C   C1045     1.0  0.56169  0.18732  0.02133  1.0000
  H   H1756     1.0  0.34580  0.02514  0.32641  1.0000
  C   C1046     1.0  0.50524  0.02272  0.01056  1.0000
  H   H1757     1.0  0.33746  0.02116  0.07612  1.0000
  H   H1758     1.0  0.60820  0.22211  0.40310  1.0000
  H   H1759     1.0  0.42078  0.07277  0.25131  1.0000
  C   C1047     1.0  0.50952  0.01006  0.99433  1.0000
  Fe  Fe155     1.0  0.65568  0.01081  0.09824  1.0000
  N   N73       1.0  0.40130  0.12283  0.41185  1.0000
  C   C1048     1.0  0.40121  0.14089  0.39504  1.0000
  C   C1049     1.0  0.40786  0.12810  0.42848  1.0000
  C   C1050     1.0  0.41537  0.10490  0.40410  1.0000
  C   C1051     1.0  0.39263  0.13971  0.37731  1.0000
  C   C1052     1.0  0.42822  0.13576  0.42241  1.0000
  C   C1053     1.0  0.42615  0.08860  0.41911  1.0000
  H   H1760     1.0  0.41697  0.14365  0.38851  1.0000
  H   H1761     1.0  0.38322  0.08490  0.98338  1.0000
  H   H1762     1.0  0.37425  0.11568  0.40696  1.0000
  H   H1763     1.0  0.40702  0.09725  0.39753  1.0000
  H   H1764     1.0  0.42780  0.10956  0.39154  1.0000
  H   H1765     1.0  0.39924  0.12542  0.37201  1.0000
  H   H1766     1.0  0.37571  0.14188  0.38103  1.0000
  H   H1767     1.0  0.39675  0.15191  0.36457  1.0000
  H   H1768     1.0  0.56061  0.20114  0.02690  1.0000
  H   H1769     1.0  0.44017  0.12683  0.41251  1.0000
  H   H1770     1.0  0.42607  0.15172  0.41472  1.0000
  C   C1054     1.0  0.56225  0.99431  0.08052  1.0000
  H   H1771     1.0  0.43814  0.09381  0.42329  1.0000
  H   H1772     1.0  0.43402  0.07552  0.41194  1.0000
  H   H1773     1.0  0.41551  0.08298  0.43279  1.0000
  N   N74       1.0  0.51929  0.17378  0.33180  1.0000
  C   C1055     1.0  0.49968  0.18786  0.33844  1.0000
  C   C1056     1.0  0.53175  0.16960  0.34761  1.0000
  C   C1057     1.0  0.51379  0.15465  0.33012  1.0000
  C   C1058     1.0  0.53007  0.18390  0.31183  1.0000
  C   C1059     1.0  0.48369  0.19275  0.32526  1.0000
  C   C1060     1.0  0.53738  0.18796  0.35186  1.0000
  C   C1061     1.0  0.52902  0.13484  0.33470  1.0000
  C   C1062     1.0  0.55155  0.17297  0.30326  1.0000
  H   H1774     1.0  0.49213  0.18171  0.35392  1.0000
  H   H1775     1.0  0.50270  0.20256  0.33898  1.0000
  H   H1776     1.0  0.54640  0.15910  0.34385  1.0000
  H   H1777     1.0  0.52339  0.16196  0.36208  1.0000
  H   H1778     1.0  0.49922  0.15200  0.34074  1.0000
  H   H1779     1.0  0.51088  0.15580  0.31503  1.0000
  H   H1780     1.0  0.52102  0.18613  0.30024  1.0000
  H   H1781     1.0  0.53143  0.19923  0.31246  1.0000
  H   H1782     1.0  0.47919  0.17918  0.32359  1.0000
  H   H1783     1.0  0.46961  0.20209  0.33252  1.0000
  H   H1784     1.0  0.48901  0.20168  0.31035  1.0000
  H   H1785     1.0  0.54549  0.19686  0.33826  1.0000
  H   H1786     1.0  0.52382  0.19771  0.35929  1.0000
  H   H1787     1.0  0.54788  0.18271  0.36245  1.0000
  H   H1788     1.0  0.52416  0.12267  0.33053  1.0000
  H   H1789     1.0  0.52881  0.13045  0.35096  1.0000
  H   H1790     1.0  0.54485  0.13538  0.32639  1.0000
  H   H1791     1.0  0.56243  0.17104  0.31304  1.0000
  H   H1792     1.0  0.55772  0.18220  0.28877  1.0000
  C   C1063     1.0  0.46978  0.99118  0.22913  1.0000
  H   H1793     1.0  0.57440  0.23139  0.19376  1.0000
  H   H1794     1.0  0.46802  0.03813  0.05010  1.0000
  C   C1064     1.0  0.33953  0.01581  0.34070  1.0000
  C   C1065     1.0  0.57981  0.00275  0.07515  1.0000
  C   C1066     1.0  0.43307  0.99850  0.07031  1.0000
  H   H1795     1.0  0.58927  0.99011  0.12462  1.0000
  H   H1796     1.0  0.61494  0.21405  0.45593  1.0000
  H   H1797     1.0  0.62127  0.21279  0.43027  1.0000
  H   H1798     1.0  0.49995  0.99247  0.18497  1.0000
  H   H1799     1.0  0.54585  0.00615  0.01021  1.0000
  C   C1067     1.0  0.53109  0.20406  0.97904  1.0000
  C   C1068     1.0  0.37878  0.98626  0.09773  1.0000
  H   H1800     1.0  0.43344  0.23446  0.44419  1.0000
  S   S303      1.0  0.65884  0.99789  0.07112  1.0000
  H   H1801     1.0  0.57314  0.01005  0.21394  1.0000
  H   H1802     1.0  0.63264  0.22879  0.43887  1.0000
  H   H1803     1.0  0.51804  0.01787  0.98017  1.0000
  C   C1069     1.0  0.54264  0.00189  0.02672  1.0000
  H   H1804     1.0  0.58255  0.23123  0.05608  1.0000
  C   C1070     1.0  0.41350  0.99397  0.04783  1.0000
  H   H1805     1.0  0.65946  0.99601  0.22445  1.0000
  H   H1806     1.0  0.61025  0.98696  0.26719  1.0000
  H   H1807     1.0  0.42751  0.98991  0.31773  1.0000
  H   H1808     1.0  0.56326  0.22917  0.42660  1.0000
  H   H1809     1.0  0.55254  0.99547  0.12105  1.0000
  H   H1810     1.0  0.40752  0.23190  0.44890  1.0000
  C   C1071     1.0  0.66492  0.23128  0.29717  1.0000
  C   C1072     1.0  0.41983  0.23234  0.45624  1.0000
  C   C1073     1.0  0.59852  0.99110  0.07901  1.0000
  H   H1811     1.0  0.56395  0.20722  0.47748  1.0000
  C   C1074     1.0  0.35653  0.99108  0.07437  1.0000
  S   S304      1.0  0.64141  0.98649  0.12001  1.0000
  C   C1075     1.0  0.55749  0.98780  0.13513  1.0000
  C   C1076     1.0  0.59373  0.23258  0.40780  1.0000
  H   H1812     1.0  0.55481  0.98899  0.03077  1.0000
  C   C1077     1.0  0.33333  0.04509  0.43091  1.0000
  C   C1078     1.0  0.51037  0.23387  0.44802  1.0000
  H   H1813     1.0  0.50643  0.23561  0.43373  1.0000
  H   H1814     1.0  0.35983  0.10089  0.95378  1.0000
  H   H1815     1.0  0.54949  0.01954  0.54811  1.0000
  Fe  Fe156     1.0  0.63037  0.04740  0.56293  1.0000
  H   H1816     1.0  0.58958  0.03348  0.54407  1.0000
  H   H1817     1.0  0.34567  0.03784  0.92205  1.0000
  H   H1818     1.0  0.42619  0.13005  0.92163  1.0000
  S   S305      1.0  0.65024  0.02649  0.54329  1.0000
  H   H1819     1.0  0.39266  0.09347  0.71155  1.0000
  H   H1820     1.0  0.62878  0.99789  0.63970  1.0000
  Fe  Fe157     1.0  0.51060  0.99341  0.65641  1.0000
  C   C1079     1.0  0.42300  0.12273  0.93763  1.0000
  N   N75       1.0  0.55547  0.15829  0.49820  1.0000
  C   C1080     1.0  0.63896  0.06302  0.61285  1.0000
  C   C1081     1.0  0.55174  0.15382  0.47973  1.0000
  C   C1082     1.0  0.58919  0.98946  0.59681  1.0000
  H   H1821     1.0  0.55147  0.13761  0.48177  1.0000
  H   H1822     1.0  0.52694  0.20036  0.92247  1.0000
  H   H1823     1.0  0.58089  0.15162  0.51325  1.0000
  S   S306      1.0  0.61908  0.03019  0.59315  1.0000
  H   H1824     1.0  0.58303  0.20547  0.85044  1.0000
  H   H1825     1.0  0.33924  0.06729  0.89951  1.0000
  N   N76       1.0  0.43776  0.98810  0.66409  1.0000
  H   H1826     1.0  0.59959  0.18222  0.88903  1.0000
  C   C1083     1.0  0.56888  0.19778  0.97587  1.0000
  S   S307      1.0  0.63701  0.01890  0.67561  1.0000
  H   H1827     1.0  0.43153  0.10712  0.93959  1.0000
  H   H1828     1.0  0.58754  0.01761  0.57695  1.0000
  H   H1829     1.0  0.35324  0.13365  0.92932  1.0000
  C   C1084     1.0  0.39878  0.08813  0.95155  1.0000
  H   H1830     1.0  0.40267  0.20539  0.87718  1.0000
  C   C1085     1.0  0.39984  0.12465  0.94601  1.0000
  C   C1086     1.0  0.58372  0.18645  0.89608  1.0000
  S   S308      1.0  0.56948  0.18832  0.55055  1.0000
  S   S309      1.0  0.65803  0.06652  0.51012  1.0000
  H   H1831     1.0  0.57491  0.00853  0.53798  1.0000
  H   H1832     1.0  0.59410  0.19967  0.82078  1.0000
  H   H1833     1.0  0.58411  0.98963  0.49411  1.0000
  S   S310      1.0  0.51522  0.02906  0.68901  1.0000
  C   C1087     1.0  0.58071  0.12443  0.50356  1.0000
  N   N77       1.0  0.33364  0.03930  0.89617  1.0000
  C   C1088     1.0  0.33725  0.08879  0.81206  1.0000
  Fe  Fe158     1.0  0.52081  0.03348  0.65573  1.0000
  H   H1834     1.0  0.42410  0.04054  0.65967  1.0000
  Fe  Fe159     1.0  0.48756  0.01755  0.68877  1.0000
  S   S311      1.0  0.45626  0.03094  0.70490  1.0000
  H   H1835     1.0  0.41313  0.01176  0.65524  1.0000
  S   S312      1.0  0.49203  0.02447  0.65539  1.0000
  Fe  Fe160     1.0  0.35543  0.10603  0.85279  1.0000
  S   S313      1.0  0.36249  0.07790  0.83940  1.0000
  Fe  Fe161     1.0  0.37520  0.13488  0.86614  1.0000
  H   H1836     1.0  0.55883  0.18331  0.50941  1.0000
  S   S314      1.0  0.40506  0.14512  0.86242  1.0000
  H   H1837     1.0  0.60826  0.10010  0.60977  1.0000
  H   H1838     1.0  0.34416  0.03435  0.97527  1.0000
  S   S315      1.0  0.37310  0.10243  0.87655  1.0000
  S   S316      1.0  0.36069  0.13755  0.84018  1.0000
  S   S317      1.0  0.47098  0.20805  0.88807  1.0000
  C   C1089     1.0  0.43562  0.02644  0.65899  1.0000
  Fe  Fe162     1.0  0.49746  0.19933  0.90339  1.0000
  S   S318      1.0  0.52807  0.18298  0.88922  1.0000
  Fe  Fe163     1.0  0.45180  0.20066  0.91876  1.0000
  S   S319      1.0  0.42371  0.18672  0.92486  1.0000
  H   H1839     1.0  0.42792  0.21645  0.88715  1.0000
  S   S320      1.0  0.38321  0.01169  0.95708  1.0000
  H   H1840     1.0  0.56843  0.04556  0.53272  1.0000
  C   C1090     1.0  0.62734  0.20385  0.82758  1.0000
  C   C1091     1.0  0.35055  0.04342  0.96139  1.0000
  C   C1092     1.0  0.36957  0.03601  0.95016  1.0000
  C   C1093     1.0  0.37774  0.04787  0.93227  1.0000
  C   C1094     1.0  0.36676  0.06676  0.92526  1.0000
  C   C1095     1.0  0.61940  0.22539  0.81727  1.0000
  H   H1841     1.0  0.63444  0.00172  0.52684  1.0000
  H   H1842     1.0  0.39249  0.04223  0.92357  1.0000
  H   H1843     1.0  0.37319  0.07543  0.91134  1.0000
  C   C1096     1.0  0.40974  0.15740  0.87951  1.0000
  C   C1097     1.0  0.42955  0.16064  0.87746  1.0000
  C   C1098     1.0  0.43400  0.16991  0.89106  1.0000
  C   C1099     1.0  0.41866  0.17586  0.90693  1.0000
  C   C1100     1.0  0.39876  0.17298  0.90876  1.0000
  C   C1101     1.0  0.39426  0.16399  0.89499  1.0000
  H   H1844     1.0  0.44160  0.15571  0.86545  1.0000
  H   H1845     1.0  0.44940  0.17199  0.88952  1.0000
  H   H1846     1.0  0.38676  0.17782  0.92085  1.0000
  H   H1847     1.0  0.37884  0.16205  0.89645  1.0000
  S   S321      1.0  0.34315  0.02504  0.73590  1.0000
  H   H1848     1.0  0.35702  0.01883  0.87988  1.0000
  C   C1102     1.0  0.53928  0.15153  0.51582  1.0000
  C   C1103     1.0  0.34398  0.04966  0.80508  1.0000
  C   C1104     1.0  0.34958  0.07333  0.82272  1.0000
  S   S322      1.0  0.63727  0.11770  0.51960  1.0000
  C   C1105     1.0  0.60219  0.01034  0.49520  1.0000
  H   H1849     1.0  0.44534  0.02571  0.66951  1.0000
  H   H1850     1.0  0.44326  0.99971  0.63206  1.0000
  H   H1851     1.0  0.63350  0.12235  0.59579  1.0000
  H   H1852     1.0  0.53634  0.13673  0.51538  1.0000
  C   C1106     1.0  0.40269  0.01177  0.72372  1.0000
  C   C1107     1.0  0.41781  0.02317  0.71419  1.0000
  C   C1108     1.0  0.43817  0.01554  0.71582  1.0000
  H   H1853     1.0  0.58829  0.15253  0.48762  1.0000
  Fe  Fe164     1.0  0.57408  0.21871  0.53213  1.0000
  H   H1854     1.0  0.38707  0.01773  0.72228  1.0000
  H   H1855     1.0  0.41373  0.03795  0.70550  1.0000
  H   H1856     1.0  0.56380  0.02099  0.68462  1.0000
  H   H1857     1.0  0.54274  0.17947  0.96211  1.0000
  C   C1109     1.0  0.56821  0.18199  0.88915  1.0000
  H   H1858     1.0  0.57210  0.17446  0.87661  1.0000
  H   H1859     1.0  0.39670  0.12577  0.96202  1.0000
  H   H1860     1.0  0.37042  0.05666  0.88356  1.0000
  H   H1861     1.0  0.61846  0.19961  0.84283  1.0000
  C   C1110     1.0  0.35416  0.13302  0.94491  1.0000
  H   H1862     1.0  0.36243  0.04170  0.82735  1.0000
  C   C1111     1.0  0.58162  0.22052  0.85347  1.0000
  C   C1112     1.0  0.33795  0.02881  0.91648  1.0000
  H   H1863     1.0  0.50046  0.20852  0.49585  1.0000
  C   C1113     1.0  0.43681  0.22074  0.84833  1.0000
  H   H1864     1.0  0.56577  0.04455  0.55881  1.0000
  C   C1114     1.0  0.59492  0.04076  0.60511  1.0000
  C   C1115     1.0  0.58733  0.03199  0.62474  1.0000
  C   C1116     1.0  0.56759  0.03946  0.63437  1.0000
  C   C1117     1.0  0.55523  0.05534  0.62426  1.0000
  C   C1118     1.0  0.56320  0.06496  0.60501  1.0000
  C   C1119     1.0  0.58315  0.05763  0.59538  1.0000
  H   H1865     1.0  0.59663  0.01939  0.63256  1.0000
  H   H1866     1.0  0.56182  0.03277  0.64961  1.0000
  H   H1867     1.0  0.39025  0.22873  0.89959  1.0000
  H   H1868     1.0  0.58913  0.06467  0.58032  1.0000
  C   C1120     1.0  0.35278  0.05373  0.81928  1.0000
  H   H1869     1.0  0.58649  0.09679  0.64466  1.0000
  H   H1870     1.0  0.60405  0.99090  0.59917  1.0000
  H   H1871     1.0  0.57524  0.14549  0.56486  1.0000
  C   C1121     1.0  0.61602  0.98778  0.69276  1.0000
  S   S323      1.0  0.52932  0.06133  0.63487  1.0000
  H   H1872     1.0  0.55403  0.20846  0.93428  1.0000
  C   C1122     1.0  0.39888  0.08387  0.97401  1.0000
  Fe  Fe165     1.0  0.53208  0.99760  0.68728  1.0000
  S   S324      1.0  0.61294  0.06665  0.53987  1.0000
  C   C1123     1.0  0.50711  0.21861  0.48297  1.0000
  H   H1873     1.0  0.35118  0.04330  0.86569  1.0000
  H   H1874     1.0  0.61659  0.10790  0.62799  1.0000
  C   C1124     1.0  0.62054  0.15668  0.52112  1.0000
  C   C1125     1.0  0.54763  0.18741  0.89838  1.0000
  S   S325      1.0  0.34064  0.00181  0.78284  1.0000
  H   H1875     1.0  0.63310  0.15996  0.50887  1.0000
  H   H1876     1.0  0.46521  0.99455  0.64244  1.0000
  S   S326      1.0  0.65306  0.19638  0.92128  1.0000
  C   C1126     1.0  0.60582  0.17249  0.52801  1.0000
  C   C1127     1.0  0.56542  0.01597  0.55050  1.0000
  H   H1877     1.0  0.59503  0.03554  0.67411  1.0000
  C   C1128     1.0  0.64638  0.04086  0.62186  1.0000
  H   H1878     1.0  0.62813  0.19274  0.81842  1.0000
  C   C1129     1.0  0.63843  0.10589  0.60036  1.0000
  Fe  Fe166     1.0  0.63766  0.08482  0.53218  1.0000
  N   N78       1.0  0.39727  0.06257  0.75795  1.0000
  C   C1130     1.0  0.38512  0.04719  0.75816  1.0000
  C   C1131     1.0  0.39048  0.08105  0.74327  1.0000
  C   C1132     1.0  0.39145  0.06751  0.77857  1.0000
  C   C1133     1.0  0.41977  0.05381  0.75259  1.0000
  C   C1134     1.0  0.38997  0.02651  0.77172  1.0000
  C   C1135     1.0  0.39462  0.07845  0.72138  1.0000
  C   C1136     1.0  0.40222  0.08268  0.78230  1.0000
  C   C1137     1.0  0.43464  0.06868  0.74393  1.0000
  H   H1879     1.0  0.36840  0.05306  0.76242  1.0000
  H   H1880     1.0  0.38759  0.04391  0.74303  1.0000
  H   H1881     1.0  0.39750  0.09371  0.74314  1.0000
  H   H1882     1.0  0.37372  0.08669  0.74786  1.0000
  H   H1883     1.0  0.37474  0.07347  0.78236  1.0000
  H   H1884     1.0  0.39457  0.05390  0.79008  1.0000
  H   H1885     1.0  0.42492  0.04344  0.76580  1.0000
  H   H1886     1.0  0.42250  0.04437  0.74119  1.0000
  H   H1887     1.0  0.38104  0.01641  0.76928  1.0000
  H   H1888     1.0  0.40627  0.01923  0.76795  1.0000
  H   H1889     1.0  0.56712  0.11780  0.51137  1.0000
  H   H1890     1.0  0.38345  0.07059  0.71914  1.0000
  H   H1891     1.0  0.46089  0.99426  0.67643  1.0000
  H   H1892     1.0  0.38533  0.03658  0.87186  1.0000
  H   H1893     1.0  0.41876  0.07665  0.78151  1.0000
  H   H1894     1.0  0.39568  0.08538  0.79777  1.0000
  H   H1895     1.0  0.39968  0.09747  0.77229  1.0000
  H   H1896     1.0  0.44847  0.06284  0.75045  1.0000
  H   H1897     1.0  0.42864  0.08402  0.74683  1.0000
  H   H1898     1.0  0.44030  0.06931  0.72760  1.0000
  H   H1899     1.0  0.38536  0.02719  0.78779  1.0000
  C   C1138     1.0  0.58623  0.00232  0.57637  1.0000
  C   C1139     1.0  0.36747  0.11330  0.95353  1.0000
  N   N79       1.0  0.38961  0.10926  0.94285  1.0000
  H   H1900     1.0  0.54708  0.99484  0.59964  1.0000
  Fe  Fe167     1.0  0.34303  0.11339  0.89544  1.0000
  C   C1140     1.0  0.39020  0.11112  0.92093  1.0000
  H   H1901     1.0  0.34882  0.01425  0.91557  1.0000
  H   H1902     1.0  0.59983  0.99738  0.56490  1.0000
  H   H1903     1.0  0.39306  0.13989  0.93889  1.0000
  C   C1141     1.0  0.40940  0.09986  0.90848  1.0000
  H   H1904     1.0  0.34669  0.03459  0.80241  1.0000
  C   C1142     1.0  0.54800  0.00702  0.58613  1.0000
  C   C1143     1.0  0.57265  0.03601  0.54666  1.0000
  Fe  Fe168     1.0  0.65864  0.22722  0.90715  1.0000
  H   H1905     1.0  0.39050  0.07733  0.94919  1.0000
  H   H1906     1.0  0.37716  0.10559  0.91895  1.0000
  H   H1907     1.0  0.38812  0.12707  0.91334  1.0000
  C   C1144     1.0  0.37224  0.04039  0.88416  1.0000
  C   C1145     1.0  0.34761  0.07417  0.93621  1.0000
  H   H1908     1.0  0.46787  0.22427  0.83349  1.0000
  H   H1909     1.0  0.65509  0.03293  0.60953  1.0000
  H   H1910     1.0  0.55807  0.21855  0.82474  1.0000
  C   C1146     1.0  0.40035  0.20715  0.84745  1.0000
  H   H1911     1.0  0.53198  0.21494  0.96471  1.0000
  C   C1147     1.0  0.57833  0.01165  0.68679  1.0000
  H   H1912     1.0  0.40885  0.10478  0.89241  1.0000
  H   H1913     1.0  0.40981  0.08345  0.91221  1.0000
  H   H1914     1.0  0.42381  0.10293  0.91004  1.0000
  S   S327      1.0  0.64861  0.19166  0.87758  1.0000
  S   S328      1.0  0.48101  0.22716  0.96562  1.0000
  H   H1915     1.0  0.62746  0.08500  0.65448  1.0000
  S   S329      1.0  0.44636  0.23168  0.92540  1.0000
  H   H1916     1.0  0.64325  0.20279  0.82907  1.0000
  C   C1148     1.0  0.35308  0.03501  0.88082  1.0000
  H   H1917     1.0  0.57716  0.99486  0.60918  1.0000
  C   C1149     1.0  0.57855  0.19609  0.91239  1.0000
  H   H1918     1.0  0.62961  0.22750  0.80217  1.0000
  C   C1150     1.0  0.57921  0.99162  0.69633  1.0000
  C   C1151     1.0  0.60284  0.13268  0.54587  1.0000
  C   C1152     1.0  0.58924  0.16855  0.54351  1.0000
  H   H1919     1.0  0.38519  0.22666  0.86835  1.0000
  H   H1920     1.0  0.58666  0.11963  0.48891  1.0000
  C   C1153     1.0  0.55805  0.20113  0.92169  1.0000
  H   H1921     1.0  0.33476  0.10395  0.81449  1.0000
  H   H1922     1.0  0.55649  0.13782  0.53968  1.0000
  C   C1154     1.0  0.54266  0.19677  0.91481  1.0000
  H   H1923     1.0  0.63369  0.03288  0.62964  1.0000
  S   S330      1.0  0.47876  0.18925  0.93374  1.0000
  H   H1924     1.0  0.41371  0.19470  0.84547  1.0000
  H   H1925     1.0  0.54634  0.16442  0.53835  1.0000
  H   H1926     1.0  0.56912  0.20617  0.96034  1.0000
  H   H1927     1.0  0.55364  0.07739  0.59724  1.0000
  C   C1155     1.0  0.44343  0.99636  0.72693  1.0000
  H   H1928     1.0  0.40715  0.09381  0.97764  1.0000
  S   S331      1.0  0.59700  0.20142  0.92240  1.0000
  S   S332      1.0  0.62430  0.03702  0.49681  1.0000
  H   H1929     1.0  0.53538  0.02576  0.60857  1.0000
  Fe  Fe169     1.0  0.65528  0.22281  0.86653  1.0000
  H   H1930     1.0  0.37662  0.03176  0.89831  1.0000
  C   C1156     1.0  0.54350  0.15011  0.53657  1.0000
  H   H1931     1.0  0.60735  0.18775  0.52128  1.0000
  H   H1932     1.0  0.52430  0.16191  0.51533  1.0000
  H   H1933     1.0  0.58015  0.17346  0.95898  1.0000
  Fe  Fe170     1.0  0.62828  0.20423  0.90393  1.0000
  Fe  Fe171     1.0  0.63476  0.04698  0.51976  1.0000
  C   C1157     1.0  0.59609  0.01986  0.68075  1.0000
  H   H1934     1.0  0.55904  0.03053  0.59422  1.0000
  S   S333      1.0  0.65294  0.06751  0.55738  1.0000
  C   C1158     1.0  0.61505  0.00794  0.68348  1.0000
  H   H1935     1.0  0.41034  0.07046  0.71618  1.0000
  H   H1936     1.0  0.53671  0.03955  0.58328  1.0000
  H   H1937     1.0  0.62276  0.23560  0.82533  1.0000
  H   H1938     1.0  0.55305  0.98583  0.54227  1.0000
  C   C1159     1.0  0.42440  0.00857  0.66499  1.0000
  H   H1939     1.0  0.59760  0.23162  0.96695  1.0000
  C   C1160     1.0  0.54474  0.02695  0.59310  1.0000
  S   S334      1.0  0.58638  0.22182  0.49916  1.0000
  C   C1161     1.0  0.40780  0.99276  0.73515  1.0000
  S   S335      1.0  0.34614  0.14580  0.88670  1.0000
  H   H1940     1.0  0.60161  0.11733  0.55271  1.0000
  H   H1941     1.0  0.53819  0.18866  0.49732  1.0000
  C   C1162     1.0  0.61614  0.01397  0.50458  1.0000
  H   H1942     1.0  0.57624  0.07456  0.65495  1.0000
  C   C1163     1.0  0.62340  0.99919  0.51978  1.0000
  C   C1164     1.0  0.58796  0.14861  0.55270  1.0000
  H   H1943     1.0  0.64083  0.09945  0.58682  1.0000
  H   H1944     1.0  0.65677  0.03921  0.63206  1.0000
  C   C1165     1.0  0.65845  0.07840  0.63918  1.0000
  Fe  Fe172     1.0  0.47499  0.22110  0.93760  1.0000
  N   N80       1.0  0.62639  0.07608  0.62754  1.0000
  C   C1166     1.0  0.60640  0.06890  0.63601  1.0000
  H   H1945     1.0  0.44280  0.20597  0.85717  1.0000
  H   H1946     1.0  0.59289  0.21995  0.86247  1.0000
  C   C1167     1.0  0.63651  0.07435  0.64459  1.0000
  C   C1168     1.0  0.55421  0.18042  0.49649  1.0000
  H   H1947     1.0  0.42942  0.13035  0.94605  1.0000
  C   C1169     1.0  0.45392  0.23315  0.84149  1.0000
  H   H1948     1.0  0.41482  0.08355  0.94387  1.0000
  H   H1949     1.0  0.59875  0.06935  0.62377  1.0000
  H   H1950     1.0  0.60886  0.05306  0.64387  1.0000
  H   H1951     1.0  0.56530  0.20382  0.80584  1.0000
  H   H1952     1.0  0.63019  0.06345  0.60148  1.0000
  C   C1170     1.0  0.57661  0.14752  0.50082  1.0000
  N   N81       1.0  0.59720  0.23091  0.81572  1.0000
  H   H1953     1.0  0.52991  0.14664  0.54821  1.0000
  H   H1954     1.0  0.63643  0.05946  0.65473  1.0000
  H   H1955     1.0  0.51586  0.18726  0.96732  1.0000
  H   H1956     1.0  0.52501  0.22783  0.49909  1.0000
  H   H1957     1.0  0.59222  0.11779  0.51303  1.0000
  C   C1171     1.0  0.59514  0.99222  0.50124  1.0000
  H   H1958     1.0  0.41526  0.00931  0.68033  1.0000
  S   S336      1.0  0.53994  0.00287  0.65381  1.0000
  H   H1959     1.0  0.65294  0.06856  0.60405  1.0000
  N   N82       1.0  0.56683  0.00206  0.57035  1.0000
  C   C1172     1.0  0.40079  0.21771  0.86412  1.0000
  C   C1173     1.0  0.61902  0.13677  0.52986  1.0000
  C   C1174     1.0  0.62148  0.09767  0.61705  1.0000
  C   C1175     1.0  0.59055  0.08062  0.65100  1.0000
  H   H1960     1.0  0.44334  0.22322  0.48267  1.0000
  H   H1961     1.0  0.59570  0.07853  0.66515  1.0000
  H   H1962     1.0  0.44493  0.02784  0.64357  1.0000
  C   C1176     1.0  0.56803  0.21719  0.80988  1.0000
  H   H1963     1.0  0.60000  0.21110  0.79551  1.0000
  S   S337      1.0  0.49546  0.23019  0.90821  1.0000
  H   H1964     1.0  0.43501  0.21713  0.83452  1.0000
  H   H1965     1.0  0.38663  0.20011  0.85197  1.0000
  C   C1177     1.0  0.59085  0.21406  0.81035  1.0000
  Fe  Fe173     1.0  0.35607  0.99497  0.75243  1.0000
  N   N83       1.0  0.41682  0.23045  0.86003  1.0000
  H   H1966     1.0  0.53396  0.00772  0.58081  1.0000
  H   H1967     1.0  0.65307  0.10334  0.60508  1.0000
  H   H1968     1.0  0.65831  0.09456  0.63782  1.0000
  C   C1178     1.0  0.57681  0.17532  0.97477  1.0000
  H   H1969     1.0  0.62830  0.22708  0.94030  1.0000
  H   H1970     1.0  0.56601  0.22365  0.86281  1.0000
  H   H1971     1.0  0.35939  0.14646  0.94587  1.0000
  C   C1179     1.0  0.42059  0.23146  0.87991  1.0000
  H   H1972     1.0  0.51798  0.16235  0.48514  1.0000
  H   H1973     1.0  0.36613  0.11383  0.96945  1.0000
  H   H1974     1.0  0.45912  0.99046  0.72836  1.0000
  C   C1180     1.0  0.52099  0.22952  0.48484  1.0000
  H   H1975     1.0  0.39948  0.21747  0.83302  1.0000
  C   C1181     1.0  0.52963  0.18441  0.97381  1.0000
  H   H1976     1.0  0.59663  0.02166  0.48336  1.0000
  H   H1977     1.0  0.56315  0.23027  0.79855  1.0000
  H   H1978     1.0  0.33827  0.13385  0.95382  1.0000
  C   C1182     1.0  0.45118  0.98885  0.64336  1.0000
  C   C1183     1.0  0.33965  0.06254  0.95445  1.0000
  H   H1979     1.0  0.45496  0.22252  0.51234  1.0000
  H   H1980     1.0  0.42257  0.23058  0.50201  1.0000
  S   S338      1.0  0.33340  0.09783  0.92747  1.0000
  C   C1184     1.0  0.43577  0.23575  0.49075  1.0000
  H   H1981     1.0  0.35220  0.98591  0.87241  1.0000
  H   H1982     1.0  0.52315  0.41095  0.21134  1.0000
  H   H1983     1.0  0.65062  0.31908  0.21967  1.0000
  H   H1984     1.0  0.51427  0.41177  0.16990  1.0000
  S   S339      1.0  0.62834  0.25880  0.20993  1.0000
  H   H1985     1.0  0.66640  0.25354  0.34213  1.0000
  H   H1986     1.0  0.59342  0.30837  0.05264  1.0000
  C   C1185     1.0  0.52948  0.24276  0.46830  1.0000
  C   C1186     1.0  0.36335  0.43248  0.43435  1.0000
  Fe  Fe174     1.0  0.59289  0.35808  0.14064  1.0000
  S   S340      1.0  0.62276  0.34746  0.12074  1.0000
  S   S341      1.0  0.57847  0.34107  0.17073  1.0000
  Fe  Fe175     1.0  0.58685  0.39912  0.11326  1.0000
  S   S342      1.0  0.61604  0.39124  0.09159  1.0000
  S   S343      1.0  0.57173  0.43154  0.10699  1.0000
  Fe  Fe176     1.0  0.60615  0.36195  0.09552  1.0000
  S   S344      1.0  0.61057  0.34810  0.06819  1.0000
  Fe  Fe177     1.0  0.62938  0.37801  0.11879  1.0000
  S   S345      1.0  0.33451  0.33408  0.40363  1.0000
  S   S346      1.0  0.57579  0.37082  0.11558  1.0000
  S   S347      1.0  0.60065  0.38753  0.14030  1.0000
  S   S348      1.0  0.53370  0.30133  0.00455  1.0000
  S   S349      1.0  0.53994  0.34446  0.02674  1.0000
  H   H1987     1.0  0.51453  0.39348  0.19189  1.0000
  C   C1187     1.0  0.35105  0.46342  0.44898  1.0000
  H   H1988     1.0  0.55404  0.26447  0.16643  1.0000
  C   C1188     1.0  0.54972  0.24291  0.31201  1.0000
  S   S350      1.0  0.47209  0.23938  0.41171  1.0000
  S   S351      1.0  0.40910  0.45054  0.04687  1.0000
  S   S352      1.0  0.39640  0.43117  0.00413  1.0000
  C   C1189     1.0  0.33809  0.42278  0.98613  1.0000
  Fe  Fe178     1.0  0.34734  0.33876  0.42789  1.0000
  H   H1989     1.0  0.60378  0.27964  0.38122  1.0000
  S   S353      1.0  0.37660  0.32006  0.43653  1.0000
  Fe  Fe179     1.0  0.36552  0.44904  0.00001  1.0000
  H   H1990     1.0  0.59680  0.24241  0.03301  1.0000
  C   C1190     1.0  0.51460  0.24183  0.31328  1.0000
  H   H1991     1.0  0.50309  0.41641  0.13441  1.0000
  C   C1191     1.0  0.38784  0.29896  0.42546  1.0000
  C   C1192     1.0  0.37595  0.28853  0.41990  1.0000
  C   C1193     1.0  0.38518  0.27106  0.41212  1.0000
  C   C1194     1.0  0.40631  0.26395  0.40984  1.0000
  C   C1195     1.0  0.41827  0.27471  0.41485  1.0000
  C   C1196     1.0  0.40904  0.29215  0.42269  1.0000
  H   H1992     1.0  0.35957  0.29363  0.42207  1.0000
  H   H1993     1.0  0.37586  0.26283  0.40818  1.0000
  H   H1994     1.0  0.33674  0.44250  0.31377  1.0000
  H   H1995     1.0  0.35392  0.42619  0.44874  1.0000
  H   H1996     1.0  0.63057  0.27035  0.37485  1.0000
  H   H1997     1.0  0.64657  0.27005  0.28601  1.0000
  H   H1998     1.0  0.33752  0.37676  0.46767  1.0000
  S   S354      1.0  0.65847  0.28392  0.40055  1.0000
  H   H1999     1.0  0.56587  0.38209  0.17693  1.0000
  H   H2000     1.0  0.53835  0.36848  0.17358  1.0000
  H   H2001     1.0  0.55939  0.28792  0.16693  1.0000
  C   C1197     1.0  0.46438  0.37869  0.99239  1.0000
  C   C1198     1.0  0.48373  0.44671  0.03606  1.0000
  C   C1199     1.0  0.45946  0.27282  0.46359  1.0000
  C   C1200     1.0  0.54527  0.43758  0.11529  1.0000
  C   C1201     1.0  0.53634  0.45731  0.11745  1.0000
  C   C1202     1.0  0.51558  0.46223  0.12608  1.0000
  H   H2002     1.0  0.37897  0.35582  0.32833  1.0000
  C   C1203     1.0  0.51241  0.42779  0.12974  1.0000
  C   C1204     1.0  0.53325  0.42285  0.12109  1.0000
  H   H2003     1.0  0.54563  0.46872  0.11298  1.0000
  C   C1205     1.0  0.57253  0.29130  0.03827  1.0000
  H   H2004     1.0  0.54006  0.40769  0.11906  1.0000
  H   H2005     1.0  0.36355  0.43369  0.40280  1.0000
  C   C1206     1.0  0.64183  0.41530  0.14171  1.0000
  C   C1207     1.0  0.64255  0.43034  0.15147  1.0000
  C   C1208     1.0  0.51656  0.41804  0.06358  1.0000
  C   C1209     1.0  0.52463  0.39951  0.17780  1.0000
  H   H2006     1.0  0.56957  0.39643  0.19263  1.0000
  H   H2007     1.0  0.62727  0.41267  0.14105  1.0000
  H   H2008     1.0  0.62847  0.43899  0.15846  1.0000
  C   C1210     1.0  0.57198  0.26265  0.19700  1.0000
  H   H2009     1.0  0.56332  0.36293  0.21044  1.0000
  C   C1211     1.0  0.59048  0.34951  0.05616  1.0000
  C   C1212     1.0  0.59529  0.34661  0.03632  1.0000
  C   C1213     1.0  0.57993  0.34553  0.02693  1.0000
  C   C1214     1.0  0.55959  0.34726  0.03734  1.0000
  C   C1215     1.0  0.55470  0.35079  0.05696  1.0000
  C   C1216     1.0  0.57005  0.35189  0.06634  1.0000
  H   H2010     1.0  0.61102  0.34493  0.02826  1.0000
  H   H2011     1.0  0.58382  0.34332  0.01167  1.0000
  H   H2012     1.0  0.53899  0.35230  0.06507  1.0000
  H   H2013     1.0  0.56613  0.35409  0.08161  1.0000
  H   H2014     1.0  0.37331  0.28715  0.37234  1.0000
  H   H2015     1.0  0.54525  0.38236  0.22132  1.0000
  C   C1217     1.0  0.41809  0.46874  0.07300  1.0000
  C   C1218     1.0  0.61479  0.28215  0.19972  1.0000
  C   C1219     1.0  0.62175  0.29079  0.17977  1.0000
  C   C1220     1.0  0.61096  0.30904  0.17088  1.0000
  C   C1221     1.0  0.59314  0.31886  0.18191  1.0000
  C   C1222     1.0  0.58642  0.31047  0.20207  1.0000
  C   C1223     1.0  0.59723  0.29218  0.21099  1.0000
  H   H2016     1.0  0.63542  0.28320  0.17101  1.0000
  H   H2017     1.0  0.61629  0.31530  0.15537  1.0000
  H   H2018     1.0  0.57275  0.31809  0.21077  1.0000
  H   H2019     1.0  0.59192  0.28577  0.22647  1.0000
  H   H2020     1.0  0.47261  0.44212  0.02991  1.0000
  C   C1224     1.0  0.58956  0.25948  0.05740  1.0000
  H   H2021     1.0  0.55059  0.28052  0.06582  1.0000
  S   S355      1.0  0.34428  0.37725  0.35904  1.0000
  S   S356      1.0  0.33613  0.43923  0.00211  1.0000
  H   H2022     1.0  0.61329  0.28820  0.05889  1.0000
  H   H2023     1.0  0.34780  0.41781  0.42035  1.0000
  C   C1225     1.0  0.55762  0.39056  0.18902  1.0000
  C   C1226     1.0  0.58064  0.28444  0.42318  1.0000
  C   C1227     1.0  0.51742  0.43972  0.19194  1.0000
  C   C1228     1.0  0.66320  0.24434  0.45221  1.0000
  C   C1229     1.0  0.55088  0.42006  0.16301  1.0000
  C   C1230     1.0  0.63538  0.27771  0.43825  1.0000
  H   H2024     1.0  0.63597  0.30805  0.20949  1.0000
  C   C1231     1.0  0.38577  0.43293  0.46479  1.0000
  H   H2025     1.0  0.38604  0.45590  0.40524  1.0000
  H   H2026     1.0  0.45596  0.28859  0.45566  1.0000
  C   C1232     1.0  0.33438  0.43458  0.32910  1.0000
  H   H2027     1.0  0.62269  0.26792  0.03294  1.0000
  H   H2028     1.0  0.36793  0.33477  0.32865  1.0000
  C   C1233     1.0  0.56740  0.43069  0.16459  1.0000
  C   C1234     1.0  0.33753  0.40342  0.35342  1.0000
  Fe  Fe180     1.0  0.56397  0.29110  0.98526  1.0000
  H   H2029     1.0  0.47457  0.38898  0.98304  1.0000
  C   C1235     1.0  0.61566  0.26583  0.38235  1.0000
  H   H2030     1.0  0.57241  0.44002  0.14975  1.0000
  H   H2031     1.0  0.51844  0.38064  0.16046  1.0000
  H   H2032     1.0  0.51022  0.44013  0.17946  1.0000
  C   C1236     1.0  0.54150  0.28487  0.22866  1.0000
  H   H2033     1.0  0.41834  0.30045  0.42654  1.0000
  H   H2034     1.0  0.39065  0.46111  0.44655  1.0000
  N   N84       1.0  0.59740  0.24864  0.41665  1.0000
  H   H2035     1.0  0.48593  0.46188  0.09683  1.0000
  C   C1237     1.0  0.60903  0.27837  0.02826  1.0000
  H   H2036     1.0  0.53007  0.25549  0.43717  1.0000
  H   H2037     1.0  0.57045  0.28470  0.02624  1.0000
  S   S357      1.0  0.47785  0.45346  0.14376  1.0000
  C   C1238     1.0  0.55219  0.29370  0.05370  1.0000
  S   S358      1.0  0.36635  0.47259  0.01628  1.0000
  N   N85       1.0  0.54971  0.27021  0.19628  1.0000
  H   H2038     1.0  0.57479  0.27016  0.40188  1.0000
  C   C1239     1.0  0.64787  0.24271  0.32804  1.0000
  H   H2039     1.0  0.53909  0.43182  0.15656  1.0000
  H   H2040     1.0  0.52030  0.26137  0.20798  1.0000
  H   H2041     1.0  0.41156  0.45741  0.08456  1.0000
  C   C1240     1.0  0.46147  0.36378  0.98088  1.0000
  H   H2042     1.0  0.53875  0.24436  0.19452  1.0000
  C   C1241     1.0  0.58440  0.24580  0.04595  1.0000
  C   C1242     1.0  0.63070  0.26710  0.45784  1.0000
  H   H2043     1.0  0.44958  0.38751  0.99894  1.0000
  H   H2044     1.0  0.50498  0.27452  0.99095  1.0000
  H   H2045     1.0  0.57466  0.25906  0.21234  1.0000
  H   H2046     1.0  0.55671  0.27854  0.23233  1.0000
  H   H2047     1.0  0.58614  0.23677  0.44814  1.0000
  S   S359      1.0  0.59681  0.25330  0.26579  1.0000
  H   H2048     1.0  0.49846  0.43635  0.03276  1.0000
  H   H2049     1.0  0.46987  0.43191  0.06513  1.0000
  H   H2050     1.0  0.43462  0.26966  0.41258  1.0000
  C   C1243     1.0  0.54162  0.28820  0.20623  1.0000
  H   H2051     1.0  0.52860  0.28969  0.15351  1.0000
  H   H2052     1.0  0.39405  0.28943  0.47179  1.0000
  N   N86       1.0  0.54130  0.40744  0.18200  1.0000
  H   H2053     1.0  0.55825  0.41087  0.15136  1.0000
  C   C1244     1.0  0.49259  0.48553  0.05174  1.0000
  H   H2054     1.0  0.62878  0.29448  0.00366  1.0000
  C   C1245     1.0  0.49659  0.27292  0.98058  1.0000
  H   H2055     1.0  0.55069  0.24500  0.23249  1.0000
  C   C1246     1.0  0.63615  0.29489  0.24067  1.0000
  H   H2056     1.0  0.52292  0.30293  0.17340  1.0000
  H   H2057     1.0  0.57773  0.25958  0.07136  1.0000
  H   H2058     1.0  0.51566  0.27872  0.17750  1.0000
  H   H2059     1.0  0.42212  0.37422  0.98344  1.0000
  C   C1247     1.0  0.63683  0.27762  0.27508  1.0000
  N   N87       1.0  0.42845  0.25440  0.47654  1.0000
  H   H2060     1.0  0.56980  0.25224  0.04092  1.0000
  C   C1248     1.0  0.54880  0.27725  0.17446  1.0000
  H   H2061     1.0  0.62147  0.30128  0.29264  1.0000
  H   H2062     1.0  0.59163  0.27442  0.08950  1.0000
  H   H2063     1.0  0.61643  0.27201  0.46749  1.0000
  C   C1249     1.0  0.49275  0.25406  0.98077  1.0000
  H   H2064     1.0  0.37434  0.43972  0.47669  1.0000
  N   N88       1.0  0.64871  0.28889  0.25654  1.0000
  C   C1250     1.0  0.57897  0.26542  0.41678  1.0000
  H   H2065     1.0  0.42857  0.48338  0.02251  1.0000
  H   H2066     1.0  0.66184  0.29184  0.28961  1.0000
  H   H2067     1.0  0.51280  0.45834  0.04507  1.0000
  Fe  Fe181     1.0  0.33332  0.36685  0.39195  1.0000
  C   C1251     1.0  0.52764  0.28767  0.16982  1.0000
  H   H2068     1.0  0.63882  0.31882  0.26369  1.0000
  S   S360      1.0  0.54712  0.25663  0.46982  1.0000
  H   H2069     1.0  0.38711  0.34282  0.30794  1.0000
  H   H2070     1.0  0.46646  0.47328  0.08314  1.0000
  C   C1252     1.0  0.35619  0.40917  0.98108  1.0000
  C   C1253     1.0  0.58592  0.28946  0.08114  1.0000
  H   H2071     1.0  0.40652  0.26288  0.45725  1.0000
  H   H2072     1.0  0.54740  0.25541  0.97901  1.0000
  H   H2073     1.0  0.45209  0.35361  0.99203  1.0000
  C   C1254     1.0  0.64453  0.25034  0.46483  1.0000
  H   H2074     1.0  0.58968  0.30061  0.08782  1.0000
  H   H2075     1.0  0.58475  0.24765  0.17109  1.0000
  C   C1255     1.0  0.63852  0.43979  0.09073  1.0000
  H   H2076     1.0  0.50280  0.24161  0.30580  1.0000
  H   H2077     1.0  0.51418  0.46439  0.06751  1.0000
  H   H2078     1.0  0.49466  0.24048  0.34248  1.0000
  H   H2079     1.0  0.45059  0.45541  0.11344  1.0000
  C   C1256     1.0  0.50316  0.46372  0.05864  1.0000
  N   N89       1.0  0.36820  0.45213  0.43544  1.0000
  H   H2080     1.0  0.45162  0.44083  0.09555  1.0000
  Fe  Fe182     1.0  0.39855  0.45655  0.01767  1.0000
  H   H2081     1.0  0.52631  0.40531  0.07170  1.0000
  C   C1257     1.0  0.42745  0.48346  0.03805  1.0000
  H   H2082     1.0  0.59812  0.23886  0.19094  1.0000
  H   H2083     1.0  0.52613  0.23955  0.23605  1.0000
  C   C1258     1.0  0.53681  0.25434  0.20528  1.0000
  H   H2084     1.0  0.41898  0.29603  0.46197  1.0000
  H   H2085     1.0  0.52712  0.42686  0.05238  1.0000
  H   H2086     1.0  0.53939  0.29545  0.04619  1.0000
  H   H2087     1.0  0.62235  0.30503  0.02556  1.0000
  H   H2088     1.0  0.65801  0.24712  0.25427  1.0000
  C   C1259     1.0  0.42513  0.48360  0.07828  1.0000
  C   C1260     1.0  0.64673  0.30462  0.21973  1.0000
  H   H2089     1.0  0.34724  0.45382  0.46385  1.0000
  H   H2090     1.0  0.55034  0.30035  0.19836  1.0000
  H   H2091     1.0  0.42403  0.48365  0.09383  1.0000
  H   H2092     1.0  0.40332  0.47360  0.21364  1.0000
  C   C1261     1.0  0.55028  0.37544  0.20786  1.0000
  H   H2093     1.0  0.56911  0.29220  0.08357  1.0000
  H   H2094     1.0  0.60394  0.30897  0.01012  1.0000
  H   H2095     1.0  0.56163  0.44093  0.17540  1.0000
  H   H2096     1.0  0.36662  0.47692  0.06864  1.0000
  H   H2097     1.0  0.53795  0.36867  0.20636  1.0000
  H   H2098     1.0  0.63667  0.44663  0.10387  1.0000
  C   C1262     1.0  0.41902  0.46876  0.05288  1.0000
  H   H2099     1.0  0.37757  0.42087  0.43216  1.0000
  H   H2100     1.0  0.40061  0.44062  0.43386  1.0000
  C   C1263     1.0  0.40821  0.29073  0.47573  1.0000
  H   H2101     1.0  0.50897  0.47737  0.12834  1.0000
  H   H2102     1.0  0.50471  0.44252  0.20488  1.0000
  C   C1264     1.0  0.65377  0.27138  0.42545  1.0000
  C   C1265     1.0  0.53180  0.38302  0.16504  1.0000
  C   C1266     1.0  0.52389  0.24506  0.44997  1.0000
  C   C1267     1.0  0.61761  0.29003  0.28624  1.0000
  H   H2103     1.0  0.40074  0.42985  0.46920  1.0000
  S   S361      1.0  0.66136  0.45294  0.16528  1.0000
  C   C1268     1.0  0.34073  0.41367  0.33355  1.0000
  H   H2104     1.0  0.54423  0.42340  0.20343  1.0000
  H   H2105     1.0  0.34793  0.40544  0.32162  1.0000
  C   C1269     1.0  0.41261  0.24970  0.46789  1.0000
  H   H2106     1.0  0.52542  0.45253  0.18832  1.0000
  S   S362      1.0  0.34849  0.37111  0.41470  1.0000
  H   H2107     1.0  0.60318  0.25276  0.44397  1.0000
  H   H2108     1.0  0.63175  0.26522  0.27158  1.0000
  H   H2109     1.0  0.58124  0.41991  0.16819  1.0000
  C   C1270     1.0  0.47518  0.44637  0.05859  1.0000
  H   H2110     1.0  0.49178  0.41954  0.08847  1.0000
  H   H2111     1.0  0.57418  0.30676  0.03050  1.0000
  C   C1271     1.0  0.61619  0.29797  0.01647  1.0000
  H   H2112     1.0  0.62200  0.30583  0.24510  1.0000
  N   N90       1.0  0.39577  0.32306  0.35646  1.0000
  C   C1272     1.0  0.39813  0.34181  0.36191  1.0000
  C   C1273     1.0  0.39940  0.32627  0.33401  1.0000
  C   C1274     1.0  0.41088  0.30508  0.36381  1.0000
  C   C1275     1.0  0.37463  0.31919  0.36620  1.0000
  C   C1276     1.0  0.39704  0.34085  0.38421  1.0000
  C   C1277     1.0  0.38225  0.34078  0.32445  1.0000
  C   C1278     1.0  0.43351  0.30699  0.35703  1.0000
  C   C1279     1.0  0.36895  0.30103  0.36153  1.0000
  H   H2113     1.0  0.41274  0.34645  0.35340  1.0000
  H   H2114     1.0  0.38601  0.35465  0.35758  1.0000
  H   H2115     1.0  0.40224  0.31185  0.32883  1.0000
  H   H2116     1.0  0.41361  0.33233  0.32696  1.0000
  H   H2117     1.0  0.40736  0.30117  0.38037  1.0000
  H   H2118     1.0  0.40957  0.29154  0.35893  1.0000
  H   H2119     1.0  0.37270  0.31606  0.38268  1.0000
  H   H2120     1.0  0.36265  0.33273  0.36317  1.0000
  H   H2121     1.0  0.39936  0.35537  0.38612  1.0000
  H   H2122     1.0  0.38181  0.33884  0.39343  1.0000
  H   H2123     1.0  0.40905  0.32906  0.39017  1.0000
  H   H2124     1.0  0.46099  0.45801  0.05943  1.0000
  H   H2125     1.0  0.64324  0.42330  0.09469  1.0000
  C   C1280     1.0  0.65990  0.40369  0.13294  1.0000
  H   H2126     1.0  0.44300  0.29273  0.36321  1.0000
  H   H2127     1.0  0.43674  0.31903  0.36279  1.0000
  H   H2128     1.0  0.43858  0.30940  0.34056  1.0000
  H   H2129     1.0  0.53028  0.27554  0.23785  1.0000
  H   H2130     1.0  0.37602  0.29831  0.34626  1.0000
  C   C1281     1.0  0.66132  0.43428  0.15223  1.0000
  H   H2131     1.0  0.51085  0.43264  0.08853  1.0000
  C   C1282     1.0  0.44582  0.26013  0.45972  1.0000
  H   H2132     1.0  0.52545  0.29456  0.20518  1.0000
  H   H2133     1.0  0.62461  0.29066  0.43290  1.0000
  H   H2134     1.0  0.60404  0.25172  0.06241  1.0000
  C   C1283     1.0  0.46117  0.44600  0.10302  1.0000
  H   H2135     1.0  0.56624  0.29559  0.42226  1.0000
  C   C1284     1.0  0.47610  0.45863  0.08815  1.0000
  C   C1285     1.0  0.50364  0.44746  0.13239  1.0000
  C   C1286     1.0  0.50168  0.43003  0.07880  1.0000
  C   C1287     1.0  0.37314  0.46456  0.41478  1.0000
  H   H2136     1.0  0.59322  0.29163  0.41328  1.0000
  N   N91       1.0  0.48906  0.44961  0.07053  1.0000
  H   H2137     1.0  0.54987  0.30731  0.06009  1.0000
  H   H2138     1.0  0.58218  0.28147  0.43894  1.0000
  Fe  Fe183     1.0  0.54539  0.32996  0.99971  1.0000
  C   C1288     1.0  0.59662  0.29209  0.05889  1.0000
  H   H2139     1.0  0.47172  0.37010  0.00500  1.0000
  H   H2140     1.0  0.60996  0.27974  0.29901  1.0000
  H   H2141     1.0  0.50822  0.41124  0.05623  1.0000
  N   N92       1.0  0.59146  0.28037  0.04604  1.0000
  H   H2142     1.0  0.49811  0.24127  0.99141  1.0000
  H   H2143     1.0  0.46928  0.43309  0.11246  1.0000
  H   H2144     1.0  0.54311  0.38699  0.15125  1.0000
  H   H2145     1.0  0.55695  0.24268  0.33998  1.0000
  C   C1289     1.0  0.38699  0.44732  0.44428  1.0000
  C   C1290     1.0  0.53197  0.41975  0.19806  1.0000
  H   H2146     1.0  0.56535  0.26022  0.42708  1.0000
  C   C1291     1.0  0.58258  0.24407  0.18759  1.0000
  H   H2147     1.0  0.62050  0.26660  0.41110  1.0000
  H   H2148     1.0  0.66158  0.26079  0.22885  1.0000
  H   H2149     1.0  0.35219  0.30388  0.36256  1.0000
  S   S363      1.0  0.41288  0.47446  0.98869  1.0000
  C   C1292     1.0  0.35277  0.43239  0.41753  1.0000
  H   H2150     1.0  0.43976  0.26895  0.44640  1.0000
  H   H2151     1.0  0.61336  0.25537  0.37393  1.0000
  H   H2152     1.0  0.38249  0.41824  0.46462  1.0000
  H   H2153     1.0  0.66049  0.29451  0.21316  1.0000
  H   H2154     1.0  0.60514  0.27177  0.01719  1.0000
  H   H2155     1.0  0.47567  0.26713  0.45694  1.0000
  H   H2156     1.0  0.35586  0.47628  0.45195  1.0000
  H   H2157     1.0  0.60635  0.29737  0.27671  1.0000
  H   H2158     1.0  0.33902  0.44422  0.41649  1.0000
  S   S364      1.0  0.58237  0.26025  0.99274  1.0000
  H   H2159     1.0  0.36016  0.46806  0.40712  1.0000
  H   H2160     1.0  0.63069  0.28180  0.23897  1.0000
  H   H2161     1.0  0.65045  0.44437  0.05939  1.0000
  C   C1293     1.0  0.54508  0.24246  0.33258  1.0000
  H   H2162     1.0  0.66130  0.31781  0.28368  1.0000
  C   C1294     1.0  0.66607  0.24736  0.32958  1.0000
  S   S365      1.0  0.65958  0.38456  0.12055  1.0000
  H   H2163     1.0  0.48538  0.46200  0.02769  1.0000
  H   H2164     1.0  0.53648  0.29960  0.23344  1.0000
  H   H2165     1.0  0.62986  0.24327  0.40372  1.0000
  S   S366      1.0  0.57634  0.31872  0.98197  1.0000
  S   S367      1.0  0.52041  0.23994  0.36950  1.0000
  H   H2166     1.0  0.58086  0.27465  0.18917  1.0000
  C   C1295     1.0  0.54084  0.24035  0.22509  1.0000
  C   C1296     1.0  0.53453  0.24258  0.30231  1.0000
  C   C1297     1.0  0.61644  0.25586  0.40422  1.0000
  H   H2167     1.0  0.36942  0.40895  0.98674  1.0000
  S   S368      1.0  0.54082  0.24232  0.27666  1.0000
  C   C1298     1.0  0.65302  0.30747  0.26052  1.0000
  H   H2168     1.0  0.56510  0.24362  0.30368  1.0000
  H   H2169     1.0  0.62306  0.44267  0.08737  1.0000
  H   H2170     1.0  0.45608  0.24648  0.45486  1.0000
  H   H2171     1.0  0.64767  0.46576  0.06996  1.0000
  S   S369      1.0  0.36599  0.48074  0.24247  1.0000
  C   C1299     1.0  0.51002  0.24105  0.33401  1.0000
  H   H2172     1.0  0.63420  0.24545  0.33940  1.0000
  C   C1300     1.0  0.65317  0.44920  0.07225  1.0000
  C   C1301     1.0  0.52533  0.24129  0.34365  1.0000
  C   C1302     1.0  0.60032  0.24080  0.43779  1.0000
  H   H2173     1.0  0.39331  0.48317  0.41844  1.0000
  H   H2174     1.0  0.58803  0.23928  0.39376  1.0000
  Fe  Fe184     1.0  0.61393  0.24044  0.23874  1.0000
  C   C1303     1.0  0.37882  0.48491  0.41356  1.0000
  H   H2175     1.0  0.66222  0.31535  0.24686  1.0000
  S   S370      1.0  0.41726  0.24174  0.40054  1.0000
  C   C1304     1.0  0.66530  0.30421  0.27696  1.0000
  C   C1305     1.0  0.33398  0.39066  0.47311  1.0000
  Fe  Fe185     1.0  0.59590  0.34420  0.65624  1.0000
  Fe  Fe186     1.0  0.57077  0.37018  0.62686  1.0000
  S   S371      1.0  0.59753  0.37047  0.60091  1.0000
  S   S372      1.0  0.53813  0.38390  0.62516  1.0000
  C   C1306     1.0  0.34705  0.40733  0.87300  1.0000
  H   H2176     1.0  0.62341  0.26265  0.53622  1.0000
  S   S373      1.0  0.57777  0.33699  0.63762  1.0000
  S   S374      1.0  0.58654  0.37744  0.64753  1.0000
  S   S375      1.0  0.52319  0.35567  0.86123  1.0000
  H   H2177     1.0  0.34945  0.43480  0.60966  1.0000
  H   H2178     1.0  0.62953  0.42114  0.66389  1.0000
  H   H2179     1.0  0.65813  0.33627  0.76421  1.0000
  H   H2180     1.0  0.63601  0.32297  0.53894  1.0000
  H   H2181     1.0  0.48603  0.32525  0.65099  1.0000
  H   H2182     1.0  0.60573  0.38174  0.71311  1.0000
  C   C1307     1.0  0.61925  0.31315  0.74135  1.0000
  S   S376      1.0  0.66238  0.24764  0.92556  1.0000
  H   H2183     1.0  0.34268  0.45744  0.86843  1.0000
  H   H2184     1.0  0.66058  0.28344  0.52637  1.0000
  H   H2185     1.0  0.55986  0.29945  0.89115  1.0000
  C   C1308     1.0  0.55004  0.29679  0.90623  1.0000
  Fe  Fe187     1.0  0.40251  0.45644  0.83570  1.0000
  S   S377      1.0  0.43119  0.46841  0.83056  1.0000
  S   S378      1.0  0.40151  0.42405  0.84788  1.0000
  H   H2186     1.0  0.60709  0.30833  0.53159  1.0000
  C   C1309     1.0  0.64029  0.25113  0.94444  1.0000
  C   C1310     1.0  0.63017  0.30194  0.81507  1.0000
  H   H2187     1.0  0.33586  0.43413  0.82880  1.0000
  C   C1311     1.0  0.61857  0.26986  0.96955  1.0000
  H   H2188     1.0  0.66102  0.42463  0.61191  1.0000
  H   H2189     1.0  0.42796  0.27486  0.49570  1.0000
  H   H2190     1.0  0.61012  0.42644  0.68490  1.0000
  C   C1312     1.0  0.64203  0.29052  0.49272  1.0000
  S   S379      1.0  0.54664  0.37362  0.75843  1.0000
  H   H2191     1.0  0.50604  0.30762  0.82400  1.0000
  S   S380      1.0  0.57723  0.34403  0.92479  1.0000
  C   C1313     1.0  0.50208  0.28330  0.89829  1.0000
  H   H2192     1.0  0.65778  0.30359  0.79260  1.0000
  H   H2193     1.0  0.41929  0.26189  0.84999  1.0000
  H   H2194     1.0  0.65109  0.44211  0.66419  1.0000
  Fe  Fe188     1.0  0.54249  0.34677  0.83264  1.0000
  S   S381      1.0  0.62494  0.34175  0.63286  1.0000
  H   H2195     1.0  0.63988  0.33553  0.90827  1.0000
  Fe  Fe189     1.0  0.37492  0.46184  0.54066  1.0000
  S   S382      1.0  0.39345  0.45375  0.56496  1.0000
  C   C1314     1.0  0.63613  0.44455  0.69445  1.0000
  S   S383      1.0  0.38502  0.45059  0.51165  1.0000
  H   H2196     1.0  0.66042  0.35031  0.72842  1.0000
  H   H2197     1.0  0.41786  0.24417  0.81945  1.0000
  H   H2198     1.0  0.38720  0.47742  0.76788  1.0000
  N   N93       1.0  0.62853  0.34789  0.73748  1.0000
  S   S384      1.0  0.63390  0.39845  0.61488  1.0000
  C   C1315     1.0  0.51858  0.25739  0.84040  1.0000
  H   H2199     1.0  0.52209  0.34752  0.64104  1.0000
  S   S385      1.0  0.54481  0.28053  0.81513  1.0000
  H   H2200     1.0  0.53091  0.24938  0.89863  1.0000
  C   C1316     1.0  0.48926  0.28973  0.96723  1.0000
  Fe  Fe190     1.0  0.55183  0.35295  0.78738  1.0000
  S   S386      1.0  0.61920  0.32701  0.80688  1.0000
  H   H2201     1.0  0.49012  0.36775  0.93406  1.0000
  H   H2202     1.0  0.63713  0.29023  0.54277  1.0000
  H   H2203     1.0  0.66071  0.31445  0.50679  1.0000
  C   C1317     1.0  0.42926  0.46548  0.73878  1.0000
  C   C1318     1.0  0.47465  0.26856  0.95397  1.0000
  C   C1319     1.0  0.47785  0.28760  0.95425  1.0000
  H   H2204     1.0  0.59321  0.27411  0.81315  1.0000
  C   C1320     1.0  0.63987  0.26309  0.53262  1.0000
  H   H2205     1.0  0.46636  0.26691  0.94353  1.0000
  H   H2206     1.0  0.47187  0.30061  0.94409  1.0000
  C   C1321     1.0  0.37630  0.42076  0.85172  1.0000
  C   C1322     1.0  0.36750  0.40929  0.86957  1.0000
  H   H2207     1.0  0.37631  0.40223  0.88093  1.0000
  H   H2208     1.0  0.59483  0.26597  0.56619  1.0000
  H   H2209     1.0  0.59508  0.45866  0.69011  1.0000
  H   H2210     1.0  0.56734  0.27552  0.87406  1.0000
  H   H2211     1.0  0.66228  0.37609  0.67572  1.0000
  C   C1323     1.0  0.42146  0.46439  0.89276  1.0000
  C   C1324     1.0  0.42388  0.44998  0.91013  1.0000
  C   C1325     1.0  0.42568  0.45571  0.92720  1.0000
  H   H2212     1.0  0.46156  0.40166  0.95498  1.0000
  C   C1326     1.0  0.62034  0.32316  0.86108  1.0000
  H   H2213     1.0  0.41993  0.45994  0.87965  1.0000
  H   H2214     1.0  0.42387  0.43449  0.91055  1.0000
  H   H2215     1.0  0.43041  0.39734  0.97551  1.0000
  S   S387      1.0  0.37741  0.46615  0.97003  1.0000
  H   H2216     1.0  0.40365  0.30263  0.48483  1.0000
  C   C1327     1.0  0.35690  0.39530  0.96932  1.0000
  C   C1328     1.0  0.41147  0.46317  0.59114  1.0000
  H   H2217     1.0  0.60050  0.27903  0.78670  1.0000
  H   H2218     1.0  0.64755  0.27638  0.95174  1.0000
  C   C1329     1.0  0.64876  0.26205  0.82763  1.0000
  C   C1330     1.0  0.53330  0.26078  0.90600  1.0000
  H   H2219     1.0  0.41318  0.44738  0.59770  1.0000
  H   H2220     1.0  0.33449  0.47057  0.84606  1.0000
  C   C1331     1.0  0.65320  0.30537  0.90091  1.0000
  H   H2221     1.0  0.60535  0.37941  0.76743  1.0000
  H   H2222     1.0  0.39424  0.25791  0.85847  1.0000
  H   H2223     1.0  0.64604  0.25427  0.54585  1.0000
  C   C1332     1.0  0.64380  0.28463  0.52855  1.0000
  C   C1333     1.0  0.40638  0.25431  0.82839  1.0000
  S   S388      1.0  0.39377  0.47387  0.80706  1.0000
  H   H2224     1.0  0.64129  0.37341  0.65286  1.0000
  C   C1334     1.0  0.40271  0.47051  0.57421  1.0000
  Fe  Fe191     1.0  0.60537  0.24139  0.50372  1.0000
  C   C1335     1.0  0.64974  0.29421  0.80517  1.0000
  C   C1336     1.0  0.55587  0.27281  0.86708  1.0000
  Fe  Fe192     1.0  0.40833  0.45041  0.97507  1.0000
  H   H2225     1.0  0.47338  0.30218  0.84723  1.0000
  C   C1337     1.0  0.53795  0.35362  0.87881  1.0000
  C   C1338     1.0  0.55886  0.35374  0.87268  1.0000
  C   C1339     1.0  0.57056  0.35180  0.88688  1.0000
  C   C1340     1.0  0.56167  0.34883  0.90727  1.0000
  C   C1341     1.0  0.54068  0.34887  0.91342  1.0000
  C   C1342     1.0  0.52879  0.35155  0.89917  1.0000
  H   H2226     1.0  0.56596  0.35563  0.85697  1.0000
  H   H2227     1.0  0.58656  0.35245  0.88209  1.0000
  H   H2228     1.0  0.53364  0.34665  0.92913  1.0000
  H   H2229     1.0  0.51262  0.35144  0.90398  1.0000
  C   C1343     1.0  0.58618  0.32086  0.57361  1.0000
  C   C1344     1.0  0.57399  0.31552  0.56321  1.0000
  H   H2230     1.0  0.58385  0.33619  0.57549  1.0000
  H   H2231     1.0  0.56230  0.32684  0.55707  1.0000
  C   C1345     1.0  0.53269  0.40985  0.62399  1.0000
  C   C1346     1.0  0.54794  0.41999  0.62370  1.0000
  C   C1347     1.0  0.54299  0.44051  0.62427  1.0000
  C   C1348     1.0  0.52280  0.45089  0.62513  1.0000
  C   C1349     1.0  0.50766  0.44085  0.62492  1.0000
  C   C1350     1.0  0.51263  0.42035  0.62428  1.0000
  H   H2232     1.0  0.56354  0.41203  0.62312  1.0000
  H   H2233     1.0  0.55478  0.44827  0.62424  1.0000
  H   H2234     1.0  0.49215  0.44884  0.62519  1.0000
  H   H2235     1.0  0.50085  0.41260  0.62424  1.0000
  N   N94       1.0  0.52421  0.32754  0.62114  1.0000
  C   C1351     1.0  0.53765  0.33999  0.60517  1.0000
  C   C1352     1.0  0.53704  0.30994  0.63236  1.0000
  C   C1353     1.0  0.50962  0.32057  0.61283  1.0000
  C   C1354     1.0  0.52661  0.35800  0.59189  1.0000
  C   C1355     1.0  0.55683  0.29923  0.62017  1.0000
  C   C1356     1.0  0.51899  0.30850  0.59594  1.0000
  H   H2236     1.0  0.54847  0.33097  0.59480  1.0000
  H   H2237     1.0  0.54752  0.34570  0.61191  1.0000
  H   H2238     1.0  0.54214  0.31468  0.64401  1.0000
  H   H2239     1.0  0.52787  0.29825  0.64058  1.0000
  H   H2240     1.0  0.50065  0.31065  0.62479  1.0000
  H   H2241     1.0  0.49768  0.33326  0.60774  1.0000
  H   H2242     1.0  0.51691  0.36952  0.60040  1.0000
  H   H2243     1.0  0.53831  0.36550  0.58062  1.0000
  H   H2244     1.0  0.51754  0.35329  0.58356  1.0000
  H   H2245     1.0  0.55457  0.29494  0.60693  1.0000
  H   H2246     1.0  0.56317  0.28526  0.62978  1.0000
  H   H2247     1.0  0.56869  0.30864  0.61549  1.0000
  H   H2248     1.0  0.52342  0.29228  0.60206  1.0000
  H   H2249     1.0  0.53221  0.31380  0.58521  1.0000
  H   H2250     1.0  0.50755  0.31037  0.58671  1.0000
  H   H2251     1.0  0.59158  0.30999  0.89547  1.0000
  Fe  Fe193     1.0  0.55060  0.31140  0.81249  1.0000
  H   H2252     1.0  0.49902  0.27148  0.89197  1.0000
  N   N95       1.0  0.45180  0.37300  0.96306  1.0000
  C   C1357     1.0  0.45138  0.23716  0.50227  1.0000
  H   H2253     1.0  0.56194  0.38838  0.71686  1.0000
  H   H2254     1.0  0.42367  0.39990  0.94072  1.0000
  C   C1358     1.0  0.59970  0.29584  0.90331  1.0000
  H   H2255     1.0  0.61044  0.31202  0.86457  1.0000
  H   H2256     1.0  0.58709  0.46686  0.66747  1.0000
  H   H2257     1.0  0.55029  0.30900  0.91357  1.0000
  H   H2258     1.0  0.42344  0.45195  0.74070  1.0000
  C   C1359     1.0  0.50023  0.25436  0.85385  1.0000
  H   H2259     1.0  0.62142  0.26041  0.85055  1.0000
  H   H2260     1.0  0.62071  0.31261  0.72543  1.0000
  H   H2261     1.0  0.63233  0.28463  0.87341  1.0000
  C   C1360     1.0  0.52795  0.29757  0.90512  1.0000
  H   H2262     1.0  0.57892  0.25404  0.79733  1.0000
  C   C1361     1.0  0.62628  0.35228  0.71605  1.0000
  H   H2263     1.0  0.52454  0.26619  0.93703  1.0000
  N   N96       1.0  0.52478  0.28159  0.89588  1.0000
  S   S389      1.0  0.66036  0.23686  0.83399  1.0000
  H   H2264     1.0  0.36802  0.48023  0.63351  1.0000
  C   C1362     1.0  0.35042  0.46535  0.61006  1.0000
  S   S390      1.0  0.34552  0.45037  0.54852  1.0000
  H   H2265     1.0  0.65157  0.47128  0.63323  1.0000
  H   H2266     1.0  0.61384  0.34556  0.71463  1.0000
  C   C1363     1.0  0.52452  0.25493  0.92840  1.0000
  H   H2267     1.0  0.37978  0.47836  0.74500  1.0000
  H   H2268     1.0  0.50731  0.31801  0.66365  1.0000
  H   H2269     1.0  0.40526  0.26583  0.50038  1.0000
  C   C1364     1.0  0.50450  0.29277  0.83225  1.0000
  C   C1365     1.0  0.66116  0.41409  0.62591  1.0000
  C   C1366     1.0  0.41776  0.27093  0.48805  1.0000
  C   C1367     1.0  0.62290  0.45996  0.64168  1.0000
  C   C1368     1.0  0.45194  0.35661  0.95253  1.0000
  S   S391      1.0  0.46146  0.26710  0.87412  1.0000
  H   H2270     1.0  0.42430  0.47029  0.61298  1.0000
  H   H2271     1.0  0.49342  0.39287  0.93101  1.0000
  C   C1369     1.0  0.63015  0.32371  0.87832  1.0000
  H   H2272     1.0  0.42706  0.46302  0.77036  1.0000
  C   C1370     1.0  0.64952  0.39900  0.63097  1.0000
  S   S392      1.0  0.51668  0.47614  0.62743  1.0000
  C   C1371     1.0  0.63518  0.47693  0.63281  1.0000
  H   H2273     1.0  0.62064  0.37520  0.69031  1.0000
  C   C1372     1.0  0.33949  0.41058  0.49460  1.0000
  H   H2274     1.0  0.48919  0.31550  0.89710  1.0000
  C   C1373     1.0  0.62934  0.26984  0.83794  1.0000
  H   H2275     1.0  0.55008  0.25838  0.90448  1.0000
  H   H2276     1.0  0.63283  0.38306  0.70565  1.0000
  C   C1374     1.0  0.57696  0.29570  0.56051  1.0000
  C   C1375     1.0  0.52088  0.27667  0.82985  1.0000
  H   H2277     1.0  0.55647  0.28266  0.91546  1.0000
  H   H2278     1.0  0.34027  0.39868  0.88694  1.0000
  H   H2279     1.0  0.34985  0.46137  0.62639  1.0000
  C   C1376     1.0  0.48395  0.27052  0.85640  1.0000
  S   S393      1.0  0.43211  0.46888  0.69867  1.0000
  H   H2280     1.0  0.47484  0.30215  0.88890  1.0000
  H   H2281     1.0  0.60665  0.28917  0.51993  1.0000
  H   H2282     1.0  0.65920  0.29051  0.90957  1.0000
  H   H2283     1.0  0.64325  0.34375  0.52032  1.0000
  C   C1377     1.0  0.33968  0.39535  0.96221  1.0000
  H   H2284     1.0  0.49064  0.34171  0.66433  1.0000
  N   N97       1.0  0.45941  0.39298  0.86435  1.0000
  C   C1378     1.0  0.46956  0.37780  0.85106  1.0000
  C   C1379     1.0  0.45653  0.41336  0.85098  1.0000
  C   C1380     1.0  0.43870  0.38821  0.87502  1.0000
  C   C1381     1.0  0.47262  0.39140  0.87899  1.0000
  C   C1382     1.0  0.47177  0.35554  0.86152  1.0000
  C   C1383     1.0  0.47606  0.41905  0.83642  1.0000
  C   C1384     1.0  0.42523  0.40202  0.88926  1.0000
  C   C1385     1.0  0.47127  0.41050  0.88695  1.0000
  H   H2285     1.0  0.46116  0.37980  0.83892  1.0000
  H   H2286     1.0  0.48535  0.37999  0.84340  1.0000
  H   H2287     1.0  0.44974  0.42550  0.85968  1.0000
  H   H2288     1.0  0.44532  0.41442  0.84168  1.0000
  H   H2289     1.0  0.42968  0.38817  0.86396  1.0000
  H   H2290     1.0  0.44014  0.37293  0.88441  1.0000
  H   H2291     1.0  0.46935  0.37932  0.89218  1.0000
  H   H2292     1.0  0.48909  0.38681  0.87230  1.0000
  H   H2293     1.0  0.48262  0.34621  0.85116  1.0000
  H   H2294     1.0  0.47803  0.35260  0.87515  1.0000
  H   H2295     1.0  0.45703  0.35036  0.86516  1.0000
  H   H2296     1.0  0.47974  0.41183  0.82321  1.0000
  H   H2297     1.0  0.47347  0.43551  0.83082  1.0000
  H   H2298     1.0  0.48948  0.41484  0.84352  1.0000
  H   H2299     1.0  0.40974  0.39825  0.89405  1.0000
  H   H2300     1.0  0.42304  0.41809  0.88214  1.0000
  H   H2301     1.0  0.43114  0.39942  0.90304  1.0000
  H   H2302     1.0  0.47814  0.42207  0.87520  1.0000
  H   H2303     1.0  0.48020  0.40662  0.89885  1.0000
  H   H2304     1.0  0.45556  0.41727  0.89348  1.0000
  C   C1386     1.0  0.57811  0.34127  0.70660  1.0000
  C   C1387     1.0  0.65882  0.27422  0.81117  1.0000
  C   C1388     1.0  0.63663  0.26664  0.95502  1.0000
  N   N98       1.0  0.61903  0.45286  0.66408  1.0000
  H   H2305     1.0  0.37158  0.43861  0.82324  1.0000
  S   S394      1.0  0.52736  0.33995  0.81105  1.0000
  H   H2306     1.0  0.64679  0.27231  0.89154  1.0000
  C   C1389     1.0  0.49830  0.33053  0.65464  1.0000
  C   C1390     1.0  0.61264  0.30319  0.51712  1.0000
  H   H2307     1.0  0.44640  0.36297  0.93839  1.0000
  S   S395      1.0  0.55238  0.30112  0.95695  1.0000
  H   H2308     1.0  0.53114  0.24486  0.83869  1.0000
  C   C1391     1.0  0.65114  0.35222  0.75960  1.0000
  S   S396      1.0  0.57393  0.32367  0.78707  1.0000
  H   H2309     1.0  0.64391  0.33045  0.87091  1.0000
  Fe  Fe194     1.0  0.35428  0.44204  0.51828  1.0000
  H   H2310     1.0  0.55357  0.33204  0.75532  1.0000
  H   H2311     1.0  0.63645  0.30156  0.48010  1.0000
  H   H2312     1.0  0.34270  0.44883  0.91289  1.0000
  S   S397      1.0  0.59376  0.32805  0.68821  1.0000
  C   C1392     1.0  0.33978  0.44815  0.92921  1.0000
  H   H2313     1.0  0.61274  0.31149  0.91742  1.0000
  C   C1393     1.0  0.55693  0.36134  0.73809  1.0000
  H   H2314     1.0  0.34796  0.43318  0.93550  1.0000
  H   H2315     1.0  0.44553  0.24858  0.51185  1.0000
  H   H2316     1.0  0.49784  0.30856  0.87276  1.0000
  H   H2317     1.0  0.61642  0.27537  0.58451  1.0000
  C   C1394     1.0  0.60138  0.31803  0.50157  1.0000
  H   H2318     1.0  0.50139  0.35360  0.62862  1.0000
  H   H2319     1.0  0.62340  0.45391  0.70327  1.0000
  C   C1395     1.0  0.43123  0.47176  0.75557  1.0000
  C   C1396     1.0  0.64390  0.31804  0.50775  1.0000
  H   H2320     1.0  0.50901  0.25188  0.93093  1.0000
  N   N99       1.0  0.63616  0.30392  0.89178  1.0000
  S   S398      1.0  0.35157  0.41217  0.51324  1.0000
  S   S399      1.0  0.63882  0.23688  0.48931  1.0000
  C   C1397     1.0  0.60877  0.35541  0.75103  1.0000
  C   C1398     1.0  0.48669  0.38056  0.94178  1.0000
  H   H2321     1.0  0.61955  0.33461  0.88724  1.0000
  H   H2322     1.0  0.61891  0.26417  0.80065  1.0000
  H   H2323     1.0  0.40219  0.40015  0.96092  1.0000
  H   H2324     1.0  0.66329  0.30268  0.85473  1.0000
  H   H2325     1.0  0.45728  0.39367  0.93480  1.0000
  H   H2326     1.0  0.59562  0.35239  0.74660  1.0000
  H   H2327     1.0  0.58893  0.29125  0.91745  1.0000
  C   C1399     1.0  0.46350  0.38807  0.94860  1.0000
  C   C1400     1.0  0.60396  0.37783  0.75256  1.0000
  Fe  Fe195     1.0  0.56210  0.24940  0.49651  1.0000
  H   H2328     1.0  0.62320  0.29741  0.74918  1.0000
  Fe  Fe196     1.0  0.56169  0.33000  0.95528  1.0000
  H   H2329     1.0  0.49433  0.28086  0.91426  1.0000
  C   C1401     1.0  0.37409  0.48085  0.76055  1.0000
  H   H2330     1.0  0.34739  0.46068  0.95074  1.0000
  H   H2331     1.0  0.52280  0.31276  0.89659  1.0000
  C   C1402     1.0  0.63475  0.33133  0.52368  1.0000
  S   S400      1.0  0.58224  0.26953  0.49835  1.0000
  C   C1403     1.0  0.41781  0.47612  0.59983  1.0000
  H   H2332     1.0  0.58772  0.38412  0.75175  1.0000
  C   C1404     1.0  0.66187  0.38680  0.66188  1.0000
  H   H2333     1.0  0.61312  0.38754  0.74084  1.0000
  H   H2334     1.0  0.55592  0.25654  0.87006  1.0000
  S   S401      1.0  0.59516  0.23611  0.53710  1.0000
  H   H2335     1.0  0.61853  0.33834  0.52351  1.0000
  Fe  Fe197     1.0  0.61431  0.37476  0.62278  1.0000
  H   H2336     1.0  0.60482  0.29561  0.83921  1.0000
  C   C1405     1.0  0.34821  0.46433  0.93437  1.0000
  H   H2337     1.0  0.44978  0.24725  0.83095  1.0000
  H   H2338     1.0  0.60399  0.43050  0.64216  1.0000
  S   S402      1.0  0.49400  0.31352  0.96668  1.0000
  H   H2339     1.0  0.58958  0.24871  0.83869  1.0000
  C   C1406     1.0  0.61516  0.43171  0.66857  1.0000
  S   S403      1.0  0.54812  0.24518  0.52934  1.0000
  H   H2340     1.0  0.58384  0.43758  0.66291  1.0000
  S   S404      1.0  0.61677  0.31246  0.59497  1.0000
  C   C1407     1.0  0.61989  0.28970  0.83143  1.0000
  C   C1408     1.0  0.59907  0.42821  0.65867  1.0000
  N   N100      1.0  0.49989  0.42116  0.68858  1.0000
  C   C1409     1.0  0.52170  0.41188  0.68037  1.0000
  C   C1410     1.0  0.49738  0.44353  0.68123  1.0000
  C   C1411     1.0  0.48627  0.41309  0.68001  1.0000
  C   C1412     1.0  0.49566  0.41535  0.71113  1.0000
  C   C1413     1.0  0.52677  0.38877  0.68379  1.0000
  C   C1414     1.0  0.51340  0.45337  0.68509  1.0000
  C   C1415     1.0  0.46340  0.42253  0.68381  1.0000
  C   C1416     1.0  0.47945  0.43006  0.72299  1.0000
  H   H2341     1.0  0.52594  0.41750  0.66400  1.0000
  H   H2342     1.0  0.53259  0.41625  0.68702  1.0000
  H   H2343     1.0  0.48207  0.45155  0.68776  1.0000
  H   H2344     1.0  0.49805  0.44729  0.66485  1.0000
  H   H2345     1.0  0.49161  0.41479  0.66351  1.0000
  H   H2346     1.0  0.48707  0.39674  0.68584  1.0000
  H   H2347     1.0  0.49097  0.40048  0.71615  1.0000
  H   H2348     1.0  0.50979  0.41321  0.71693  1.0000
  H   H2349     1.0  0.52195  0.38179  0.69967  1.0000
  H   H2350     1.0  0.52000  0.38300  0.67412  1.0000
  H   H2351     1.0  0.54357  0.38378  0.67941  1.0000
  C   C1417     1.0  0.66525  0.28401  0.48542  1.0000
  H   H2352     1.0  0.51645  0.44764  0.70033  1.0000
  H   H2353     1.0  0.52791  0.45097  0.67388  1.0000
  H   H2354     1.0  0.45573  0.41616  0.67540  1.0000
  H   H2355     1.0  0.46051  0.43892  0.67822  1.0000
  H   H2356     1.0  0.45590  0.41873  0.69971  1.0000
  H   H2357     1.0  0.48493  0.44396  0.72206  1.0000
  H   H2358     1.0  0.47639  0.42289  0.73904  1.0000
  H   H2359     1.0  0.46468  0.43422  0.71825  1.0000
  H   H2360     1.0  0.53414  0.30093  0.86741  1.0000
  C   C1418     1.0  0.60462  0.28665  0.57851  1.0000
  C   C1419     1.0  0.62115  0.37447  0.70609  1.0000
  C   C1420     1.0  0.57458  0.36222  0.70342  1.0000
  H   H2361     1.0  0.66203  0.32264  0.91809  1.0000
  Fe  Fe198     1.0  0.57047  0.26306  0.53158  1.0000
  H   H2362     1.0  0.51840  0.29729  0.92048  1.0000
  C   C1421     1.0  0.64776  0.32061  0.91495  1.0000
  C   C1422     1.0  0.59244  0.28129  0.56809  1.0000
  H   H2363     1.0  0.60836  0.34687  0.76660  1.0000
  C   C1423     1.0  0.61860  0.29920  0.90876  1.0000
  C   C1424     1.0  0.36478  0.42990  0.83712  1.0000
  Fe  Fe199     1.0  0.58524  0.33225  0.81017  1.0000
  H   H2364     1.0  0.57299  0.31429  0.72787  1.0000
  Fe  Fe200     1.0  0.60579  0.33746  0.61309  1.0000
  S   S405      1.0  0.56493  0.36266  0.80883  1.0000
  H   H2365     1.0  0.56822  0.24463  0.83239  1.0000
  C   C1425     1.0  0.65003  0.38523  0.64895  1.0000
  C   C1426     1.0  0.60135  0.30638  0.58156  1.0000
  H   H2366     1.0  0.63750  0.35647  0.77113  1.0000
  H   H2367     1.0  0.62379  0.28557  0.91947  1.0000
  C   C1427     1.0  0.53414  0.28477  0.87375  1.0000
  H   H2368     1.0  0.63826  0.31501  0.92959  1.0000
  C   C1428     1.0  0.49060  0.30364  0.88859  1.0000
  S   S406      1.0  0.56133  0.28984  0.54719  1.0000
  H   H2369     1.0  0.58088  0.37063  0.68920  1.0000
  S   S407      1.0  0.42867  0.43766  0.94891  1.0000
  S   S408      1.0  0.56410  0.31730  0.83571  1.0000
  H   H2370     1.0  0.65041  0.44569  0.69827  1.0000
  H   H2371     1.0  0.61067  0.33801  0.85689  1.0000
  C   C1429     1.0  0.51183  0.34077  0.63578  1.0000
  H   H2372     1.0  0.50783  0.46982  0.68337  1.0000
  C   C1430     1.0  0.48597  0.28966  0.84533  1.0000
  C   C1431     1.0  0.55967  0.34050  0.74099  1.0000
  H   H2373     1.0  0.36429  0.46967  0.76847  1.0000
  C   C1432     1.0  0.57042  0.33048  0.72535  1.0000
  H   H2374     1.0  0.60314  0.28367  0.89475  1.0000
  C   C1433     1.0  0.33557  0.41635  0.85835  1.0000
  C   C1434     1.0  0.56395  0.37226  0.71915  1.0000
  H   H2375     1.0  0.63473  0.27750  0.49452  1.0000
  N   N101      1.0  0.63561  0.29909  0.51148  1.0000
  H   H2376     1.0  0.42598  0.48046  0.94018  1.0000
  S   S409      1.0  0.45536  0.47513  0.64091  1.0000
  H   H2377     1.0  0.63166  0.44740  0.63396  1.0000
  H   H2378     1.0  0.52472  0.28046  0.86546  1.0000
  H   H2379     1.0  0.35487  0.38012  0.49320  1.0000
  C   C1435     1.0  0.60247  0.26735  0.80022  1.0000
  H   H2380     1.0  0.46776  0.34840  0.94793  1.0000
  C   C1436     1.0  0.63774  0.45202  0.67181  1.0000
  C   C1437     1.0  0.63401  0.32538  0.74384  1.0000
  H   H2381     1.0  0.64415  0.37274  0.73329  1.0000
  H   H2382     1.0  0.64768  0.25523  0.52005  1.0000
  H   H2383     1.0  0.60966  0.33008  0.49282  1.0000
  H   H2384     1.0  0.64202  0.32754  0.49299  1.0000
  Fe  Fe201     1.0  0.36876  0.48076  0.49844  1.0000
  C   C1438     1.0  0.60840  0.24144  0.96367  1.0000
  H   H2385     1.0  0.63490  0.42852  0.69906  1.0000
  H   H2386     1.0  0.37072  0.38445  0.96580  1.0000
  H   H2387     1.0  0.36481  0.46181  0.92751  1.0000
  H   H2388     1.0  0.59844  0.31002  0.49109  1.0000
  H   H2389     1.0  0.39431  0.25439  0.89053  1.0000
  H   H2390     1.0  0.64949  0.31941  0.73549  1.0000
  C   C1439     1.0  0.64624  0.35635  0.73867  1.0000
  H   H2391     1.0  0.60314  0.31889  0.74796  1.0000
  C   C1440     1.0  0.34456  0.42738  0.84028  1.0000
  H   H2392     1.0  0.60825  0.46488  0.63641  1.0000
  H   H2393     1.0  0.39913  0.24622  0.47982  1.0000
  C   C1441     1.0  0.48246  0.25164  0.96699  1.0000
  H   H2394     1.0  0.59733  0.41229  0.66375  1.0000
  H   H2395     1.0  0.58652  0.32571  0.50945  1.0000
  H   H2396     1.0  0.41237  0.37782  0.95094  1.0000
  H   H2397     1.0  0.64240  0.46676  0.66826  1.0000
  C   C1442     1.0  0.43028  0.38365  0.97020  1.0000
  H   H2398     1.0  0.63478  0.32118  0.75994  1.0000
  C   C1443     1.0  0.64385  0.28665  0.88080  1.0000
  H   H2399     1.0  0.56091  0.27707  0.85070  1.0000
  H   H2400     1.0  0.36689  0.46212  0.60277  1.0000
  H   H2401     1.0  0.63218  0.32121  0.84734  1.0000
  C   C1444     1.0  0.40934  0.25152  0.84988  1.0000
  H   H2402     1.0  0.64046  0.34523  0.70650  1.0000
  S   S410      1.0  0.34052  0.37793  0.94763  1.0000
  H   H2403     1.0  0.40840  0.26964  0.82029  1.0000
  H   H2404     1.0  0.49476  0.37639  0.95432  1.0000
  C   C1445     1.0  0.42482  0.47590  0.92698  1.0000
  C   C1446     1.0  0.41662  0.39058  0.95460  1.0000
  H   H2405     1.0  0.39081  0.25251  0.82842  1.0000
  C   C1447     1.0  0.60030  0.46574  0.67426  1.0000
  C   C1448     1.0  0.59508  0.24871  0.79879  1.0000
  C   C1449     1.0  0.43481  0.47665  0.71956  1.0000
  S   S411      1.0  0.33870  0.47149  0.50322  1.0000
  C   C1450     1.0  0.34382  0.39261  0.48753  1.0000
  H   H2406     1.0  0.46604  0.23966  0.49206  1.0000
  S   S412      1.0  0.38270  0.47851  0.85422  1.0000
  H   H2407     1.0  0.60354  0.24443  0.78423  1.0000
  H   H2408     1.0  0.53420  0.24446  0.96743  1.0000
  S   S413      1.0  0.53167  0.34388  0.97255  1.0000
  H   H2409     1.0  0.66607  0.46008  0.76460  1.0000
  H   H2410     1.0  0.33335  0.48093  0.90036  1.0000
  H   H2411     1.0  0.53397  0.24068  0.93443  1.0000
  H   H2412     1.0  0.66252  0.36121  0.75924  1.0000
  H   H2413     1.0  0.43135  0.24162  0.87804  1.0000
  H   H2414     1.0  0.33968  0.45223  0.59000  1.0000
  C   C1451     1.0  0.43961  0.34037  0.96481  1.0000
  C   C1452     1.0  0.62596  0.23878  0.94861  1.0000
  C   C1453     1.0  0.66366  0.28779  0.86470  1.0000
  H   H2415     1.0  0.33494  0.48399  0.86477  1.0000
  H   H2416     1.0  0.43955  0.33016  0.95499  1.0000
  C   C1454     1.0  0.60459  0.25704  0.97407  1.0000
  C   C1455     1.0  0.54762  0.24136  0.97424  1.0000
  Fe  Fe202     1.0  0.46736  0.23814  0.89567  1.0000
  C   C1456     1.0  0.34020  0.45001  0.60590  1.0000
  C   C1457     1.0  0.42114  0.48455  0.89240  1.0000
  H   H2417     1.0  0.49874  0.23950  0.86227  1.0000
  H   H2418     1.0  0.56187  0.23860  0.96288  1.0000
  Fe  Fe203     1.0  0.52305  0.31411  0.97572  1.0000
  N   N102      1.0  0.33811  0.48575  0.92779  1.0000
  H   H2419     1.0  0.33392  0.48407  0.57662  1.0000
  C   C1458     1.0  0.58381  0.23705  0.83462  1.0000
  H   H2420     1.0  0.66641  0.30967  0.88911  1.0000
  H   H2421     1.0  0.40654  0.23812  0.90942  1.0000
  C   C1459     1.0  0.40160  0.23865  0.89546  1.0000
  H   H2422     1.0  0.45824  0.23666  0.85410  1.0000
  H   H2423     1.0  0.66577  0.27651  0.85529  1.0000
  H   H2424     1.0  0.42346  0.34662  0.97085  1.0000
  H   H2425     1.0  0.61560  0.28206  0.97742  1.0000
  H   H2426     1.0  0.44686  0.33091  0.97716  1.0000
  H   H2427     1.0  0.45892  0.27264  0.47938  1.0000
  H   H2428     1.0  0.63447  0.48232  0.61681  1.0000
  S   S414      1.0  0.63268  0.23583  0.89128  1.0000
  H   H2429     1.0  0.47658  0.35403  0.97656  1.0000
  Fe  Fe204     1.0  0.49331  0.70644  0.39887  1.0000
  S   S415      1.0  0.52319  0.69582  0.37915  1.0000
  N   N103      1.0  0.41422  0.59493  0.43561  1.0000
  H   H2430     1.0  0.42355  0.59204  0.40457  1.0000
  S   S416      1.0  0.49446  0.70619  0.46818  1.0000
  C   C1460     1.0  0.37120  0.53100  0.44202  1.0000
  H   H2431     1.0  0.36552  0.54123  0.18968  1.0000
  C   C1461     1.0  0.34139  0.57989  0.32825  1.0000
  Fe  Fe205     1.0  0.53838  0.61793  0.15666  1.0000
  S   S417      1.0  0.54383  0.61054  0.18790  1.0000
  S   S418      1.0  0.50858  0.61483  0.15085  1.0000
  Fe  Fe206     1.0  0.57958  0.63006  0.13881  1.0000
  S   S419      1.0  0.58877  0.62348  0.16841  1.0000
  S   S420      1.0  0.59931  0.64404  0.11071  1.0000
  Fe  Fe207     1.0  0.57521  0.59603  0.17389  1.0000
  S   S421      1.0  0.58922  0.56482  0.18699  1.0000
  Fe  Fe208     1.0  0.55681  0.63870  0.17995  1.0000
  S   S422      1.0  0.54803  0.66213  0.19966  1.0000
  S   S423      1.0  0.56884  0.60124  0.14329  1.0000
  S   S424      1.0  0.54852  0.64748  0.14979  1.0000
  Fe  Fe209     1.0  0.61316  0.63042  0.00540  1.0000
  S   S425      1.0  0.61555  0.60685  0.03335  1.0000
  H   H2432     1.0  0.50194  0.72807  0.99264  1.0000
  Fe  Fe210     1.0  0.61512  0.72749  0.28261  1.0000
  H   H2433     1.0  0.52212  0.54391  0.15902  1.0000
  S   S426      1.0  0.62899  0.73336  0.24981  1.0000
  H   H2434     1.0  0.45209  0.62285  0.43030  1.0000
  C   C1462     1.0  0.41627  0.58304  0.45613  1.0000
  S   S427      1.0  0.48004  0.50279  0.10485  1.0000
  H   H2435     1.0  0.65285  0.58068  0.14294  1.0000
  Fe  Fe211     1.0  0.43295  0.52239  0.14270  1.0000
  S   S428      1.0  0.44510  0.54189  0.11365  1.0000
  Fe  Fe212     1.0  0.44814  0.51498  0.10016  1.0000
  S   S429      1.0  0.44224  0.51745  0.06932  1.0000
  Fe  Fe213     1.0  0.47596  0.52803  0.12089  1.0000
  S   S430      1.0  0.50402  0.54219  0.11400  1.0000
  C   C1463     1.0  0.36129  0.53154  0.47736  1.0000
  S   S431      1.0  0.46369  0.51043  0.15097  1.0000
  Fe  Fe214     1.0  0.60579  0.71739  0.24600  1.0000
  C   C1464     1.0  0.61237  0.66644  0.15013  1.0000
  H   H2436     1.0  0.40104  0.56545  0.42135  1.0000
  H   H2437     1.0  0.53831  0.69073  0.45251  1.0000
  C   C1465     1.0  0.35481  0.52732  0.02774  1.0000
  C   C1466     1.0  0.40481  0.65238  0.38782  1.0000
  H   H2438     1.0  0.44574  0.67060  0.39041  1.0000
  C   C1467     1.0  0.61951  0.69940  0.12921  1.0000
  H   H2439     1.0  0.36201  0.55868  0.42246  1.0000
  C   C1468     1.0  0.50745  0.59456  0.14065  1.0000
  C   C1469     1.0  0.48876  0.58836  0.14403  1.0000
  C   C1470     1.0  0.48743  0.57227  0.13602  1.0000
  C   C1471     1.0  0.50473  0.56258  0.12421  1.0000
  C   C1472     1.0  0.52334  0.56902  0.12053  1.0000
  C   C1473     1.0  0.52474  0.58483  0.12886  1.0000
  H   H2440     1.0  0.47527  0.59593  0.15300  1.0000
  H   H2441     1.0  0.47300  0.56746  0.13885  1.0000
  H   H2442     1.0  0.53674  0.56165  0.11129  1.0000
  H   H2443     1.0  0.53912  0.58970  0.12591  1.0000
  C   C1474     1.0  0.60388  0.63331  0.08945  1.0000
  C   C1475     1.0  0.60231  0.61340  0.09109  1.0000
  C   C1476     1.0  0.60619  0.60525  0.07382  1.0000
  C   C1477     1.0  0.61135  0.61706  0.05486  1.0000
  C   C1478     1.0  0.61309  0.63687  0.05326  1.0000
  C   C1479     1.0  0.60950  0.64492  0.07051  1.0000
  H   H2444     1.0  0.59835  0.60422  0.10564  1.0000
  H   H2445     1.0  0.60472  0.58995  0.07512  1.0000
  H   H2446     1.0  0.61749  0.64598  0.03874  1.0000
  H   H2447     1.0  0.34327  0.59412  0.33026  1.0000
  C   C1480     1.0  0.64670  0.53467  0.17051  1.0000
  C   C1481     1.0  0.62604  0.53940  0.17969  1.0000
  C   C1482     1.0  0.61496  0.55891  0.17530  1.0000
  C   C1483     1.0  0.62457  0.57362  0.16166  1.0000
  C   C1484     1.0  0.64536  0.56906  0.15299  1.0000
  H   H2448     1.0  0.53098  0.53620  0.20178  1.0000
  H   H2449     1.0  0.61869  0.52797  0.19026  1.0000
  H   H2450     1.0  0.61609  0.58862  0.15800  1.0000
  H   H2451     1.0  0.63705  0.70692  0.17710  1.0000
  S   S432      1.0  0.39728  0.64104  0.37167  1.0000
  H   H2452     1.0  0.39222  0.56591  0.45677  1.0000
  C   C1485     1.0  0.57534  0.69584  0.22044  1.0000
  C   C1486     1.0  0.56109  0.68877  0.21407  1.0000
  H   H2453     1.0  0.56763  0.50303  0.16996  1.0000
  H   H2454     1.0  0.53462  0.57467  0.16934  1.0000
  S   S433      1.0  0.40457  0.53572  0.16317  1.0000
  C   C1487     1.0  0.38785  0.53431  0.02977  1.0000
  H   H2455     1.0  0.52445  0.72450  0.43534  1.0000
  H   H2456     1.0  0.38395  0.62954  0.44824  1.0000
  H   H2457     1.0  0.51335  0.71182  0.25184  1.0000
  N   N104      1.0  0.36923  0.52562  0.04117  1.0000
  H   H2458     1.0  0.33518  0.52873  0.32065  1.0000
  Fe  Fe215     1.0  0.47958  0.71235  0.44157  1.0000
  H   H2459     1.0  0.62348  0.67765  0.17728  1.0000
  H   H2460     1.0  0.64581  0.56903  0.04280  1.0000
  H   H2461     1.0  0.39168  0.61273  0.41871  1.0000
  H   H2462     1.0  0.58347  0.71989  0.37863  1.0000
  H   H2463     1.0  0.41703  0.62275  0.44234  1.0000
  C   C1488     1.0  0.54878  0.69705  0.41952  1.0000
  H   H2464     1.0  0.52140  0.51360  0.14765  1.0000
  H   H2465     1.0  0.56590  0.70449  0.37833  1.0000
  H   H2466     1.0  0.33623  0.50131  0.99725  1.0000
  C   C1489     1.0  0.58605  0.65899  0.20768  1.0000
  S   S434      1.0  0.34227  0.63300  0.40429  1.0000
  H   H2467     1.0  0.38802  0.50176  0.05816  1.0000
  C   C1490     1.0  0.39863  0.52742  0.00983  1.0000
  C   C1491     1.0  0.39264  0.72453  0.42340  1.0000
  S   S435      1.0  0.38097  0.49542  0.46699  1.0000
  H   H2468     1.0  0.41400  0.59340  0.46661  1.0000
  H   H2469     1.0  0.41168  0.54752  0.22915  1.0000
  H   H2470     1.0  0.54558  0.50156  0.15329  1.0000
  H   H2471     1.0  0.34999  0.52002  0.22083  1.0000
  H   H2472     1.0  0.45691  0.60207  0.41842  1.0000
  C   C1492     1.0  0.39946  0.66334  0.41926  1.0000
  H   H2473     1.0  0.62870  0.72047  0.15480  1.0000
  H   H2474     1.0  0.54911  0.50381  0.19237  1.0000
  H   H2475     1.0  0.56320  0.71780  0.98889  1.0000
  H   H2476     1.0  0.42568  0.55664  0.40775  1.0000
  H   H2477     1.0  0.61095  0.66026  0.06913  1.0000
  H   H2478     1.0  0.60757  0.65852  0.16576  1.0000
  H   H2479     1.0  0.39791  0.56173  0.28249  1.0000
  C   C1493     1.0  0.36208  0.55129  0.43776  1.0000
  S   S436      1.0  0.48420  0.68553  0.42760  1.0000
  C   C1494     1.0  0.39231  0.60307  0.43370  1.0000
  S   S437      1.0  0.63053  0.71737  0.30904  1.0000
  C   C1495     1.0  0.54019  0.54473  0.18856  1.0000
  H   H2480     1.0  0.36321  0.55364  0.22054  1.0000
  S   S438      1.0  0.34349  0.50237  0.29081  1.0000
  H   H2481     1.0  0.38333  0.49521  0.03736  1.0000
  H   H2482     1.0  0.38120  0.49288  0.39774  1.0000
  C   C1496     1.0  0.56743  0.71977  0.37862  1.0000
  H   H2483     1.0  0.36713  0.54841  0.07986  1.0000
  S   S439      1.0  0.44658  0.72153  0.43934  1.0000
  N   N105      1.0  0.61202  0.68812  0.14987  1.0000
  N   N106      1.0  0.39506  0.73089  0.38512  1.0000
  C   C1497     1.0  0.37057  0.52104  0.46184  1.0000
  H   H2484     1.0  0.38837  0.71040  0.35526  1.0000
  C   C1498     1.0  0.54676  0.70669  0.34256  1.0000
  S   S440      1.0  0.35942  0.56240  0.36081  1.0000
  H   H2485     1.0  0.36585  0.57444  0.25272  1.0000
  H   H2486     1.0  0.63104  0.63893  0.14153  1.0000
  Fe  Fe216     1.0  0.38044  0.48848  0.98627  1.0000
  H   H2487     1.0  0.63824  0.66080  0.12496  1.0000
  H   H2488     1.0  0.43352  0.65616  0.36767  1.0000
  C   C1499     1.0  0.65148  0.72881  0.33118  1.0000
  H   H2489     1.0  0.65512  0.51957  0.17387  1.0000
  H   H2490     1.0  0.41790  0.54237  0.25301  1.0000
  H   H2491     1.0  0.36181  0.51775  0.01632  1.0000
  H   H2492     1.0  0.60297  0.72758  0.41046  1.0000
  C   C1500     1.0  0.37379  0.52648  0.19495  1.0000
  C   C1501     1.0  0.62633  0.68835  0.16284  1.0000
  Fe  Fe217     1.0  0.34596  0.59979  0.41542  1.0000
  H   H2493     1.0  0.40664  0.58135  0.22600  1.0000
  H   H2494     1.0  0.54479  0.72267  0.44715  1.0000
  C   C1502     1.0  0.36496  0.51448  0.21255  1.0000
  C   C1503     1.0  0.53102  0.52940  0.16544  1.0000
  H   H2495     1.0  0.60340  0.68511  0.11426  1.0000
  S   S441      1.0  0.61389  0.69339  0.22696  1.0000
  C   C1504     1.0  0.52674  0.56539  0.18279  1.0000
  C   C1505     1.0  0.41751  0.56317  0.42116  1.0000
  H   H2496     1.0  0.55823  0.70259  0.16029  1.0000
  H   H2497     1.0  0.65893  0.55158  0.20809  1.0000
  C   C1506     1.0  0.53596  0.51645  0.14940  1.0000
  C   C1507     1.0  0.35931  0.49262  0.06321  1.0000
  H   H2498     1.0  0.44098  0.50964  0.03175  1.0000
  Fe  Fe218     1.0  0.58264  0.65704  0.98122  1.0000
  C   C1508     1.0  0.44739  0.60842  0.43150  1.0000
  C   C1509     1.0  0.52707  0.70912  0.35449  1.0000
  C   C1510     1.0  0.59082  0.69820  0.15891  1.0000
  C   C1511     1.0  0.53417  0.72955  0.31467  1.0000
  H   H2499     1.0  0.40191  0.51096  0.01126  1.0000
  H   H2500     1.0  0.37904  0.55272  0.30274  1.0000
  C   C1512     1.0  0.35273  0.55196  0.47308  1.0000
  Fe  Fe219     1.0  0.35465  0.59008  0.37393  1.0000
  H   H2501     1.0  0.48844  0.49406  0.06402  1.0000
  C   C1513     1.0  0.52276  0.70043  0.98791  1.0000
  Fe  Fe220     1.0  0.45217  0.69645  0.42259  1.0000
  C   C1514     1.0  0.35292  0.56179  0.45330  1.0000
  H   H2502     1.0  0.51176  0.56414  0.18062  1.0000
  S   S442      1.0  0.59371  0.66083  0.00696  1.0000
  H   H2503     1.0  0.42147  0.57493  0.24446  1.0000
  H   H2504     1.0  0.58812  0.69430  0.17549  1.0000
  C   C1515     1.0  0.36830  0.56539  0.22506  1.0000
  H   H2505     1.0  0.35026  0.53019  0.34845  1.0000
  N   N107      1.0  0.55458  0.71717  0.41680  1.0000
  H   H2506     1.0  0.63622  0.69438  0.12386  1.0000
  S   S443      1.0  0.42716  0.67792  0.43084  1.0000
  H   H2507     1.0  0.37810  0.60665  0.46487  1.0000
  S   S444      1.0  0.59428  0.70899  0.27901  1.0000
  H   H2508     1.0  0.52011  0.52258  0.17842  1.0000
  H   H2509     1.0  0.34789  0.49165  0.05510  1.0000
  C   C1516     1.0  0.43335  0.49844  0.06344  1.0000
  H   H2510     1.0  0.66259  0.57679  0.20202  1.0000
  H   H2511     1.0  0.58716  0.54224  0.12918  1.0000
  H   H2512     1.0  0.35727  0.57955  0.22165  1.0000
  C   C1517     1.0  0.34773  0.56227  0.34130  1.0000
  H   H2513     1.0  0.39968  0.53060  0.03891  1.0000
  N   N108      1.0  0.38578  0.54490  0.25388  1.0000
  C   C1518     1.0  0.38579  0.52586  0.24737  1.0000
  C   C1519     1.0  0.36789  0.56019  0.24764  1.0000
  C   C1520     1.0  0.38238  0.54054  0.27637  1.0000
  C   C1521     1.0  0.40135  0.50720  0.25434  1.0000
  H   H2514     1.0  0.63184  0.54897  0.12386  1.0000
  C   C1522     1.0  0.38258  0.55779  0.28627  1.0000
  H   H2515     1.0  0.37040  0.52172  0.25247  1.0000
  H   H2516     1.0  0.38915  0.52806  0.23079  1.0000
  C   C1523     1.0  0.65642  0.54958  0.15738  1.0000
  H   H2517     1.0  0.39459  0.58208  0.25184  1.0000
  H   H2518     1.0  0.36756  0.53546  0.28308  1.0000
  H   H2519     1.0  0.39435  0.52812  0.28167  1.0000
  S   S445      1.0  0.43365  0.49664  0.12856  1.0000
  C   C1524     1.0  0.54864  0.68347  0.44034  1.0000
  C   C1525     1.0  0.56007  0.51250  0.18131  1.0000
  S   S446      1.0  0.34137  0.58709  0.44831  1.0000
  H   H2520     1.0  0.63492  0.56408  0.07834  1.0000
  H   H2521     1.0  0.56420  0.67824  0.44348  1.0000
  H   H2522     1.0  0.53649  0.72917  0.39412  1.0000
  H   H2523     1.0  0.37079  0.57120  0.28280  1.0000
  H   H2524     1.0  0.41350  0.53247  0.00437  1.0000
  N   N109      1.0  0.53398  0.68037  0.28151  1.0000
  C   C1526     1.0  0.51804  0.69937  0.28264  1.0000
  C   C1527     1.0  0.52901  0.66606  0.30102  1.0000
  C   C1528     1.0  0.53182  0.67179  0.26466  1.0000
  C   C1529     1.0  0.55481  0.68554  0.27774  1.0000
  H   H2525     1.0  0.38524  0.71136  0.42689  1.0000
  C   C1530     1.0  0.52983  0.67312  0.31987  1.0000
  C   C1531     1.0  0.54669  0.65231  0.26039  1.0000
  C   C1532     1.0  0.57258  0.66824  0.28296  1.0000
  H   H2526     1.0  0.50234  0.69599  0.28686  1.0000
  H   H2527     1.0  0.51918  0.70668  0.29454  1.0000
  H   H2528     1.0  0.53914  0.65117  0.30117  1.0000
  H   H2529     1.0  0.51341  0.66290  0.30325  1.0000
  H   H2530     1.0  0.51600  0.66908  0.26719  1.0000
  H   H2531     1.0  0.53417  0.68258  0.25031  1.0000
  H   H2532     1.0  0.55956  0.69262  0.26183  1.0000
  H   H2533     1.0  0.55412  0.69713  0.28641  1.0000
  C   C1533     1.0  0.34715  0.54871  0.01688  1.0000
  H   H2534     1.0  0.33769  0.54777  0.00665  1.0000
  H   H2535     1.0  0.50859  0.72983  0.26728  1.0000
  H   H2536     1.0  0.52859  0.66053  0.33288  1.0000
  H   H2537     1.0  0.54435  0.67796  0.31849  1.0000
  H   H2538     1.0  0.51683  0.68541  0.32364  1.0000
  H   H2539     1.0  0.54588  0.63981  0.27342  1.0000
  H   H2540     1.0  0.56258  0.65484  0.25451  1.0000
  H   H2541     1.0  0.54253  0.64741  0.24834  1.0000
  H   H2542     1.0  0.57717  0.66988  0.29639  1.0000
  H   H2543     1.0  0.56977  0.65294  0.28525  1.0000
  H   H2544     1.0  0.34313  0.53285  0.06452  1.0000
  C   C1534     1.0  0.40383  0.50035  0.19082  1.0000
  H   H2545     1.0  0.38653  0.52901  0.07073  1.0000
  H   H2546     1.0  0.37841  0.52296  0.42995  1.0000
  H   H2547     1.0  0.42272  0.62216  0.41644  1.0000
  C   C1535     1.0  0.55221  0.72838  0.39612  1.0000
  C   C1536     1.0  0.42480  0.58273  0.41963  1.0000
  H   H2548     1.0  0.40280  0.72144  0.43416  1.0000
  H   H2549     1.0  0.38417  0.59113  0.43421  1.0000
  H   H2550     1.0  0.45094  0.59867  0.44556  1.0000
  C   C1537     1.0  0.37606  0.50376  0.04954  1.0000
  H   H2551     1.0  0.55924  0.68802  0.40871  1.0000
  H   H2552     1.0  0.36546  0.72637  0.36623  1.0000
  H   H2553     1.0  0.51491  0.69149  0.00103  1.0000
  S   S447      1.0  0.35236  0.62249  0.35908  1.0000
  Fe  Fe221     1.0  0.46545  0.48631  0.13428  1.0000
  H   H2554     1.0  0.64499  0.65288  0.14939  1.0000
  C   C1538     1.0  0.51087  0.72187  0.34654  1.0000
  C   C1539     1.0  0.40611  0.55117  0.24440  1.0000
  H   H2555     1.0  0.54596  0.69773  0.21388  1.0000
  H   H2556     1.0  0.58412  0.72214  0.99648  1.0000
  H   H2557     1.0  0.65399  0.56798  0.00303  1.0000
  C   C1540     1.0  0.34541  0.54388  0.33842  1.0000
  H   H2558     1.0  0.62758  0.53774  0.10494  1.0000
  C   C1541     1.0  0.39246  0.65527  0.40637  1.0000
  H   H2559     1.0  0.58686  0.49840  0.19427  1.0000
  C   C1542     1.0  0.57624  0.71355  0.41951  1.0000
  H   H2560     1.0  0.55932  0.69677  0.34858  1.0000
  H   H2561     1.0  0.64975  0.54140  0.07128  1.0000
  C   C1543     1.0  0.40671  0.57365  0.24172  1.0000
  H   H2562     1.0  0.42141  0.55178  0.43423  1.0000
  C   C1544     1.0  0.41874  0.66879  0.41367  1.0000
  C   C1545     1.0  0.42390  0.65827  0.38204  1.0000
  C   C1546     1.0  0.57663  0.51331  0.19210  1.0000
  H   H2563     1.0  0.43211  0.57429  0.45572  1.0000
  H   H2564     1.0  0.36336  0.52338  0.08803  1.0000
  C   C1547     1.0  0.64783  0.73077  0.31207  1.0000
  H   H2565     1.0  0.57122  0.71020  0.22503  1.0000
  H   H2566     1.0  0.61968  0.70049  0.09807  1.0000
  H   H2567     1.0  0.38993  0.66529  0.43370  1.0000
  C   C1548     1.0  0.59504  0.68451  0.22041  1.0000
  Fe  Fe222     1.0  0.37015  0.62518  0.38087  1.0000
  C   C1549     1.0  0.63302  0.65437  0.14094  1.0000
  H   H2568     1.0  0.61810  0.71549  0.12947  1.0000
  H   H2569     1.0  0.39996  0.69905  0.38629  1.0000
  H   H2570     1.0  0.37762  0.65108  0.41088  1.0000
  H   H2571     1.0  0.54281  0.66988  0.44070  1.0000
  C   C1550     1.0  0.40576  0.72767  0.40210  1.0000
  H   H2572     1.0  0.60115  0.66471  0.14221  1.0000
  H   H2573     1.0  0.59023  0.64468  0.20299  1.0000
  S   S448      1.0  0.62753  0.70040  0.98556  1.0000
  C   C1551     1.0  0.38720  0.71223  0.38627  1.0000
  H   H2574     1.0  0.64253  0.68322  0.15569  1.0000
  C   C1552     1.0  0.57255  0.69312  0.15359  1.0000
  H   H2575     1.0  0.38966  0.53421  0.99809  1.0000
  H   H2576     1.0  0.37631  0.70834  0.40045  1.0000
  C   C1553     1.0  0.43452  0.49828  0.04332  1.0000
  H   H2577     1.0  0.61547  0.65715  0.21414  1.0000
  C   C1554     1.0  0.56639  0.67036  0.20761  1.0000
  S   S449      1.0  0.37505  0.59211  0.39343  1.0000
  N   N110      1.0  0.53463  0.62950  0.07154  1.0000
  C   C1555     1.0  0.52661  0.63519  0.09184  1.0000
  C   C1556     1.0  0.51713  0.62471  0.06549  1.0000
  C   C1557     1.0  0.54228  0.64730  0.05708  1.0000
  C   C1558     1.0  0.55182  0.61165  0.07328  1.0000
  C   C1559     1.0  0.54196  0.64175  0.10038  1.0000
  C   C1560     1.0  0.50757  0.60705  0.07915  1.0000
  C   C1561     1.0  0.54015  0.65068  0.03518  1.0000
  C   C1562     1.0  0.56110  0.60248  0.05446  1.0000
  H   H2578     1.0  0.51297  0.64756  0.09159  1.0000
  H   H2579     1.0  0.52132  0.62254  0.10328  1.0000
  H   H2580     1.0  0.52176  0.62106  0.05032  1.0000
  H   H2581     1.0  0.50458  0.63813  0.06461  1.0000
  H   H2582     1.0  0.53399  0.66165  0.06195  1.0000
  H   H2583     1.0  0.55867  0.64669  0.05678  1.0000
  H   H2584     1.0  0.56470  0.61569  0.07719  1.0000
  H   H2585     1.0  0.54691  0.59951  0.08574  1.0000
  H   H2586     1.0  0.55391  0.62889  0.10492  1.0000
  H   H2587     1.0  0.54930  0.65384  0.09002  1.0000
  H   H2588     1.0  0.53355  0.64762  0.11409  1.0000
  H   H2589     1.0  0.51884  0.59279  0.08041  1.0000
  H   H2590     1.0  0.49974  0.61013  0.09422  1.0000
  H   H2591     1.0  0.49563  0.60458  0.07249  1.0000
  H   H2592     1.0  0.54797  0.66308  0.02619  1.0000
  H   H2593     1.0  0.52391  0.65550  0.03388  1.0000
  H   H2594     1.0  0.54710  0.63745  0.02814  1.0000
  H   H2595     1.0  0.54975  0.59693  0.04962  1.0000
  H   H2596     1.0  0.57333  0.58938  0.05781  1.0000
  H   H2597     1.0  0.56849  0.61316  0.04207  1.0000
  N   N111      1.0  0.54887  0.53256  0.17225  1.0000
  C   C1563     1.0  0.60028  0.66604  0.21410  1.0000
  H   H2598     1.0  0.61044  0.71399  0.17780  1.0000
  H   H2599     1.0  0.57094  0.67738  0.16019  1.0000
  C   C1564     1.0  0.56253  0.54403  0.15535  1.0000
  C   C1565     1.0  0.37893  0.61537  0.44945  1.0000
  H   H2600     1.0  0.56568  0.71550  0.31396  1.0000
  C   C1566     1.0  0.37688  0.71251  0.36920  1.0000
  C   C1567     1.0  0.58012  0.53174  0.14213  1.0000
  C   C1568     1.0  0.36976  0.53399  0.07479  1.0000
  H   H2601     1.0  0.55262  0.54791  0.19404  1.0000
  H   H2602     1.0  0.59559  0.71198  0.11172  1.0000
  H   H2603     1.0  0.58624  0.66939  0.27060  1.0000
  H   H2604     1.0  0.54278  0.52460  0.13460  1.0000
  C   C1569     1.0  0.60868  0.69920  0.11267  1.0000
  H   H2605     1.0  0.55335  0.55500  0.14525  1.0000
  H   H2606     1.0  0.56994  0.55334  0.16103  1.0000
  C   C1570     1.0  0.51439  0.73188  0.32653  1.0000
  H   H2607     1.0  0.44138  0.57793  0.41950  1.0000
  H   H2608     1.0  0.52332  0.57372  0.19518  1.0000
  H   H2609     1.0  0.34082  0.52151  0.03631  1.0000
  H   H2610     1.0  0.63719  0.52253  0.12602  1.0000
  C   C1571     1.0  0.51891  0.71579  0.26354  1.0000
  C   C1572     1.0  0.43086  0.66646  0.39488  1.0000
  H   H2611     1.0  0.64375  0.71913  0.34371  1.0000
  H   H2612     1.0  0.58923  0.71481  0.15511  1.0000
  H   H2613     1.0  0.53437  0.71939  0.25747  1.0000
  H   H2614     1.0  0.36886  0.69963  0.37334  1.0000
  C   C1573     1.0  0.55036  0.71717  0.32283  1.0000
  H   H2615     1.0  0.56969  0.51696  0.20714  1.0000
  C   C1574     1.0  0.39334  0.51958  0.18419  1.0000
  H   H2616     1.0  0.41851  0.71448  0.40132  1.0000
  H   H2617     1.0  0.58618  0.52443  0.18351  1.0000
  C   C1575     1.0  0.62534  0.70876  0.16818  1.0000
  H   H2618     1.0  0.38409  0.55098  0.02645  1.0000
  S   S450      1.0  0.46177  0.71515  0.39243  1.0000
  H   H2619     1.0  0.42279  0.71946  0.36509  1.0000
  H   H2620     1.0  0.57505  0.52109  0.13607  1.0000
  H   H2621     1.0  0.39608  0.50051  0.27025  1.0000
  H   H2622     1.0  0.35515  0.55340  0.05161  1.0000
  H   H2623     1.0  0.41688  0.51035  0.25181  1.0000
  H   H2624     1.0  0.35338  0.55477  0.25504  1.0000
  H   H2625     1.0  0.53323  0.69907  0.41648  1.0000
  H   H2626     1.0  0.59241  0.52350  0.15021  1.0000
  C   C1576     1.0  0.50075  0.72549  0.47614  1.0000
  H   H2627     1.0  0.57325  0.69593  0.13738  1.0000
  H   H2628     1.0  0.38351  0.56737  0.21576  1.0000
  C   C1577     1.0  0.42439  0.61283  0.43132  1.0000
  H   H2629     1.0  0.41886  0.49486  0.18254  1.0000
  C   C1578     1.0  0.33328  0.57897  0.31215  1.0000
  H   H2630     1.0  0.36309  0.61971  0.44688  1.0000
  C   C1579     1.0  0.66024  0.53686  0.10392  1.0000
  C   C1580     1.0  0.53997  0.72799  0.43255  1.0000
  C   C1581     1.0  0.40159  0.56815  0.46627  1.0000
  H   H2631     1.0  0.66528  0.57058  0.11019  1.0000
  C   C1582     1.0  0.35835  0.53701  0.05769  1.0000
  H   H2632     1.0  0.64158  0.57599  0.10358  1.0000
  H   H2633     1.0  0.40257  0.49549  0.24569  1.0000
  C   C1583     1.0  0.63782  0.53685  0.11506  1.0000
  Fe  Fe223     1.0  0.33846  0.49399  0.26387  1.0000
  H   H2634     1.0  0.58658  0.70248  0.41062  1.0000
  C   C1584     1.0  0.39501  0.48834  0.20842  1.0000
  H   H2635     1.0  0.41050  0.55314  0.47148  1.0000
  H   H2636     1.0  0.35974  0.55619  0.00752  1.0000
  H   H2637     1.0  0.57721  0.70618  0.43517  1.0000
  C   C1585     1.0  0.65086  0.55655  0.07284  1.0000
  H   H2638     1.0  0.35158  0.49922  0.07660  1.0000
  C   C1586     1.0  0.37569  0.49548  0.21950  1.0000
  H   H2639     1.0  0.33723  0.55820  0.02748  1.0000
  H   H2640     1.0  0.36644  0.49481  0.42213  1.0000
  C   C1587     1.0  0.33695  0.54301  0.32258  1.0000
  H   H2641     1.0  0.49563  0.72382  0.35570  1.0000
  H   H2642     1.0  0.65022  0.59526  0.99698  1.0000
  S   S451      1.0  0.49054  0.73270  0.41299  1.0000
  H   H2643     1.0  0.50329  0.49328  0.03943  1.0000
  C   C1588     1.0  0.64833  0.58170  0.99277  1.0000
  H   H2644     1.0  0.63159  0.58266  0.99512  1.0000
  H   H2645     1.0  0.64948  0.60079  0.07603  1.0000
  H   H2646     1.0  0.56411  0.72932  0.36433  1.0000
  C   C1589     1.0  0.66243  0.59309  0.08346  1.0000
  C   C1590     1.0  0.65779  0.56758  0.05127  1.0000
  C   C1591     1.0  0.65824  0.57307  0.09704  1.0000
  H   H2647     1.0  0.65988  0.58293  0.05045  1.0000
  H   H2648     1.0  0.66427  0.60302  0.09275  1.0000
  C   C1592     1.0  0.41092  0.73342  0.36591  1.0000
  S   S452      1.0  0.63991  0.64187  0.98390  1.0000
  C   C1593     1.0  0.57679  0.72502  0.98354  1.0000
  Fe  Fe224     1.0  0.61931  0.67202  0.98360  1.0000
  N   N112      1.0  0.66403  0.55479  0.08757  1.0000
  C   C1594     1.0  0.58614  0.73210  0.41528  1.0000
  C   C1595     1.0  0.51535  0.72107  0.98310  1.0000
  S   S453      1.0  0.59983  0.62543  0.98147  1.0000
  S   S454      1.0  0.54902  0.66543  0.98199  1.0000
  H   H2649     1.0  0.35728  0.73441  0.41103  1.0000
  H   H2650     1.0  0.66596  0.52273  0.09790  1.0000
  H   H2651     1.0  0.47862  0.48644  0.04632  1.0000
  H   H2652     1.0  0.40506  0.51976  0.56814  1.0000
  C   C1596     1.0  0.60153  0.48757  0.67376  1.0000
  H   H2653     1.0  0.49020  0.52674  0.67679  1.0000
  C   C1597     1.0  0.65409  0.72205  0.83799  1.0000
  C   C1598     1.0  0.65185  0.57114  0.70930  1.0000
  C   C1599     1.0  0.37597  0.51673  0.71718  1.0000
  H   H2654     1.0  0.65388  0.63242  0.88905  1.0000
  H   H2655     1.0  0.39471  0.53022  0.72777  1.0000
  Fe  Fe225     1.0  0.41061  0.49193  0.84697  1.0000
  H   H2656     1.0  0.54435  0.49439  0.64880  1.0000
  Fe  Fe226     1.0  0.56036  0.62831  0.65154  1.0000
  S   S455      1.0  0.53760  0.62237  0.68062  1.0000
  S   S456      1.0  0.55376  0.64565  0.62147  1.0000
  Fe  Fe227     1.0  0.59489  0.59769  0.66737  1.0000
  S   S457      1.0  0.57512  0.58944  0.69749  1.0000
  S   S458      1.0  0.62820  0.58386  0.65819  1.0000
  Fe  Fe228     1.0  0.55137  0.58982  0.68070  1.0000
  S   S459      1.0  0.53620  0.56269  0.69019  1.0000
  Fe  Fe229     1.0  0.56328  0.62252  0.69518  1.0000
  S   S460      1.0  0.55663  0.63526  0.72357  1.0000
  S   S461      1.0  0.57217  0.59554  0.65079  1.0000
  S   S462      1.0  0.58492  0.63095  0.66604  1.0000
  Fe  Fe230     1.0  0.60102  0.66080  0.83754  1.0000
  S   S463      1.0  0.60399  0.69238  0.83597  1.0000
  S   S464      1.0  0.58876  0.64353  0.86789  1.0000
  Fe  Fe231     1.0  0.61512  0.66286  0.79246  1.0000
  H   H2657     1.0  0.54793  0.70645  0.91619  1.0000
  S   S465      1.0  0.62304  0.64892  0.76469  1.0000
  Fe  Fe232     1.0  0.59000  0.69938  0.80908  1.0000
  Fe  Fe233     1.0  0.37655  0.49731  0.82512  1.0000
  S   S466      1.0  0.58407  0.66857  0.81241  1.0000
  C   C1600     1.0  0.40067  0.49096  0.56581  1.0000
  S   S467      1.0  0.64328  0.62917  0.93188  1.0000
  H   H2658     1.0  0.53270  0.58448  0.62909  1.0000
  H   H2659     1.0  0.47138  0.72309  0.56931  1.0000
  S   S468      1.0  0.42152  0.51381  0.60304  1.0000
  S   S469      1.0  0.36114  0.49286  0.52682  1.0000
  H   H2660     1.0  0.64734  0.72412  0.89265  1.0000
  H   H2661     1.0  0.61685  0.51886  0.69980  1.0000
  H   H2662     1.0  0.63258  0.63941  0.86374  1.0000
  H   H2663     1.0  0.50664  0.56822  0.59308  1.0000
  C   C1601     1.0  0.34738  0.49952  0.93482  1.0000
  Fe  Fe234     1.0  0.63363  0.68467  0.81481  1.0000
  S   S470      1.0  0.41857  0.50288  0.87079  1.0000
  C   C1602     1.0  0.62240  0.59815  0.70585  1.0000
  H   H2664     1.0  0.63524  0.67439  0.88177  1.0000
  H   H2665     1.0  0.55593  0.68413  0.71486  1.0000
  H   H2666     1.0  0.64116  0.69837  0.87856  1.0000
  S   S471      1.0  0.61993  0.69448  0.78754  1.0000
  H   H2667     1.0  0.49896  0.68350  0.58286  1.0000
  S   S472      1.0  0.46239  0.55677  0.65488  1.0000
  H   H2668     1.0  0.48492  0.56081  0.61048  1.0000
  C   C1603     1.0  0.54957  0.69809  0.90416  1.0000
  C   C1604     1.0  0.62548  0.63749  0.87945  1.0000
  C   C1605     1.0  0.50518  0.69741  0.58022  1.0000
  H   H2669     1.0  0.50537  0.53733  0.63238  1.0000
  H   H2670     1.0  0.50484  0.52100  0.73134  1.0000
  H   H2671     1.0  0.57972  0.70508  0.89046  1.0000
  C   C1606     1.0  0.44433  0.50028  0.73390  1.0000
  C   C1607     1.0  0.44220  0.49415  0.71719  1.0000
  H   H2672     1.0  0.50017  0.57306  0.61849  1.0000
  C   C1608     1.0  0.53585  0.50990  0.64474  1.0000
  C   C1609     1.0  0.53773  0.68803  0.54493  1.0000
  H   H2673     1.0  0.54374  0.70931  0.89171  1.0000
  H   H2674     1.0  0.55480  0.54678  0.63128  1.0000
  C   C1610     1.0  0.56929  0.54208  0.58836  1.0000
  S   S473      1.0  0.56726  0.72752  0.80176  1.0000
  H   H2675     1.0  0.35372  0.50185  0.77765  1.0000
  C   C1611     1.0  0.52703  0.71660  0.85398  1.0000
  H   H2676     1.0  0.39409  0.49681  0.55273  1.0000
  H   H2677     1.0  0.52607  0.69535  0.75308  1.0000
  H   H2678     1.0  0.56555  0.73352  0.76002  1.0000
  C   C1612     1.0  0.57288  0.69149  0.89685  1.0000
  H   H2679     1.0  0.55067  0.69896  0.83523  1.0000
  C   C1613     1.0  0.66145  0.52766  0.66824  1.0000
  H   H2680     1.0  0.37510  0.51050  0.93200  1.0000
  H   H2681     1.0  0.59901  0.68942  0.75459  1.0000
  C   C1614     1.0  0.60437  0.63842  0.88549  1.0000
  C   C1615     1.0  0.62835  0.63197  0.91416  1.0000
  C   C1616     1.0  0.60728  0.63281  0.92019  1.0000
  C   C1617     1.0  0.59547  0.63532  0.90593  1.0000
  H   H2682     1.0  0.60012  0.63105  0.93588  1.0000
  H   H2683     1.0  0.57943  0.63488  0.91082  1.0000
  C   C1618     1.0  0.51598  0.56143  0.67985  1.0000
  C   C1619     1.0  0.51056  0.54278  0.68236  1.0000
  C   C1620     1.0  0.48307  0.55823  0.66461  1.0000
  C   C1621     1.0  0.48835  0.57693  0.66231  1.0000
  C   C1622     1.0  0.50486  0.57853  0.66977  1.0000
  C   C1623     1.0  0.64762  0.51711  0.68240  1.0000
  H   H2684     1.0  0.47973  0.59023  0.65459  1.0000
  H   H2685     1.0  0.50887  0.59300  0.66785  1.0000
  C   C1624     1.0  0.57562  0.63834  0.73479  1.0000
  C   C1625     1.0  0.57120  0.63772  0.75548  1.0000
  C   C1626     1.0  0.58546  0.64119  0.76480  1.0000
  C   C1627     1.0  0.60444  0.64504  0.75353  1.0000
  C   C1628     1.0  0.60895  0.64549  0.73286  1.0000
  C   C1629     1.0  0.59447  0.64252  0.72347  1.0000
  H   H2686     1.0  0.55661  0.63459  0.76435  1.0000
  H   H2687     1.0  0.58191  0.64055  0.78076  1.0000
  H   H2688     1.0  0.62355  0.64862  0.72402  1.0000
  H   H2689     1.0  0.59778  0.64371  0.70744  1.0000
  C   C1630     1.0  0.62135  0.54737  0.68111  1.0000
  C   C1631     1.0  0.33545  0.54217  0.95971  1.0000
  H   H2690     1.0  0.60583  0.55483  0.68600  1.0000
  C   C1632     1.0  0.55069  0.71300  0.59744  1.0000
  C   C1633     1.0  0.55891  0.69929  0.58464  1.0000
  C   C1634     1.0  0.56031  0.67861  0.59230  1.0000
  C   C1635     1.0  0.55410  0.67145  0.61286  1.0000
  C   C1636     1.0  0.54656  0.68514  0.62575  1.0000
  C   C1637     1.0  0.54467  0.70584  0.61802  1.0000
  H   H2691     1.0  0.56393  0.70463  0.56884  1.0000
  H   H2692     1.0  0.56622  0.66809  0.58227  1.0000
  H   H2693     1.0  0.54154  0.67979  0.64157  1.0000
  H   H2694     1.0  0.61345  0.56217  0.72033  1.0000
  C   C1638     1.0  0.63752  0.63363  0.89382  1.0000
  H   H2695     1.0  0.37213  0.50715  0.90877  1.0000
  H   H2696     1.0  0.58811  0.59001  0.73566  1.0000
  H   H2697     1.0  0.51713  0.58173  0.73128  1.0000
  H   H2698     1.0  0.52140  0.69236  0.58150  1.0000
  H   H2699     1.0  0.33454  0.51622  0.55730  1.0000
  C   C1639     1.0  0.63555  0.61294  0.69168  1.0000
  Fe  Fe235     1.0  0.44083  0.50589  0.62676  1.0000
  C   C1640     1.0  0.39762  0.53568  0.76386  1.0000
  H   H2700     1.0  0.51045  0.70024  0.90173  1.0000
  N   N113      1.0  0.34147  0.48721  0.60386  1.0000
  C   C1641     1.0  0.51501  0.69126  0.91574  1.0000
  C   C1642     1.0  0.54172  0.66970  0.89487  1.0000
  C   C1643     1.0  0.54386  0.66842  0.92980  1.0000
  C   C1644     1.0  0.53968  0.55291  0.62704  1.0000
  C   C1645     1.0  0.52431  0.66049  0.89284  1.0000
  C   C1646     1.0  0.53300  0.65065  0.93968  1.0000
  H   H2701     1.0  0.57457  0.54954  0.57270  1.0000
  H   H2702     1.0  0.56041  0.66188  0.92665  1.0000
  H   H2703     1.0  0.54184  0.67737  0.94130  1.0000
  H   H2704     1.0  0.53790  0.51878  0.65487  1.0000
  H   H2705     1.0  0.53201  0.71660  0.78395  1.0000
  H   H2706     1.0  0.53060  0.65038  0.88185  1.0000
  H   H2707     1.0  0.51218  0.67228  0.88696  1.0000
  H   H2708     1.0  0.51737  0.65149  0.90699  1.0000
  S   S474      1.0  0.46952  0.51855  0.61995  1.0000
  C   C1647     1.0  0.34308  0.49218  0.58154  1.0000
  H   H2709     1.0  0.53632  0.63966  0.92977  1.0000
  C   C1648     1.0  0.63520  0.55801  0.66707  1.0000
  H   H2710     1.0  0.33499  0.53270  0.78004  1.0000
  C   C1649     1.0  0.43886  0.48917  0.75311  1.0000
  H   H2711     1.0  0.49726  0.58932  0.71775  1.0000
  C   C1650     1.0  0.40693  0.50393  0.57457  1.0000
  H   H2712     1.0  0.59482  0.71546  0.74235  1.0000
  C   C1651     1.0  0.54246  0.71388  0.83701  1.0000
  H   H2713     1.0  0.36493  0.53140  0.84230  1.0000
  H   H2714     1.0  0.54206  0.53484  0.58451  1.0000
  C   C1652     1.0  0.54581  0.54456  0.59295  1.0000
  C   C1653     1.0  0.62760  0.52700  0.68888  1.0000
  H   H2715     1.0  0.58709  0.71745  0.97155  1.0000
  H   H2716     1.0  0.54209  0.50821  0.61354  1.0000
  H   H2717     1.0  0.51472  0.70517  0.52920  1.0000
  H   H2718     1.0  0.47524  0.70062  0.56100  1.0000
  H   H2719     1.0  0.53969  0.67570  0.55793  1.0000
  H   H2720     1.0  0.58046  0.68298  0.90928  1.0000
  C   C1654     1.0  0.65360  0.72462  0.96306  1.0000
  H   H2721     1.0  0.54983  0.73237  0.94018  1.0000
  H   H2722     1.0  0.50724  0.55254  0.72612  1.0000
  H   H2723     1.0  0.49166  0.71054  0.93350  1.0000
  H   H2724     1.0  0.64968  0.57015  0.69448  1.0000
  H   H2725     1.0  0.58848  0.56625  0.75179  1.0000
  S   S475      1.0  0.44125  0.49779  0.77368  1.0000
  C   C1655     1.0  0.61773  0.56854  0.73140  1.0000
  H   H2726     1.0  0.62643  0.62315  0.68106  1.0000
  H   H2727     1.0  0.47841  0.71342  0.59921  1.0000
  C   C1656     1.0  0.64434  0.71431  0.90752  1.0000
  C   C1657     1.0  0.53982  0.57524  0.61741  1.0000
  H   H2728     1.0  0.52644  0.69214  0.78517  1.0000
  C   C1658     1.0  0.35743  0.49473  0.63022  1.0000
  H   H2729     1.0  0.35136  0.55670  0.86391  1.0000
  C   C1659     1.0  0.35780  0.53862  0.75198  1.0000
  H   H2730     1.0  0.38776  0.51471  0.70336  1.0000
  H   H2731     1.0  0.40947  0.53554  0.74991  1.0000
  H   H2732     1.0  0.64933  0.59288  0.96139  1.0000
  H   H2733     1.0  0.33843  0.51512  0.93272  1.0000
  N   N114      1.0  0.63259  0.58233  0.72080  1.0000
  H   H2734     1.0  0.60072  0.58378  0.75655  1.0000
  H   H2735     1.0  0.59743  0.49764  0.66001  1.0000
  H   H2736     1.0  0.51755  0.73316  0.53908  1.0000
  H   H2737     1.0  0.33701  0.51308  0.87940  1.0000
  C   C1660     1.0  0.34891  0.53817  0.84458  1.0000
  H   H2738     1.0  0.44725  0.56132  0.70633  1.0000
  H   H2739     1.0  0.52304  0.70381  0.86506  1.0000
  H   H2740     1.0  0.34586  0.56009  0.48514  1.0000
  Fe  Fe236     1.0  0.45890  0.52693  0.65018  1.0000
  H   H2741     1.0  0.66605  0.55633  0.64987  1.0000
  C   C1661     1.0  0.49502  0.70785  0.59812  1.0000
  H   H2742     1.0  0.51196  0.69761  0.94583  1.0000
  H   H2743     1.0  0.65776  0.68034  0.86438  1.0000
  H   H2744     1.0  0.66545  0.67374  0.97184  1.0000
  C   C1662     1.0  0.49427  0.54116  0.67466  1.0000
  H   H2745     1.0  0.59063  0.49284  0.68689  1.0000
  C   C1663     1.0  0.65925  0.49043  0.76795  1.0000
  N   N115      1.0  0.55636  0.70202  0.74848  1.0000
  C   C1664     1.0  0.54205  0.69030  0.74532  1.0000
  C   C1665     1.0  0.55809  0.69561  0.77008  1.0000
  H   H2746     1.0  0.63962  0.71737  0.84454  1.0000
  H   H2747     1.0  0.37693  0.51730  0.78386  1.0000
  C   C1666     1.0  0.54120  0.69123  0.72343  1.0000
  H   H2748     1.0  0.48234  0.71706  0.52589  1.0000
  H   H2749     1.0  0.49194  0.59094  0.74401  1.0000
  H   H2750     1.0  0.54163  0.69517  0.80076  1.0000
  H   H2751     1.0  0.54613  0.67414  0.75198  1.0000
  H   H2752     1.0  0.53102  0.72746  0.75072  1.0000
  H   H2753     1.0  0.56938  0.70245  0.77348  1.0000
  H   H2754     1.0  0.56412  0.67919  0.77352  1.0000
  H   H2755     1.0  0.58019  0.68059  0.73418  1.0000
  H   H2756     1.0  0.50391  0.55276  0.75185  1.0000
  H   H2757     1.0  0.60852  0.60736  0.71335  1.0000
  H   H2758     1.0  0.36787  0.50400  0.72109  1.0000
  C   C1667     1.0  0.65110  0.70483  0.97059  1.0000
  S   S476      1.0  0.34506  0.51369  0.82119  1.0000
  C   C1668     1.0  0.34119  0.55242  0.85696  1.0000
  C   C1669     1.0  0.48139  0.71464  0.55792  1.0000
  C   C1670     1.0  0.54047  0.69142  0.97603  1.0000
  H   H2759     1.0  0.36557  0.55135  0.74384  1.0000
  H   H2760     1.0  0.54640  0.67899  0.87990  1.0000
  H   H2761     1.0  0.57679  0.68259  0.88489  1.0000
  C   C1671     1.0  0.55051  0.70305  0.95899  1.0000
  H   H2762     1.0  0.63883  0.72424  0.91870  1.0000
  H   H2763     1.0  0.51961  0.50867  0.64754  1.0000
  C   C1672     1.0  0.48820  0.52151  0.73398  1.0000
  H   H2764     1.0  0.52825  0.55250  0.64134  1.0000
  N   N116      1.0  0.37296  0.51911  0.75386  1.0000
  H   H2765     1.0  0.50750  0.68372  0.54638  1.0000
  S   S477      1.0  0.42880  0.51717  0.65579  1.0000
  N   N117      1.0  0.53732  0.68156  0.91134  1.0000
  S   S478      1.0  0.60642  0.67111  0.95779  1.0000
  H   H2766     1.0  0.53139  0.58146  0.60525  1.0000
  H   H2767     1.0  0.54503  0.68143  0.53139  1.0000
  H   H2768     1.0  0.54624  0.69965  0.54460  1.0000
  H   H2769     1.0  0.38730  0.55051  0.76342  1.0000
  N   N118      1.0  0.47554  0.55721  0.74194  1.0000
  C   C1673     1.0  0.38664  0.51738  0.73369  1.0000
  C   C1674     1.0  0.47569  0.53506  0.74893  1.0000
  C   C1675     1.0  0.46285  0.56857  0.75808  1.0000
  C   C1676     1.0  0.46828  0.56550  0.72262  1.0000
  C   C1677     1.0  0.38605  0.51825  0.76830  1.0000
  H   H2770     1.0  0.36096  0.52402  0.49265  1.0000
  C   C1678     1.0  0.44275  0.56180  0.77005  1.0000
  C   C1679     1.0  0.44716  0.56236  0.72185  1.0000
  H   H2771     1.0  0.65104  0.49337  0.75558  1.0000
  C   C1680     1.0  0.53819  0.70027  0.78559  1.0000
  H   H2772     1.0  0.46012  0.53172  0.75307  1.0000
  H   H2773     1.0  0.48160  0.52948  0.76298  1.0000
  H   H2774     1.0  0.47180  0.56756  0.76953  1.0000
  H   H2775     1.0  0.45882  0.58484  0.75177  1.0000
  H   H2776     1.0  0.46749  0.58198  0.71844  1.0000
  H   H2777     1.0  0.47956  0.55991  0.70990  1.0000
  H   H2778     1.0  0.62460  0.55531  0.74140  1.0000
  C   C1681     1.0  0.64644  0.57926  0.75255  1.0000
  H   H2779     1.0  0.56421  0.69615  0.94974  1.0000
  H   H2780     1.0  0.49691  0.69677  0.61207  1.0000
  H   H2781     1.0  0.34875  0.50424  0.75371  1.0000
  H   H2782     1.0  0.52713  0.72424  0.56135  1.0000
  H   H2783     1.0  0.43428  0.57257  0.77999  1.0000
  H   H2784     1.0  0.44575  0.54693  0.77997  1.0000
  H   H2785     1.0  0.43251  0.56141  0.76048  1.0000
  H   H2786     1.0  0.43502  0.57514  0.72613  1.0000
  H   H2787     1.0  0.44304  0.54827  0.73113  1.0000
  H   H2788     1.0  0.34662  0.49512  0.95114  1.0000
  Fe  Fe237     1.0  0.44531  0.48730  0.66937  1.0000
  H   H2789     1.0  0.53987  0.56001  0.58576  1.0000
  C   C1682     1.0  0.65527  0.54813  0.66071  1.0000
  H   H2790     1.0  0.51057  0.53069  0.60860  1.0000
  Fe  Fe238     1.0  0.62473  0.63980  0.95998  1.0000
  C   C1683     1.0  0.59587  0.69995  0.74073  1.0000
  H   H2791     1.0  0.53635  0.70670  0.71554  1.0000
  C   C1684     1.0  0.51497  0.69667  0.54464  1.0000
  C   C1685     1.0  0.51317  0.54149  0.61657  1.0000
  C   C1686     1.0  0.36992  0.50060  0.92494  1.0000
  C   C1687     1.0  0.49732  0.56000  0.73838  1.0000
  C   C1688     1.0  0.59777  0.57798  0.74447  1.0000
  S   S479      1.0  0.40280  0.51289  0.81931  1.0000
  H   H2792     1.0  0.56116  0.51589  0.62125  1.0000
  H   H2793     1.0  0.55573  0.57791  0.61214  1.0000
  N   N119      1.0  0.53576  0.53988  0.61475  1.0000
  C   C1689     1.0  0.33586  0.53253  0.83560  1.0000
  S   S480      1.0  0.47435  0.49787  0.66590  1.0000
  H   H2794     1.0  0.34549  0.55148  0.94934  1.0000
  H   H2795     1.0  0.51517  0.71900  0.92553  1.0000
  H   H2796     1.0  0.51903  0.52951  0.69027  1.0000
  H   H2797     1.0  0.57677  0.52604  0.58952  1.0000
  H   H2798     1.0  0.50508  0.67993  0.92130  1.0000
  C   C1690     1.0  0.50096  0.56223  0.60904  1.0000
  C   C1691     1.0  0.50068  0.58187  0.73261  1.0000
  H   H2799     1.0  0.57470  0.54894  0.59815  1.0000
  C   C1692     1.0  0.54438  0.51823  0.62258  1.0000
  C   C1693     1.0  0.54235  0.72350  0.95352  1.0000
  H   H2800     1.0  0.44597  0.50317  0.70252  1.0000
  H   H2801     1.0  0.40581  0.53372  0.77605  1.0000
  H   H2802     1.0  0.52520  0.70559  0.48899  1.0000
  H   H2803     1.0  0.65471  0.56636  0.96879  1.0000
  S   S481      1.0  0.63172  0.65237  0.81796  1.0000
  H   H2804     1.0  0.48307  0.52594  0.71962  1.0000
  H   H2805     1.0  0.55501  0.65729  0.89638  1.0000
  Fe  Fe239     1.0  0.42075  0.48804  0.80332  1.0000
  C   C1694     1.0  0.35456  0.49926  0.60849  1.0000
  H   H2806     1.0  0.53900  0.64263  0.95327  1.0000
  C   C1695     1.0  0.36136  0.50213  0.76166  1.0000
  C   C1696     1.0  0.54739  0.72399  0.74318  1.0000
  H   H2807     1.0  0.59440  0.73219  0.84609  1.0000
  C   C1697     1.0  0.41542  0.49662  0.59168  1.0000
  H   H2808     1.0  0.64980  0.53927  0.71856  1.0000
  H   H2809     1.0  0.39787  0.50435  0.76879  1.0000
  H   H2810     1.0  0.51632  0.65552  0.94469  1.0000
  C   C1698     1.0  0.50848  0.70529  0.93106  1.0000
  H   H2811     1.0  0.54693  0.72825  0.72706  1.0000
  H   H2812     1.0  0.48585  0.50590  0.74040  1.0000
  S   S482      1.0  0.65499  0.49168  0.69259  1.0000
  C   C1699     1.0  0.66034  0.67329  0.89589  1.0000
  H   H2813     1.0  0.39889  0.50382  0.73492  1.0000
  H   H2814     1.0  0.42239  0.50583  0.90937  1.0000
  H   H2815     1.0  0.52978  0.68246  0.72334  1.0000
  N   N120      1.0  0.50345  0.70969  0.55976  1.0000
  H   H2816     1.0  0.39113  0.57292  0.47984  1.0000
  H   H2817     1.0  0.66540  0.56365  0.93671  1.0000
  C   C1700     1.0  0.52497  0.73261  0.96579  1.0000
  C   C1701     1.0  0.51666  0.72079  0.48655  1.0000
  H   H2818     1.0  0.36510  0.53087  0.71349  1.0000
  Fe  Fe240     1.0  0.48309  0.48867  0.63619  1.0000
  H   H2819     1.0  0.57691  0.70498  0.71936  1.0000
  H   H2820     1.0  0.61692  0.59102  0.69630  1.0000
  C   C1702     1.0  0.57693  0.69673  0.73497  1.0000
  H   H2821     1.0  0.62412  0.60374  0.74079  1.0000
  H   H2822     1.0  0.53833  0.71638  0.62800  1.0000
  C   C1703     1.0  0.34136  0.49016  0.90537  1.0000
  H   H2823     1.0  0.44991  0.51386  0.73188  1.0000
  S   S483      1.0  0.66363  0.69233  0.81500  1.0000
  H   H2824     1.0  0.63187  0.70634  0.90876  1.0000
  H   H2825     1.0  0.50282  0.72002  0.59799  1.0000
  H   H2826     1.0  0.63978  0.62252  0.69979  1.0000
  H   H2827     1.0  0.66459  0.57945  0.70585  1.0000
  H   H2828     1.0  0.37012  0.49709  0.59888  1.0000
  H   H2829     1.0  0.60950  0.69646  0.72883  1.0000
  H   H2830     1.0  0.64289  0.58781  0.76481  1.0000
  H   H2831     1.0  0.36479  0.50639  0.63220  1.0000
  H   H2832     1.0  0.62939  0.49000  0.64023  1.0000
  H   H2833     1.0  0.34827  0.51561  0.60508  1.0000
  H   H2834     1.0  0.53400  0.73193  0.50161  1.0000
  C   C1704     1.0  0.54716  0.73049  0.82240  1.0000
  C   C1705     1.0  0.63754  0.59273  0.73484  1.0000
  C   C1706     1.0  0.42282  0.49025  0.90953  1.0000
  H   H2835     1.0  0.64941  0.60527  0.68245  1.0000
  C   C1707     1.0  0.51285  0.72804  0.55550  1.0000
  H   H2836     1.0  0.34145  0.52280  0.89866  1.0000
  C   C1708     1.0  0.47728  0.72660  0.53740  1.0000
  H   H2837     1.0  0.65871  0.69122  0.92777  1.0000
  H   H2838     1.0  0.35901  0.48703  0.57371  1.0000
  H   H2839     1.0  0.34697  0.53841  0.74279  1.0000
  H   H2840     1.0  0.34919  0.52282  0.57136  1.0000
  H   H2841     1.0  0.66187  0.54783  0.73420  1.0000
  C   C1709     1.0  0.65810  0.58039  0.97080  1.0000
  H   H2842     1.0  0.34273  0.49495  0.64122  1.0000
  H   H2843     1.0  0.64899  0.60225  0.72671  1.0000
  H   H2844     1.0  0.63952  0.56587  0.75924  1.0000
  H   H2845     1.0  0.66329  0.57469  0.74814  1.0000
  H   H2846     1.0  0.35343  0.54640  0.78169  1.0000
  H   H2847     1.0  0.64780  0.49028  0.78226  1.0000
  C   C1710     1.0  0.33367  0.51200  0.89578  1.0000
  H   H2848     1.0  0.61649  0.48946  0.67524  1.0000
  C   C1711     1.0  0.65990  0.54935  0.71882  1.0000
  H   H2849     1.0  0.64931  0.66967  0.91022  1.0000
  C   C1712     1.0  0.34438  0.54411  0.77179  1.0000
  C   C1713     1.0  0.33687  0.51461  0.57265  1.0000
  S   S484      1.0  0.36947  0.52088  0.97384  1.0000
  C   C1714     1.0  0.34334  0.52596  0.97343  1.0000
  C   C1715     1.0  0.64802  0.68235  0.87924  1.0000
  H   H2850     1.0  0.46057  0.73201  0.53863  1.0000
  C   C1716     1.0  0.66364  0.69961  0.91247  1.0000
  H   H2851     1.0  0.33360  0.55847  0.76849  1.0000
  C   C1717     1.0  0.52162  0.73565  0.49376  1.0000
  H   H2852     1.0  0.35782  0.48586  0.89838  1.0000
  H   H2853     1.0  0.38019  0.48582  0.92714  1.0000
  N   N121      1.0  0.35860  0.98303  0.09576  1.0000
  H   H2854     1.0  0.38386  0.76163  0.38905  1.0000
  S   S485      1.0  0.43830  0.76964  0.40022  1.0000
  Fe  Fe241     1.0  0.57184  0.73794  0.27535  1.0000
  Fe  Fe242     1.0  0.43196  0.91982  0.35553  1.0000
  S   S486      1.0  0.40299  0.91968  0.37897  1.0000
  S   S487      1.0  0.43458  0.94812  0.33265  1.0000
  Fe  Fe243     1.0  0.44910  0.87573  0.36987  1.0000
  S   S488      1.0  0.47469  0.84888  0.36707  1.0000
  Fe  Fe244     1.0  0.40387  0.89013  0.37150  1.0000
  S   S489      1.0  0.37704  0.87855  0.36971  1.0000
  S   S490      1.0  0.43111  0.89148  0.34632  1.0000
  S   S491      1.0  0.45301  0.90428  0.37639  1.0000
  H   H2855     1.0  0.62183  0.76792  0.99124  1.0000
  H   H2856     1.0  0.41182  0.76537  0.36404  1.0000
  Fe  Fe245     1.0  0.38787  0.96663  0.02307  1.0000
  S   S492      1.0  0.51857  0.96219  0.24563  1.0000
  S   S493      1.0  0.36070  0.95158  0.03354  1.0000
  C   C1718     1.0  0.45951  0.85035  0.42772  1.0000
  C   C1719     1.0  0.42036  0.97321  0.05206  1.0000
  H   H2857     1.0  0.33509  0.92687  0.37046  1.0000
  C   C1720     1.0  0.64140  0.84580  0.47245  1.0000
  H   H2858     1.0  0.61503  0.97046  0.25087  1.0000
  H   H2859     1.0  0.46351  0.80803  0.46381  1.0000
  H   H2860     1.0  0.41989  0.81338  0.43920  1.0000
  H   H2861     1.0  0.34487  0.87016  0.35679  1.0000
  Fe  Fe246     1.0  0.60382  0.76063  0.24869  1.0000
  H   H2862     1.0  0.58706  0.76024  0.99784  1.0000
  S   S494      1.0  0.61076  0.79060  0.23136  1.0000
  H   H2863     1.0  0.34635  0.74747  0.38968  1.0000
  H   H2864     1.0  0.48673  0.82556  0.40671  1.0000
  C   C1721     1.0  0.52051  0.96388  0.18495  1.0000
  C   C1722     1.0  0.58344  0.97829  0.26406  1.0000
  H   H2865     1.0  0.58531  0.81511  0.30292  1.0000
  S   S495      1.0  0.59151  0.75575  0.28171  1.0000
  Fe  Fe247     1.0  0.56742  0.89666  0.24458  1.0000
  S   S496      1.0  0.59396  0.90072  0.21889  1.0000
  S   S497      1.0  0.56220  0.86779  0.26581  1.0000
  C   C1723     1.0  0.35347  0.90263  0.41464  1.0000
  S   S498      1.0  0.57110  0.94819  0.20865  1.0000
  Fe  Fe248     1.0  0.57028  0.91878  0.20181  1.0000
  S   S499      1.0  0.57372  0.91520  0.17042  1.0000
  Fe  Fe249     1.0  0.59238  0.92951  0.22824  1.0000
  S   S500      1.0  0.62067  0.93806  0.23087  1.0000
  S   S501      1.0  0.54368  0.91251  0.22659  1.0000
  S   S502      1.0  0.56781  0.92399  0.25560  1.0000
  C   C1724     1.0  0.47035  0.79021  0.38604  1.0000
  N   N122      1.0  0.63768  0.90870  0.14142  1.0000
  Fe  Fe250     1.0  0.42394  0.90208  0.39929  1.0000
  H   H2866     1.0  0.34279  0.95897  0.09874  1.0000
  H   H2867     1.0  0.61212  0.81058  0.44171  1.0000
  S   S503      1.0  0.62325  0.95574  0.09211  1.0000
  H   H2868     1.0  0.39714  0.96195  0.44711  1.0000
  C   C1725     1.0  0.38937  0.97747  0.44209  1.0000
  H   H2869     1.0  0.35021  0.88075  0.44317  1.0000
  S   S504      1.0  0.58190  0.74532  0.24201  1.0000
  S   S505      1.0  0.41226  0.95670  0.04164  1.0000
  C   C1726     1.0  0.65489  0.82117  0.29039  1.0000
  N   N123      1.0  0.46620  0.82822  0.43520  1.0000
  S   S506      1.0  0.49013  0.93745  0.14241  1.0000
  C   C1727     1.0  0.56352  0.97405  0.08941  1.0000
  H   H2870     1.0  0.49373  0.79195  0.44331  1.0000
  H   H2871     1.0  0.55089  0.75685  0.42416  1.0000
  C   C1728     1.0  0.48487  0.82557  0.46387  1.0000
  H   H2872     1.0  0.46724  0.92711  0.23239  1.0000
  C   C1729     1.0  0.64218  0.74594  0.46299  1.0000
  N   N124      1.0  0.62420  0.80605  0.31420  1.0000
  Fe  Fe251     1.0  0.64694  0.97239  0.09339  1.0000
  C   C1730     1.0  0.39965  0.91532  0.46450  1.0000
  C   C1731     1.0  0.53654  0.75106  0.42834  1.0000
  H   H2873     1.0  0.64861  0.83727  0.29073  1.0000
  H   H2874     1.0  0.46442  0.94661  0.24535  1.0000
  C   C1732     1.0  0.61058  0.76801  0.44397  1.0000
  H   H2875     1.0  0.65926  0.89524  0.10290  1.0000
  C   C1733     1.0  0.43362  0.96520  0.06539  1.0000
  C   C1734     1.0  0.64660  0.75468  0.44264  1.0000
  H   H2876     1.0  0.60635  0.78569  0.31070  1.0000
  H   H2877     1.0  0.58151  0.74389  0.40286  1.0000
  C   C1735     1.0  0.58239  0.96224  0.09272  1.0000
  H   H2878     1.0  0.49331  0.97012  0.04402  1.0000
  H   H2879     1.0  0.47745  0.74885  0.46507  1.0000
  H   H2880     1.0  0.42195  0.83903  0.43320  1.0000
  H   H2881     1.0  0.48870  0.95717  0.17493  1.0000
  H   H2882     1.0  0.58342  0.94649  0.09929  1.0000
  C   C1736     1.0  0.38215  0.92489  0.47617  1.0000
  C   C1737     1.0  0.61140  0.82640  0.46556  1.0000
  H   H2883     1.0  0.40055  0.97854  0.36137  1.0000
  C   C1738     1.0  0.49503  0.79820  0.42717  1.0000
  C   C1739     1.0  0.55052  0.92069  0.16268  1.0000
  C   C1740     1.0  0.54967  0.93069  0.14314  1.0000
  C   C1741     1.0  0.53112  0.93569  0.13681  1.0000
  C   C1742     1.0  0.51360  0.92994  0.14977  1.0000
  C   C1743     1.0  0.51460  0.91925  0.16912  1.0000
  C   C1744     1.0  0.53298  0.91496  0.17570  1.0000
  H   H2884     1.0  0.56325  0.93499  0.13300  1.0000
  H   H2885     1.0  0.53039  0.94388  0.12182  1.0000
  C   C1745     1.0  0.63801  0.94316  0.20818  1.0000
  C   C1746     1.0  0.63130  0.95403  0.19084  1.0000
  C   C1747     1.0  0.64561  0.95844  0.17304  1.0000
  H   H2886     1.0  0.35545  0.86983  0.42113  1.0000
  C   C1748     1.0  0.45134  0.81756  0.43141  1.0000
  C   C1749     1.0  0.47286  0.86435  0.42932  1.0000
  H   H2887     1.0  0.61515  0.95928  0.19123  1.0000
  H   H2888     1.0  0.62661  0.85653  0.47267  1.0000
  H   H2889     1.0  0.64704  0.93344  0.14791  1.0000
  C   C1750     1.0  0.48692  0.82102  0.42293  1.0000
  H   H2890     1.0  0.43895  0.94915  0.06878  1.0000
  S   S507      1.0  0.36058  0.92018  0.99514  1.0000
  C   C1751     1.0  0.46569  0.82373  0.45735  1.0000
  C   C1752     1.0  0.37862  0.74956  0.38500  1.0000
  C   C1753     1.0  0.59874  0.81110  0.24308  1.0000
  C   C1754     1.0  0.58140  0.81016  0.25853  1.0000
  C   C1755     1.0  0.57059  0.82753  0.26590  1.0000
  C   C1756     1.0  0.57711  0.84582  0.25790  1.0000
  C   C1757     1.0  0.59496  0.84650  0.24314  1.0000
  C   C1758     1.0  0.60568  0.82922  0.23568  1.0000
  H   H2891     1.0  0.57571  0.79635  0.26410  1.0000
  H   H2892     1.0  0.55682  0.82687  0.27738  1.0000
  H   H2893     1.0  0.60049  0.86033  0.23736  1.0000
  H   H2894     1.0  0.61924  0.82993  0.22394  1.0000
  H   H2895     1.0  0.46674  0.87985  0.42216  1.0000
  H   H2896     1.0  0.35741  0.95492  0.11695  1.0000
  H   H2897     1.0  0.38134  0.73827  0.42634  1.0000
  H   H2898     1.0  0.64950  0.81375  0.32210  1.0000
  C   C1759     1.0  0.35851  0.88159  0.42742  1.0000
  H   H2899     1.0  0.50183  0.74152  0.32029  1.0000
  H   H2900     1.0  0.65640  0.79272  0.31038  1.0000
  H   H2901     1.0  0.45816  0.94404  0.19367  1.0000
  H   H2902     1.0  0.38383  0.97069  0.41652  1.0000
  H   H2903     1.0  0.48708  0.79011  0.42071  1.0000
  C   C1760     1.0  0.39064  0.98228  0.41936  1.0000
  C   C1761     1.0  0.34765  0.88473  0.34850  1.0000
  H   H2904     1.0  0.34407  0.95241  0.23293  1.0000
  C   C1762     1.0  0.46557  0.94362  0.23030  1.0000
  C   C1763     1.0  0.36330  0.89246  0.35143  1.0000
  C   C1764     1.0  0.35428  0.92269  0.32735  1.0000
  C   C1765     1.0  0.36683  0.91138  0.34068  1.0000
  H   H2905     1.0  0.35686  0.93735  0.31915  1.0000
  H   H2906     1.0  0.37893  0.91743  0.34289  1.0000
  C   C1766     1.0  0.44406  0.96733  0.33729  1.0000
  C   C1767     1.0  0.45813  0.96338  0.34961  1.0000
  H   H2907     1.0  0.35864  0.91327  0.42074  1.0000
  H   H2908     1.0  0.52750  0.75652  0.44212  1.0000
  C   C1768     1.0  0.63570  0.93077  0.14062  1.0000
  H   H2909     1.0  0.62502  0.91513  0.11473  1.0000
  H   H2910     1.0  0.46304  0.94821  0.35706  1.0000
  N   N125      1.0  0.48186  0.96995  0.20148  1.0000
  H   H2911     1.0  0.45277  0.95530  0.42234  1.0000
  H   H2912     1.0  0.35468  0.94712  0.44031  1.0000
  S   S508      1.0  0.42170  0.87242  0.39453  1.0000
  H   H2913     1.0  0.61657  0.81365  0.34361  1.0000
  H   H2914     1.0  0.38591  0.92993  0.41950  1.0000
  C   C1769     1.0  0.38472  0.92831  0.43534  1.0000
  H   H2915     1.0  0.63178  0.77516  0.31080  1.0000
  Fe  Fe252     1.0  0.54657  0.94029  0.23523  1.0000
  C   C1770     1.0  0.36710  0.93806  0.44708  1.0000
  C   C1771     1.0  0.44931  0.79098  0.38922  1.0000
  C   C1772     1.0  0.43644  0.80932  0.38402  1.0000
  C   C1773     1.0  0.44437  0.82692  0.37628  1.0000
  C   C1774     1.0  0.46524  0.82638  0.37386  1.0000
  C   C1775     1.0  0.47831  0.80790  0.37828  1.0000
  H   H2916     1.0  0.48042  0.77606  0.38974  1.0000
  H   H2917     1.0  0.42021  0.80999  0.38618  1.0000
  H   H2918     1.0  0.43424  0.84092  0.37228  1.0000
  C   C1776     1.0  0.52441  0.98451  0.24771  1.0000
  Fe  Fe253     1.0  0.36405  0.94935  0.00156  1.0000
  H   H2919     1.0  0.64069  0.89065  0.19172  1.0000
  H   H2920     1.0  0.47193  0.86487  0.44511  1.0000
  H   H2921     1.0  0.34171  0.91723  0.24355  1.0000
  N   N126      1.0  0.41150  0.98300  0.40606  1.0000
  H   H2922     1.0  0.34539  0.88832  0.26534  1.0000
  H   H2923     1.0  0.37583  0.75557  0.36960  1.0000
  H   H2924     1.0  0.61134  0.87795  0.14085  1.0000
  H   H2925     1.0  0.58094  0.84126  0.30273  1.0000
  H   H2926     1.0  0.49884  0.82819  0.42464  1.0000
  H   H2927     1.0  0.39000  0.94790  0.09005  1.0000
  H   H2928     1.0  0.48892  0.86067  0.42131  1.0000
  H   H2929     1.0  0.41222  0.90666  0.47134  1.0000
  H   H2930     1.0  0.63974  0.91625  0.18008  1.0000
  C   C1777     1.0  0.62352  0.88407  0.12898  1.0000
  H   H2931     1.0  0.58114  0.98449  0.15056  1.0000
  C   C1778     1.0  0.43589  0.95749  0.42733  1.0000
  H   H2932     1.0  0.43253  0.94293  0.43655  1.0000
  H   H2933     1.0  0.61312  0.83769  0.31406  1.0000
  H   H2934     1.0  0.52324  0.94862  0.19406  1.0000
  H   H2935     1.0  0.64576  0.97606  0.23527  1.0000
  C   C1779     1.0  0.35743  0.74750  0.39865  1.0000
  H   H2936     1.0  0.60685  0.74229  0.98684  1.0000
  H   H2937     1.0  0.49183  0.98109  0.01829  1.0000
  H   H2938     1.0  0.37304  0.97844  0.44977  1.0000
  C   C1780     1.0  0.62933  0.78206  0.34763  1.0000
  H   H2939     1.0  0.35729  0.92999  0.37779  1.0000
  C   C1781     1.0  0.58834  0.82631  0.30998  1.0000
  H   H2940     1.0  0.45012  0.97140  0.08478  1.0000
  Fe  Fe254     1.0  0.34248  0.98224  0.02534  1.0000
  H   H2941     1.0  0.65784  0.79338  0.46642  1.0000
  C   C1782     1.0  0.38524  0.97660  0.11781  1.0000
  C   C1783     1.0  0.37451  0.94754  0.08850  1.0000
  H   H2942     1.0  0.41279  0.74068  0.40108  1.0000
  H   H2943     1.0  0.45233  0.81945  0.41513  1.0000
  H   H2944     1.0  0.61352  0.98060  0.21718  1.0000
  H   H2945     1.0  0.62341  0.78086  0.36399  1.0000
  H   H2946     1.0  0.37378  0.95146  0.07249  1.0000
  C   C1784     1.0  0.42862  0.82405  0.44095  1.0000
  S   S509      1.0  0.42362  0.90505  0.43021  1.0000
  H   H2947     1.0  0.61622  0.83955  0.45468  1.0000
  C   C1785     1.0  0.47648  0.96771  0.18284  1.0000
  H   H2948     1.0  0.55871  0.75375  0.98859  1.0000
  H   H2949     1.0  0.38527  0.97126  0.38530  1.0000
  H   H2950     1.0  0.45854  0.85312  0.41172  1.0000
  C   C1786     1.0  0.65808  0.74314  0.29593  1.0000
  H   H2951     1.0  0.66417  0.92854  0.22108  1.0000
  H   H2952     1.0  0.42613  0.82381  0.45714  1.0000
  H   H2953     1.0  0.60089  0.79830  0.34048  1.0000
  N   N127      1.0  0.49677  0.91151  0.30323  1.0000
  C   C1787     1.0  0.50401  0.91004  0.32211  1.0000
  C   C1788     1.0  0.50010  0.93133  0.28996  1.0000
  C   C1789     1.0  0.51006  0.89482  0.29300  1.0000
  C   C1790     1.0  0.47462  0.90935  0.30876  1.0000
  C   C1791     1.0  0.50363  0.88997  0.33711  1.0000
  C   C1792     1.0  0.49043  0.94994  0.29959  1.0000
  C   C1793     1.0  0.50555  0.89357  0.27313  1.0000
  C   C1794     1.0  0.46122  0.92002  0.29331  1.0000
  H   H2954     1.0  0.51990  0.91290  0.31849  1.0000
  H   H2955     1.0  0.49439  0.92174  0.33060  1.0000
  H   H2956     1.0  0.49424  0.93392  0.27614  1.0000
  H   H2957     1.0  0.51675  0.93147  0.28465  1.0000
  H   H2958     1.0  0.52650  0.89584  0.29013  1.0000
  H   H2959     1.0  0.50874  0.87990  0.30267  1.0000
  H   H2960     1.0  0.47341  0.89323  0.31245  1.0000
  H   H2961     1.0  0.46661  0.91510  0.32269  1.0000
  H   H2962     1.0  0.51632  0.87796  0.33203  1.0000
  H   H2963     1.0  0.50578  0.89181  0.35160  1.0000
  H   H2964     1.0  0.48886  0.88502  0.34011  1.0000
  H   H2965     1.0  0.48893  0.96356  0.28774  1.0000
  H   H2966     1.0  0.47505  0.94900  0.30888  1.0000
  H   H2967     1.0  0.50022  0.95204  0.30893  1.0000
  H   H2968     1.0  0.51762  0.88198  0.26644  1.0000
  H   H2969     1.0  0.50583  0.90772  0.26202  1.0000
  H   H2970     1.0  0.49094  0.88846  0.27562  1.0000
  H   H2971     1.0  0.45818  0.93653  0.29184  1.0000
  H   H2972     1.0  0.44607  0.91550  0.29868  1.0000
  H   H2973     1.0  0.46768  0.91619  0.27839  1.0000
  N   N128      1.0  0.55629  0.84829  0.19971  1.0000
  C   C1795     1.0  0.56886  0.86298  0.20017  1.0000
  C   C1796     1.0  0.53436  0.85561  0.20921  1.0000
  C   C1797     1.0  0.55730  0.84649  0.17860  1.0000
  C   C1798     1.0  0.56467  0.82806  0.21096  1.0000
  C   C1799     1.0  0.59128  0.85939  0.18871  1.0000
  C   C1800     1.0  0.53013  0.85639  0.23162  1.0000
  C   C1801     1.0  0.55169  0.86634  0.16411  1.0000
  C   C1802     1.0  0.55225  0.81149  0.21442  1.0000
  H   H2974     1.0  0.56164  0.87858  0.19445  1.0000
  H   H2975     1.0  0.56945  0.86292  0.21578  1.0000
  H   H2976     1.0  0.52418  0.84637  0.20732  1.0000
  H   H2977     1.0  0.52874  0.87109  0.20162  1.0000
  H   H2978     1.0  0.57276  0.83878  0.17190  1.0000
  H   H2979     1.0  0.54672  0.83687  0.17836  1.0000
  H   H2980     1.0  0.58039  0.82205  0.20323  1.0000
  H   H2981     1.0  0.56621  0.82939  0.22579  1.0000
  H   H2982     1.0  0.60006  0.84473  0.19483  1.0000
  H   H2983     1.0  0.59258  0.86065  0.17252  1.0000
  H   H2984     1.0  0.59878  0.87108  0.19035  1.0000
  H   H2985     1.0  0.51353  0.86178  0.23687  1.0000
  H   H2986     1.0  0.53418  0.84150  0.24105  1.0000
  H   H2987     1.0  0.53812  0.86708  0.23441  1.0000
  H   H2988     1.0  0.53555  0.87374  0.16859  1.0000
  H   H2989     1.0  0.55344  0.86307  0.14905  1.0000
  H   H2990     1.0  0.56184  0.87700  0.16236  1.0000
  H   H2991     1.0  0.53688  0.81498  0.22398  1.0000
  H   H2992     1.0  0.56040  0.79739  0.22247  1.0000
  H   H2993     1.0  0.55086  0.80831  0.20024  1.0000
  H   H2994     1.0  0.61946  0.78266  0.27761  1.0000
  H   H2995     1.0  0.34975  0.88809  0.98397  1.0000
  H   H2996     1.0  0.65553  0.74458  0.28110  1.0000
  H   H2997     1.0  0.53358  0.90714  0.19076  1.0000
  C   C1803     1.0  0.40099  0.97308  0.37743  1.0000
  C   C1804     1.0  0.63251  0.89770  0.16266  1.0000
  H   H2998     1.0  0.55004  0.96743  0.09353  1.0000
  C   C1805     1.0  0.61444  0.94195  0.14973  1.0000
  C   C1806     1.0  0.61140  0.82590  0.30679  1.0000
  C   C1807     1.0  0.65893  0.93677  0.20766  1.0000
  H   H2999     1.0  0.63528  0.88127  0.16324  1.0000
  H   H3000     1.0  0.60706  0.91181  0.13700  1.0000
  H   H3001     1.0  0.34430  0.98554  0.07085  1.0000
  H   H3002     1.0  0.60280  0.94254  0.14119  1.0000
  H   H3003     1.0  0.60928  0.93557  0.16571  1.0000
  H   H3004     1.0  0.61523  0.95775  0.14882  1.0000
  H   H3005     1.0  0.64415  0.78726  0.27701  1.0000
  H   H3006     1.0  0.33762  0.91316  0.45138  1.0000
  C   C1808     1.0  0.48498  0.98224  0.03400  1.0000
  H   H3007     1.0  0.59834  0.77667  0.43668  1.0000
  C   C1809     1.0  0.59788  0.75774  0.98354  1.0000
  H   H3008     1.0  0.50099  0.91488  0.17914  1.0000
  H   H3009     1.0  0.58907  0.82797  0.44811  1.0000
  H   H3010     1.0  0.47464  0.97777  0.24011  1.0000
  H   H3011     1.0  0.33731  0.89462  0.38823  1.0000
  H   H3012     1.0  0.50620  0.98006  0.20826  1.0000
  C   C1810     1.0  0.65959  0.90058  0.13235  1.0000
  C   C1811     1.0  0.60616  0.75911  0.46422  1.0000
  H   H3013     1.0  0.66225  0.75296  0.43439  1.0000
  H   H3014     1.0  0.37510  0.87805  0.42748  1.0000
  H   H3015     1.0  0.64051  0.96723  0.15985  1.0000
  C   C1812     1.0  0.48484  0.95003  0.21565  1.0000
  H   H3016     1.0  0.53433  0.97015  0.18315  1.0000
  C   C1813     1.0  0.62189  0.78939  0.30532  1.0000
  H   H3017     1.0  0.36360  0.90208  0.39972  1.0000
  H   H3018     1.0  0.45516  0.80111  0.43697  1.0000
  H   H3019     1.0  0.45444  0.95967  0.17061  1.0000
  H   H3020     1.0  0.51947  0.96314  0.16974  1.0000
  C   C1814     1.0  0.43996  0.97777  0.07449  1.0000
  H   H3021     1.0  0.55378  0.74421  0.39358  1.0000
  H   H3022     1.0  0.49537  0.95008  0.22519  1.0000
  C   C1815     1.0  0.50170  0.97760  0.19518  1.0000
  H   H3023     1.0  0.63975  0.93872  0.12501  1.0000
  H   H3024     1.0  0.63884  0.79052  0.45575  1.0000
  C   C1816     1.0  0.65417  0.81501  0.43997  1.0000
  Fe  Fe255     1.0  0.48830  0.96905  0.12532  1.0000
  C   C1817     1.0  0.46639  0.97912  0.35166  1.0000
  C   C1818     1.0  0.62747  0.79205  0.28239  1.0000
  S   S510      1.0  0.39309  0.96141  0.99178  1.0000
  C   C1819     1.0  0.45679  0.95980  0.18558  1.0000
  C   C1820     1.0  0.64438  0.90081  0.17710  1.0000
  H   H3025     1.0  0.51145  0.79507  0.41985  1.0000
  H   H3026     1.0  0.45099  0.95024  0.22545  1.0000
  C   C1821     1.0  0.64473  0.80218  0.45965  1.0000
  H   H3027     1.0  0.41762  0.95067  0.41008  1.0000
  H   H3028     1.0  0.56124  0.97150  0.13498  1.0000
  S   S511      1.0  0.63613  0.77958  0.40878  1.0000
  C   C1822     1.0  0.63083  0.76616  0.43328  1.0000
  H   H3029     1.0  0.43358  0.74764  0.37167  1.0000
  H   H3030     1.0  0.65215  0.81742  0.27709  1.0000
  H   H3031     1.0  0.38740  0.96003  0.12078  1.0000
  C   C1823     1.0  0.33858  0.91483  0.32453  1.0000
  H   H3032     1.0  0.41158  0.95839  0.37837  1.0000
  H   H3033     1.0  0.43839  0.96187  0.39559  1.0000
  H   H3034     1.0  0.58073  0.82426  0.32599  1.0000
  C   C1824     1.0  0.62309  0.90593  0.13009  1.0000
  H   H3035     1.0  0.62228  0.80742  0.27460  1.0000
  C   C1825     1.0  0.42228  0.75092  0.36209  1.0000
  H   H3036     1.0  0.49451  0.80732  0.37618  1.0000
  C   C1826     1.0  0.40097  0.91690  0.44413  1.0000
  C   C1827     1.0  0.33548  0.89578  0.33498  1.0000
  C   C1828     1.0  0.59988  0.97077  0.08763  1.0000
  C   C1829     1.0  0.64640  0.80776  0.31011  1.0000
  H   H3037     1.0  0.52740  0.75763  0.41664  1.0000
  H   H3038     1.0  0.52053  0.97671  0.27973  1.0000
  H   H3039     1.0  0.44300  0.96946  0.19273  1.0000
  C   C1830     1.0  0.61683  0.80091  0.33658  1.0000
  H   H3040     1.0  0.62768  0.76814  0.34386  1.0000
  H   H3041     1.0  0.35122  0.76095  0.40562  1.0000
  H   H3042     1.0  0.64576  0.78263  0.34490  1.0000
  H   H3043     1.0  0.49253  0.93780  0.20714  1.0000
  H   H3044     1.0  0.37234  0.93178  0.09384  1.0000
  H   H3045     1.0  0.44396  0.85610  0.43597  1.0000
  H   H3046     1.0  0.58175  0.97362  0.28051  1.0000
  C   C1831     1.0  0.35751  0.96111  0.10086  1.0000
  H   H3047     1.0  0.61597  0.90180  0.16915  1.0000
  C   C1832     1.0  0.48983  0.74516  0.47294  1.0000
  S   S512      1.0  0.33594  0.97536  0.26871  1.0000
  H   H3048     1.0  0.65001  0.84595  0.45692  1.0000
  C   C1833     1.0  0.42574  0.96296  0.40901  1.0000
  H   H3049     1.0  0.33454  0.94090  0.40890  1.0000
  S   S513      1.0  0.49269  0.97958  0.09209  1.0000
  H   H3050     1.0  0.47758  0.97608  0.36084  1.0000
  H   H3051     1.0  0.63830  0.87393  0.13043  1.0000
  H   H3052     1.0  0.40389  0.73600  0.35275  1.0000
  H   H3053     1.0  0.45042  0.98189  0.21509  1.0000
  H   H3054     1.0  0.62089  0.88365  0.11421  1.0000
  H   H3055     1.0  0.61659  0.83134  0.29058  1.0000
  C   C1834     1.0  0.66541  0.90494  0.10931  1.0000
  H   H3056     1.0  0.66115  0.89735  0.17161  1.0000
  H   H3057     1.0  0.66372  0.88408  0.13737  1.0000
  C   C1835     1.0  0.62199  0.74854  0.47390  1.0000
  C   C1836     1.0  0.60115  0.81651  0.45443  1.0000
  C   C1837     1.0  0.36586  0.93631  0.46756  1.0000
  H   H3058     1.0  0.58298  0.73859  0.42892  1.0000
  H   H3059     1.0  0.39138  0.98066  0.08591  1.0000
  H   H3060     1.0  0.46922  0.97938  0.03700  1.0000
  H   H3061     1.0  0.58219  0.96536  0.25820  1.0000
  Fe  Fe256     1.0  0.45802  0.73968  0.40936  1.0000
  H   H3062     1.0  0.33728  0.95083  0.37296  1.0000
  H   H3063     1.0  0.43104  0.96839  0.43739  1.0000
  C   C1838     1.0  0.60448  0.98428  0.25487  1.0000
  N   N129      1.0  0.62877  0.81294  0.47453  1.0000
  S   S514      1.0  0.34374  0.97912  0.99397  1.0000
  H   H3064     1.0  0.65445  0.73754  0.47037  1.0000
  H   H3065     1.0  0.37064  0.98537  0.06389  1.0000
  H   H3066     1.0  0.47525  0.98225  0.17210  1.0000
  C   C1839     1.0  0.34052  0.93458  0.37950  1.0000
  H   H3067     1.0  0.45229  0.83348  0.46516  1.0000
  H   H3068     1.0  0.65992  0.92077  0.10280  1.0000
  H   H3069     1.0  0.49407  0.83615  0.45347  1.0000
  H   H3070     1.0  0.52266  0.98245  0.02835  1.0000
  H   H3071     1.0  0.59052  0.76047  0.47232  1.0000
  H   H3072     1.0  0.43115  0.75297  0.34645  1.0000
  H   H3073     1.0  0.40028  0.98021  0.11709  1.0000
  C   C1840     1.0  0.66494  0.73943  0.33427  1.0000
  H   H3074     1.0  0.64357  0.82856  0.43449  1.0000
  H   H3075     1.0  0.37443  0.98264  0.13050  1.0000
  S   S515      1.0  0.53837  0.74134  0.28944  1.0000
  H   H3076     1.0  0.49479  0.81063  0.46715  1.0000
  H   H3077     1.0  0.59351  0.80449  0.46446  1.0000
  H   H3078     1.0  0.65847  0.80610  0.42792  1.0000
  H   H3079     1.0  0.60530  0.78789  0.97877  1.0000
  C   C1841     1.0  0.61314  0.77204  0.97912  1.0000
  H   H3080     1.0  0.59927  0.83288  0.47740  1.0000
  H   H3081     1.0  0.33335  0.93025  0.26385  1.0000
  H   H3082     1.0  0.57438  0.98524  0.22936  1.0000
  H   H3083     1.0  0.35067  0.98499  0.35559  1.0000
  C   C1842     1.0  0.63018  0.92388  0.62471  1.0000
  Fe  Fe257     1.0  0.54154  0.76862  0.51649  1.0000
  C   C1843     1.0  0.57703  0.78166  0.96171  1.0000
  Fe  Fe258     1.0  0.56519  0.79315  0.53022  1.0000
  S   S516      1.0  0.56575  0.82561  0.52908  1.0000
  H   H3084     1.0  0.33617  0.88623  0.95520  1.0000
  C   C1844     1.0  0.58500  0.74689  0.84868  1.0000
  S   S517      1.0  0.56867  0.78308  0.50154  1.0000
  Fe  Fe259     1.0  0.62764  0.88829  0.55526  1.0000
  S   S518      1.0  0.59531  0.90482  0.56239  1.0000
  S   S519      1.0  0.63678  0.85791  0.54620  1.0000
  Fe  Fe260     1.0  0.64478  0.92024  0.56530  1.0000
  S   S520      1.0  0.61376  0.93909  0.57364  1.0000
  S   S521      1.0  0.34477  0.94860  0.48299  1.0000
  Fe  Fe261     1.0  0.60397  0.90996  0.58899  1.0000
  S   S522      1.0  0.58418  0.90548  0.61986  1.0000
  Fe  Fe262     1.0  0.60812  0.93226  0.54633  1.0000
  S   S523      1.0  0.59250  0.95530  0.52426  1.0000
  S   S524      1.0  0.63564  0.89146  0.58319  1.0000
  S   S525      1.0  0.63975  0.91545  0.53674  1.0000
  S   S526      1.0  0.50008  0.73928  0.87941  1.0000
  C   C1845     1.0  0.63559  0.77871  0.81414  1.0000
  H   H3085     1.0  0.34805  0.94167  0.88975  1.0000
  S   S527      1.0  0.51580  0.75855  0.96050  1.0000
  H   H3086     1.0  0.45534  0.95030  0.68613  1.0000
  S   S528      1.0  0.50853  0.97618  0.63409  1.0000
  C   C1846     1.0  0.63214  0.98232  0.63704  1.0000
  H   H3087     1.0  0.61600  0.91788  0.62864  1.0000
  C   C1847     1.0  0.65886  0.73792  0.84401  1.0000
  H   H3088     1.0  0.33919  0.94941  0.78927  1.0000
  H   H3089     1.0  0.35224  0.91899  0.86868  1.0000
  S   S529      1.0  0.35884  0.87789  0.89165  1.0000
  H   H3090     1.0  0.60639  0.80449  0.50136  1.0000
  C   C1848     1.0  0.53629  0.74972  0.82469  1.0000
  H   H3091     1.0  0.38784  0.92186  0.86942  1.0000
  Fe  Fe263     1.0  0.35494  0.84664  0.90658  1.0000
  S   S530      1.0  0.37911  0.82253  0.91917  1.0000
  C   C1849     1.0  0.56974  0.74759  0.97594  1.0000
  C   C1850     1.0  0.33440  0.91760  0.94244  1.0000
  S   S531      1.0  0.51333  0.79278  0.87287  1.0000
  Fe  Fe264     1.0  0.51580  0.77121  0.92812  1.0000
  S   S532      1.0  0.52167  0.80210  0.91344  1.0000
  H   H3092     1.0  0.43238  0.86961  0.91608  1.0000
  Fe  Fe265     1.0  0.49459  0.80486  0.90002  1.0000
  S   S533      1.0  0.47107  0.83331  0.89527  1.0000
  Fe  Fe266     1.0  0.53980  0.78739  0.88772  1.0000
  S   S534      1.0  0.57093  0.79148  0.86945  1.0000
  H   H3093     1.0  0.63619  0.76184  0.78311  1.0000
  C   C1851     1.0  0.40444  0.88769  0.95867  1.0000
  H   H3094     1.0  0.64789  0.74575  0.85491  1.0000
  H   H3095     1.0  0.58941  0.79607  0.80340  1.0000
  H   H3096     1.0  0.64220  0.78405  0.82427  1.0000
  H   H3097     1.0  0.60536  0.74469  0.92092  1.0000
  H   H3098     1.0  0.37855  0.85041  0.95220  1.0000
  H   H3099     1.0  0.33391  0.94936  0.93386  1.0000
  S   S535      1.0  0.53609  0.75623  0.90353  1.0000
  H   H3100     1.0  0.59096  0.75263  0.85895  1.0000
  H   H3101     1.0  0.37099  0.95048  0.87851  1.0000
  H   H3102     1.0  0.56851  0.77791  0.79371  1.0000
  H   H3103     1.0  0.35944  0.91665  0.80241  1.0000
  H   H3104     1.0  0.59067  0.76283  0.78065  1.0000
  C   C1852     1.0  0.39365  0.90180  0.91328  1.0000
  C   C1853     1.0  0.57950  0.95315  0.66947  1.0000
  C   C1854     1.0  0.61971  0.79730  0.49097  1.0000
  C   C1855     1.0  0.35469  0.95311  0.87754  1.0000
  H   H3105     1.0  0.61918  0.76081  0.83867  1.0000
  H   H3106     1.0  0.62572  0.77280  0.51556  1.0000
  Fe  Fe267     1.0  0.66386  0.78493  0.90668  1.0000
  C   C1856     1.0  0.59405  0.94636  0.65083  1.0000
  H   H3107     1.0  0.35214  0.96551  0.81538  1.0000
  C   C1857     1.0  0.36063  0.92876  0.85602  1.0000
  H   H3108     1.0  0.48570  0.74416  0.57518  1.0000
  C   C1858     1.0  0.40439  0.82623  0.91276  1.0000
  C   C1859     1.0  0.41046  0.84193  0.89762  1.0000
  C   C1860     1.0  0.43097  0.84407  0.89242  1.0000
  C   C1861     1.0  0.44546  0.83051  0.90229  1.0000
  C   C1862     1.0  0.43933  0.81494  0.91754  1.0000
  C   C1863     1.0  0.41886  0.81274  0.92269  1.0000
  H   H3109     1.0  0.39947  0.85215  0.88964  1.0000
  H   H3110     1.0  0.43569  0.85610  0.88054  1.0000
  H   H3111     1.0  0.45031  0.80470  0.92553  1.0000
  H   H3112     1.0  0.41419  0.80061  0.93447  1.0000
  C   C1864     1.0  0.61484  0.79799  0.90521  1.0000
  C   C1865     1.0  0.59398  0.80616  0.91033  1.0000
  C   C1866     1.0  0.58031  0.80408  0.89955  1.0000
  C   C1867     1.0  0.58759  0.79441  0.88321  1.0000
  C   C1868     1.0  0.60855  0.78713  0.87754  1.0000
  C   C1869     1.0  0.62211  0.78889  0.88851  1.0000
  H   H3113     1.0  0.58840  0.81416  0.92256  1.0000
  H   H3114     1.0  0.56423  0.81029  0.90364  1.0000
  H   H3115     1.0  0.61439  0.77984  0.86486  1.0000
  H   H3116     1.0  0.63820  0.78324  0.88391  1.0000
  H   H3117     1.0  0.39541  0.91485  0.91839  1.0000
  H   H3118     1.0  0.35757  0.92582  0.84244  1.0000
  C   C1870     1.0  0.34381  0.92126  0.80993  1.0000
  C   C1871     1.0  0.33536  0.90904  0.82750  1.0000
  C   C1872     1.0  0.39247  0.88300  0.92992  1.0000
  H   H3119     1.0  0.61141  0.78654  0.78699  1.0000
  S   S536      1.0  0.48710  0.77519  0.91704  1.0000
  H   H3120     1.0  0.63698  0.92256  0.60894  1.0000
  S   S537      1.0  0.51489  0.77393  0.50127  1.0000
  S   S538      1.0  0.53634  0.78122  0.54415  1.0000
  C   C1873     1.0  0.56296  0.92495  0.62369  1.0000
  C   C1874     1.0  0.55494  0.92920  0.64289  1.0000
  C   C1875     1.0  0.53859  0.94530  0.64608  1.0000
  C   C1876     1.0  0.52944  0.95643  0.63027  1.0000
  C   C1877     1.0  0.53684  0.95157  0.61126  1.0000
  C   C1878     1.0  0.55392  0.93618  0.60784  1.0000
  H   H3121     1.0  0.56156  0.92022  0.65528  1.0000
  H   H3122     1.0  0.53272  0.94879  0.66086  1.0000
  H   H3123     1.0  0.59447  0.93015  0.65279  1.0000
  H   H3124     1.0  0.55983  0.93277  0.59303  1.0000
  H   H3125     1.0  0.42011  0.84923  0.96182  1.0000
  C   C1879     1.0  0.61436  0.74618  0.80822  1.0000
  H   H3126     1.0  0.46556  0.75798  0.82894  1.0000
  H   H3127     1.0  0.57280  0.78907  0.97491  1.0000
  H   H3128     1.0  0.45632  0.75023  0.88449  1.0000
  H   H3129     1.0  0.43256  0.95795  0.66710  1.0000
  C   C1880     1.0  0.45049  0.98345  0.67967  1.0000
  H   H3130     1.0  0.46207  0.87421  0.92686  1.0000
  H   H3131     1.0  0.60196  0.98182  0.63402  1.0000
  S   S539      1.0  0.58518  0.76570  0.54373  1.0000
  H   H3132     1.0  0.49503  0.75880  0.55118  1.0000
  H   H3133     1.0  0.62453  0.77100  0.96497  1.0000
  H   H3134     1.0  0.39033  0.91932  0.95020  1.0000
  C   C1881     1.0  0.36537  0.96376  0.84132  1.0000
  H   H3135     1.0  0.55401  0.80312  0.94724  1.0000
  C   C1882     1.0  0.63819  0.82471  0.48393  1.0000
  H   H3136     1.0  0.61325  0.91954  0.68745  1.0000
  H   H3137     1.0  0.41452  0.97727  0.65640  1.0000
  H   H3138     1.0  0.64699  0.76572  0.80936  1.0000
  H   H3139     1.0  0.40619  0.89857  0.90036  1.0000
  H   H3140     1.0  0.60573  0.78579  0.83248  1.0000
  H   H3141     1.0  0.47735  0.76449  0.84564  1.0000
  H   H3142     1.0  0.53586  0.98258  0.56652  1.0000
  H   H3143     1.0  0.38112  0.96155  0.84382  1.0000
  C   C1883     1.0  0.33741  0.93596  0.94477  1.0000
  C   C1884     1.0  0.58621  0.83398  0.53314  1.0000
  C   C1885     1.0  0.58433  0.85455  0.53221  1.0000
  C   C1886     1.0  0.59986  0.86197  0.53596  1.0000
  C   C1887     1.0  0.61753  0.84889  0.54058  1.0000
  C   C1888     1.0  0.61965  0.82830  0.54119  1.0000
  C   C1889     1.0  0.60394  0.82081  0.53764  1.0000
  H   H3144     1.0  0.57070  0.86482  0.52864  1.0000
  H   H3145     1.0  0.59821  0.87788  0.53506  1.0000
  H   H3146     1.0  0.63327  0.81807  0.54481  1.0000
  H   H3147     1.0  0.60543  0.80489  0.53861  1.0000
  C   C1890     1.0  0.40877  0.97143  0.68860  1.0000
  H   H3148     1.0  0.41716  0.81099  0.84604  1.0000
  H   H3149     1.0  0.44567  0.77233  0.91123  1.0000
  C   C1891     1.0  0.40978  0.85444  0.95103  1.0000
  H   H3150     1.0  0.44502  0.96534  0.63114  1.0000
  H   H3151     1.0  0.62307  0.84832  0.59643  1.0000
  C   C1892     1.0  0.40521  0.91020  0.95310  1.0000
  H   H3152     1.0  0.56944  0.74431  0.85663  1.0000
  C   C1893     1.0  0.38914  0.84839  0.96233  1.0000
  C   C1894     1.0  0.38356  0.92066  0.85573  1.0000
  C   C1895     1.0  0.62655  0.94599  0.62640  1.0000
  H   H3153     1.0  0.33838  0.93179  0.75514  1.0000
  C   C1896     1.0  0.61520  0.77267  0.82592  1.0000
  H   H3154     1.0  0.34718  0.97377  0.89800  1.0000
  C   C1897     1.0  0.56810  0.98101  0.56770  1.0000
  C   C1898     1.0  0.62433  0.91942  0.67294  1.0000
  Fe  Fe268     1.0  0.50795  0.76291  0.89104  1.0000
  H   H3155     1.0  0.61298  0.76191  0.94319  1.0000
  H   H3156     1.0  0.39216  0.87090  0.92228  1.0000
  H   H3157     1.0  0.46404  0.74372  0.85368  1.0000
  H   H3158     1.0  0.63381  0.79126  0.80136  1.0000
  C   C1899     1.0  0.52184  0.75249  0.84226  1.0000
  S   S540      1.0  0.55991  0.73912  0.52876  1.0000
  H   H3159     1.0  0.53963  0.76257  0.81328  1.0000
  H   H3160     1.0  0.64361  0.94065  0.65644  1.0000
  C   C1900     1.0  0.55155  0.97799  0.55809  1.0000
  C   C1901     1.0  0.62698  0.94101  0.66242  1.0000
  C   C1902     1.0  0.60145  0.75218  0.94990  1.0000
  Fe  Fe269     1.0  0.58668  0.75458  0.51591  1.0000
  H   H3161     1.0  0.35868  0.97983  0.84162  1.0000
  H   H3162     1.0  0.58992  0.97334  0.59757  1.0000
  N   N130      1.0  0.44086  0.77933  0.87110  1.0000
  C   C1903     1.0  0.44109  0.76027  0.88673  1.0000
  C   C1904     1.0  0.44366  0.77347  0.85122  1.0000
  C   C1905     1.0  0.42008  0.79243  0.87586  1.0000
  C   C1906     1.0  0.45760  0.78934  0.87202  1.0000
  C   C1907     1.0  0.43628  0.76278  0.90871  1.0000
  C   C1908     1.0  0.46386  0.75911  0.84473  1.0000
  C   C1909     1.0  0.41583  0.81262  0.86156  1.0000
  C   C1910     1.0  0.46530  0.80460  0.85334  1.0000
  H   H3163     1.0  0.39339  0.92810  0.84237  1.0000
  Fe  Fe270     1.0  0.55665  0.75267  0.55554  1.0000
  H   H3164     1.0  0.44273  0.78663  0.83891  1.0000
  H   H3165     1.0  0.43094  0.76619  0.85131  1.0000
  H   H3166     1.0  0.40783  0.78417  0.87681  1.0000
  H   H3167     1.0  0.41738  0.79642  0.89071  1.0000
  H   H3168     1.0  0.45280  0.79712  0.88488  1.0000
  H   H3169     1.0  0.47132  0.77785  0.87500  1.0000
  H   H3170     1.0  0.62630  0.74313  0.77691  1.0000
  H   H3171     1.0  0.42554  0.82290  0.86209  1.0000
  H   H3172     1.0  0.58560  0.76547  0.92504  1.0000
  C   C1911     1.0  0.34517  0.93705  0.96101  1.0000
  H   H3173     1.0  0.43007  0.75156  0.88546  1.0000
  C   C1912     1.0  0.61240  0.97366  0.64426  1.0000
  N   N131      1.0  0.35294  0.95050  0.85750  1.0000
  H   H3174     1.0  0.45093  0.85452  0.94360  1.0000
  C   C1913     1.0  0.59775  0.78212  0.79772  1.0000
  H   H3175     1.0  0.46725  0.81785  0.85823  1.0000
  H   H3176     1.0  0.45523  0.81038  0.84252  1.0000
  H   H3177     1.0  0.48075  0.79816  0.84547  1.0000
  N   N132      1.0  0.57143  0.84917  0.59802  1.0000
  C   C1914     1.0  0.59128  0.85649  0.59390  1.0000
  C   C1915     1.0  0.55680  0.86567  0.58779  1.0000
  C   C1916     1.0  0.57578  0.83054  0.58920  1.0000
  C   C1917     1.0  0.56394  0.84455  0.62032  1.0000
  C   C1918     1.0  0.60963  0.84094  0.60037  1.0000
  C   C1919     1.0  0.54987  0.88508  0.59640  1.0000
  C   C1920     1.0  0.55779  0.82479  0.58400  1.0000
  C   C1921     1.0  0.54267  0.83887  0.62805  1.0000
  H   H3178     1.0  0.59625  0.86220  0.57765  1.0000
  H   H3179     1.0  0.58945  0.86929  0.60137  1.0000
  H   H3180     1.0  0.54255  0.86086  0.58811  1.0000
  H   H3181     1.0  0.56364  0.86975  0.57158  1.0000
  H   H3182     1.0  0.58730  0.83205  0.57495  1.0000
  H   H3183     1.0  0.58274  0.81722  0.59921  1.0000
  H   H3184     1.0  0.57461  0.83175  0.62721  1.0000
  H   H3185     1.0  0.56427  0.85706  0.62740  1.0000
  H   H3186     1.0  0.60689  0.83529  0.61671  1.0000
  S   S541      1.0  0.50382  0.98540  0.68995  1.0000
  H   H3187     1.0  0.48457  0.73993  0.53206  1.0000
  H   H3188     1.0  0.54135  0.88246  0.61211  1.0000
  H   H3189     1.0  0.56273  0.89237  0.59536  1.0000
  H   H3190     1.0  0.53936  0.89604  0.58757  1.0000
  H   H3191     1.0  0.55268  0.83555  0.57103  1.0000
  H   H3192     1.0  0.54468  0.82332  0.59669  1.0000
  H   H3193     1.0  0.56310  0.81002  0.57927  1.0000
  H   H3194     1.0  0.54387  0.82243  0.63003  1.0000
  H   H3195     1.0  0.53164  0.84677  0.61849  1.0000
  H   H3196     1.0  0.53575  0.84340  0.64273  1.0000
  N   N133      1.0  0.40908  0.87638  0.94184  1.0000
  H   H3197     1.0  0.51416  0.76745  0.84436  1.0000
  H   H3198     1.0  0.65035  0.85153  0.48015  1.0000
  H   H3199     1.0  0.64687  0.77358  0.49506  1.0000
  H   H3200     1.0  0.62265  0.94984  0.67456  1.0000
  N   N134      1.0  0.61508  0.95124  0.64628  1.0000
  C   C1922     1.0  0.44817  0.87098  0.93818  1.0000
  C   C1923     1.0  0.34635  0.90149  0.97302  1.0000
  H   H3201     1.0  0.43984  0.74784  0.91832  1.0000
  H   H3202     1.0  0.57386  0.77645  0.83313  1.0000
  C   C1924     1.0  0.63121  0.74733  0.78891  1.0000
  H   H3203     1.0  0.64412  0.97369  0.64531  1.0000
  S   S542      1.0  0.61696  0.73967  0.49979  1.0000
  S   S543      1.0  0.33952  0.84255  0.88379  1.0000
  H   H3204     1.0  0.37915  0.90616  0.90779  1.0000
  C   C1925     1.0  0.49947  0.74672  0.56364  1.0000
  H   H3205     1.0  0.43017  0.89382  0.92019  1.0000
  H   H3206     1.0  0.55366  0.96177  0.55798  1.0000
  C   C1926     1.0  0.42380  0.97332  0.66810  1.0000
  H   H3207     1.0  0.57369  0.96954  0.66632  1.0000
  H   H3208     1.0  0.60337  0.73812  0.80588  1.0000
  H   H3209     1.0  0.62851  0.82708  0.49876  1.0000
  H   H3210     1.0  0.63911  0.91091  0.67676  1.0000
  H   H3211     1.0  0.52951  0.95991  0.59913  1.0000
  H   H3212     1.0  0.43227  0.97019  0.74531  1.0000
  C   C1927     1.0  0.42957  0.87822  0.92818  1.0000
  C   C1928     1.0  0.55845  0.73899  0.74689  1.0000
  H   H3213     1.0  0.34778  0.95119  0.96248  1.0000
  H   H3214     1.0  0.50872  0.75295  0.57057  1.0000
  H   H3215     1.0  0.62008  0.91069  0.66407  1.0000
  H   H3216     1.0  0.61412  0.82826  0.59228  1.0000
  S   S544      1.0  0.54664  0.73912  0.58825  1.0000
  C   C1929     1.0  0.46409  0.96250  0.68251  1.0000
  C   C1930     1.0  0.55713  0.78685  0.95369  1.0000
  H   H3217     1.0  0.38130  0.92358  0.49195  1.0000
  N   N135      1.0  0.60317  0.76563  0.81478  1.0000
  H   H3218     1.0  0.62136  0.73587  0.82030  1.0000
  H   H3219     1.0  0.41983  0.76877  0.91398  1.0000
  H   H3220     1.0  0.64197  0.94978  0.62238  1.0000
  H   H3221     1.0  0.33662  0.73973  0.87470  1.0000
  H   H3222     1.0  0.58311  0.97554  0.55834  1.0000
  H   H3223     1.0  0.38698  0.90447  0.85500  1.0000
  S   S545      1.0  0.63161  0.79842  0.92013  1.0000
  H   H3224     1.0  0.55754  0.77875  0.94195  1.0000
  H   H3225     1.0  0.59880  0.96429  0.70710  1.0000
  H   H3226     1.0  0.64123  0.91440  0.63373  1.0000
  H   H3227     1.0  0.58846  0.78974  0.95075  1.0000
  H   H3228     1.0  0.61858  0.95498  0.61433  1.0000
  H   H3229     1.0  0.37680  0.97170  0.80924  1.0000
  C   C1931     1.0  0.61670  0.98082  0.52552  1.0000
  C   C1932     1.0  0.63438  0.78317  0.50389  1.0000
  H   H3230     1.0  0.40843  0.91478  0.96584  1.0000
  H   H3231     1.0  0.58640  0.95334  0.63799  1.0000
  C   C1933     1.0  0.58332  0.76213  0.82902  1.0000
  H   H3232     1.0  0.41628  0.84513  0.93936  1.0000
  H   H3233     1.0  0.39980  0.82013  0.86672  1.0000
  C   C1934     1.0  0.58453  0.77748  0.78538  1.0000
  H   H3234     1.0  0.37722  0.88562  0.93997  1.0000
  S   S546      1.0  0.35084  0.88712  0.83789  1.0000
  H   H3235     1.0  0.58408  0.78920  0.77164  1.0000
  H   H3236     1.0  0.57401  0.75645  0.82178  1.0000
  H   H3237     1.0  0.64142  0.73679  0.96698  1.0000
  H   H3238     1.0  0.38885  0.88683  0.96776  1.0000
  C   C1935     1.0  0.59806  0.97975  0.69952  1.0000
  H   H3239     1.0  0.34157  0.74601  0.89567  1.0000
  H   H3240     1.0  0.47131  0.96069  0.69538  1.0000
  H   H3241     1.0  0.56598  0.94590  0.67368  1.0000
  C   C1936     1.0  0.36718  0.96136  0.81970  1.0000
  H   H3242     1.0  0.58682  0.94918  0.68252  1.0000
  C   C1937     1.0  0.34491  0.97389  0.88294  1.0000
  H   H3243     1.0  0.47670  0.96073  0.66935  1.0000
  H   H3244     1.0  0.44674  0.87887  0.95048  1.0000
  H   H3245     1.0  0.62254  0.96938  0.53707  1.0000
  H   H3246     1.0  0.57022  0.74339  0.73352  1.0000
  S   S547      1.0  0.55692  0.98123  0.70415  1.0000
  C   C1938     1.0  0.51027  0.75517  0.49114  1.0000
  C   C1939     1.0  0.33869  0.90039  0.95674  1.0000
  H   H3247     1.0  0.40001  0.95964  0.68988  1.0000
  H   H3248     1.0  0.60490  0.97833  0.65879  1.0000
  N   N136      1.0  0.58635  0.75975  0.96739  1.0000
  C   C1940     1.0  0.45798  0.96924  0.63506  1.0000
  Fe  Fe271     1.0  0.34041  0.87506  0.87079  1.0000
  H   H3249     1.0  0.46488  0.95635  0.64532  1.0000
  H   H3250     1.0  0.44047  0.98520  0.69438  1.0000
  H   H3251     1.0  0.41764  0.91412  0.94039  1.0000
  H   H3252     1.0  0.54388  0.78385  0.96602  1.0000
  C   C1941     1.0  0.34983  0.91976  0.97509  1.0000
  H   H3253     1.0  0.41431  0.88050  0.96971  1.0000
  C   C1942     1.0  0.49439  0.75987  0.48071  1.0000
  H   H3254     1.0  0.37462  0.94604  0.81711  1.0000
  H   H3255     1.0  0.64069  0.79130  0.51184  1.0000
  H   H3256     1.0  0.54714  0.75266  0.75023  1.0000
  C   C1943     1.0  0.60236  0.97743  0.51640  1.0000
  H   H3257     1.0  0.56052  0.74869  0.96485  1.0000
  H   H3258     1.0  0.61363  0.78733  0.48482  1.0000
  H   H3259     1.0  0.58189  0.74018  0.93718  1.0000
  C   C1944     1.0  0.51729  0.73592  0.85696  1.0000
  H   H3260     1.0  0.38156  0.85650  0.97474  1.0000
  H   H3261     1.0  0.61031  0.73705  0.95491  1.0000
  H   H3262     1.0  0.56725  0.97037  0.58221  1.0000
  C   C1945     1.0  0.59268  0.75064  0.93250  1.0000
  H   H3263     1.0  0.65332  0.81614  0.48689  1.0000
  H   H3264     1.0  0.39197  0.83214  0.96897  1.0000
  H   H3265     1.0  0.46976  0.97148  0.62108  1.0000
  H   H3266     1.0  0.63050  0.97852  0.69519  1.0000
  H   H3267     1.0  0.41671  0.96670  0.70127  1.0000
  S   S548      1.0  0.38892  0.97858  0.74786  1.0000
  H   H3268     1.0  0.48539  0.77487  0.47889  1.0000
  H   H3269     1.0  0.63807  0.98315  0.62073  1.0000
  H   H3270     1.0  0.39731  0.98538  0.69034  1.0000
  C   C1946     1.0  0.42824  0.98495  0.73653  1.0000
  H   H3271     1.0  0.47996  0.83089  0.47830  1.0000
  H   H3272     1.0  0.64505  0.73596  0.79170  1.0000
  H   H3273     1.0  0.79084  0.02472  0.30922  1.0000
  H   H3274     1.0  0.77323  0.02217  0.36283  1.0000
  H   H3275     1.0  0.93341  0.00928  0.05620  1.0000
  H   H3276     1.0  0.72878  0.14208  0.33060  1.0000
  C   C1947     1.0  0.77897  0.01837  0.34779  1.0000
  H   H3277     1.0  0.94169  0.03843  0.20765  1.0000
  S   S549      1.0  0.74731  0.21248  0.39683  1.0000
  H   H3278     1.0  0.69153  0.08250  0.45009  1.0000
  H   H3279     1.0  0.73448  0.18448  0.29128  1.0000
  H   H3280     1.0  0.88345  0.00172  0.16090  1.0000
  Fe  Fe272     1.0  0.74798  0.06129  0.39430  1.0000
  S   S550      1.0  0.76981  0.04577  0.41434  1.0000
  S   S551      1.0  0.73639  0.04788  0.37463  1.0000
  Fe  Fe273     1.0  0.74117  0.10167  0.40650  1.0000
  S   S552      1.0  0.76245  0.08990  0.42775  1.0000
  S   S553      1.0  0.71901  0.13124  0.40416  1.0000
  Fe  Fe274     1.0  0.78252  0.07401  0.40351  1.0000
  S   S554      1.0  0.81638  0.07017  0.39892  1.0000
  Fe  Fe275     1.0  0.74812  0.06279  0.43672  1.0000
  C   C1948     1.0  0.72575  0.13717  0.45416  1.0000
  S   S555      1.0  0.76264  0.08825  0.38119  1.0000
  S   S556      1.0  0.72501  0.07576  0.41770  1.0000
  H   H3281     1.0  0.73849  0.21245  0.32929  1.0000
  H   H3282     1.0  0.81248  0.05153  0.29802  1.0000
  C   C1949     1.0  0.85794  0.04392  0.35654  1.0000
  H   H3283     1.0  0.98250  0.23520  0.44369  1.0000
  C   C1950     1.0  0.91324  0.99952  0.24446  1.0000
  H   H3284     1.0  0.86581  0.05118  0.12627  1.0000
  H   H3285     1.0  0.79435  0.98767  0.35919  1.0000
  C   C1951     1.0  0.84374  0.03972  0.98181  1.0000
  H   H3286     1.0  0.73888  0.14297  0.45549  1.0000
  S   S557      1.0  0.95352  0.00291  0.08868  1.0000
  H   H3287     1.0  0.92103  0.06019  0.09424  1.0000
  H   H3288     1.0  0.92422  0.04507  0.11770  1.0000
  S   S558      1.0  0.88720  0.00660  0.44405  1.0000
  H   H3289     1.0  0.71205  0.20399  0.31607  1.0000
  H   H3290     1.0  0.69673  0.16009  0.34736  1.0000
  H   H3291     1.0  0.82746  0.02769  0.34025  1.0000
  C   C1952     1.0  0.70135  0.01018  0.44413  1.0000
  H   H3292     1.0  0.84195  0.07429  0.42130  1.0000
  H   H3293     1.0  0.80457  0.03610  0.37261  1.0000
  H   H3294     1.0  0.86183  0.02907  0.14425  1.0000
  S   S559      1.0  0.73820  0.05005  0.46906  1.0000
  H   H3295     1.0  0.75307  0.01314  0.40252  1.0000
  S   S560      1.0  0.92535  0.01184  0.18392  1.0000
  H   H3296     1.0  0.82406  0.02985  0.28720  1.0000
  H   H3297     1.0  0.68868  0.15971  0.47652  1.0000
  C   C1953     1.0  0.98970  0.00860  0.21669  1.0000
  C   C1954     1.0  0.91191  0.00780  0.22449  1.0000
  H   H3298     1.0  0.95211  0.03868  0.24436  1.0000
  C   C1955     1.0  0.79117  0.02762  0.00299  1.0000
  C   C1956     1.0  0.73891  0.99982  0.06349  1.0000
  S   S561      1.0  0.96084  0.02447  0.13245  1.0000
  H   H3299     1.0  0.97627  0.01381  0.26588  1.0000
  C   C1957     1.0  0.73698  0.18136  0.30676  1.0000
  C   C1958     1.0  0.74100  0.20350  0.34402  1.0000
  C   C1959     1.0  0.68799  0.08944  0.46342  1.0000
  H   H3300     1.0  0.70682  0.15911  0.36843  1.0000
  C   C1960     1.0  0.67720  0.19672  0.35207  1.0000
  H   H3301     1.0  0.77310  0.05429  0.31293  1.0000
  H   H3302     1.0  0.71449  0.15034  0.44890  1.0000
  H   H3303     1.0  0.83071  0.07930  0.32601  1.0000
  H   H3304     1.0  0.89078  0.00204  0.37501  1.0000
  S   S562      1.0  0.79793  0.00409  0.05614  1.0000
  Fe  Fe276     1.0  0.99339  0.01322  0.13581  1.0000
  C   C1961     1.0  0.78289  0.01408  0.99387  1.0000
  C   C1962     1.0  0.87122  0.06723  0.42928  1.0000
  H   H3305     1.0  0.98789  0.05631  0.15271  1.0000
  C   C1963     1.0  0.81360  0.07324  0.45393  1.0000
  C   C1964     1.0  0.85212  0.05497  0.33889  1.0000
  C   C1965     1.0  0.83511  0.07066  0.33969  1.0000
  H   H3306     1.0  0.84560  0.04059  0.42497  1.0000
  H   H3307     1.0  0.96488  0.05827  0.21258  1.0000
  C   C1966     1.0  0.90604  0.01187  0.13400  1.0000
  H   H3308     1.0  0.87761  0.03553  0.16630  1.0000
  N   N137      1.0  0.89040  0.02551  0.12276  1.0000
  C   C1967     1.0  0.88867  0.00407  0.40557  1.0000
  C   C1968     1.0  0.73569  0.18254  0.34808  1.0000
  H   H3309     1.0  0.89932  0.01979  0.22118  1.0000
  H   H3310     1.0  0.69955  0.19450  0.36933  1.0000
  S   S563      1.0  0.85655  0.00005  0.03769  1.0000
  C   C1969     1.0  0.82970  0.06416  0.37580  1.0000
  C   C1970     1.0  0.84695  0.04874  0.37496  1.0000
  C   C1971     1.0  0.82362  0.07497  0.35818  1.0000
  H   H3311     1.0  0.85175  0.04039  0.38854  1.0000
  H   H3312     1.0  0.81044  0.08705  0.35878  1.0000
  H   H3313     1.0  0.74377  0.16530  0.31033  1.0000
  H   H3314     1.0  0.87473  0.05131  0.42770  1.0000
  C   C1972     1.0  0.68145  0.13349  0.46917  1.0000
  H   H3315     1.0  0.87211  0.00273  0.12772  1.0000
  N   N138      1.0  0.71588  0.18194  0.34309  1.0000
  H   H3316     1.0  0.79905  0.01099  0.37903  1.0000
  C   C1973     1.0  0.73934  0.18967  0.40021  1.0000
  C   C1974     1.0  0.75377  0.17169  0.40053  1.0000
  C   C1975     1.0  0.74771  0.15349  0.40208  1.0000
  C   C1976     1.0  0.72716  0.15328  0.40358  1.0000
  C   C1977     1.0  0.71266  0.17112  0.40404  1.0000
  C   C1978     1.0  0.71875  0.18930  0.40222  1.0000
  H   H3317     1.0  0.76971  0.17191  0.39906  1.0000
  H   H3318     1.0  0.75895  0.13974  0.40179  1.0000
  H   H3319     1.0  0.69671  0.17095  0.40548  1.0000
  H   H3320     1.0  0.70750  0.20303  0.40245  1.0000
  S   S564      1.0  0.98545  0.99304  0.16544  1.0000
  H   H3321     1.0  0.96265  0.02517  0.19129  1.0000
  H   H3322     1.0  0.87904  0.06896  0.44047  1.0000
  C   C1979     1.0  0.84800  0.07556  0.43398  1.0000
  N   N139      1.0  0.70696  0.99694  0.46304  1.0000
  H   H3323     1.0  0.78287  0.02729  0.01874  1.0000
  H   H3324     1.0  0.72258  0.18470  0.98808  1.0000
  C   C1980     1.0  0.92696  0.00084  0.20883  1.0000
  H   H3325     1.0  0.70478  0.18122  0.31716  1.0000
  H   H3326     1.0  0.75557  0.01784  0.07176  1.0000
  H   H3327     1.0  0.99060  0.08096  0.17165  1.0000
  H   H3328     1.0  0.80419  0.06385  0.46607  1.0000
  C   C1981     1.0  0.72011  0.01707  0.37270  1.0000
  C   C1982     1.0  0.73270  0.02296  0.38197  1.0000
  H   H3329     1.0  0.73188  0.21186  0.35590  1.0000
  H   H3330     1.0  0.82444  0.01486  0.37550  1.0000
  S   S565      1.0  0.86458  0.99442  0.34538  1.0000
  H   H3331     1.0  0.71226  0.02795  0.36204  1.0000
  H   H3332     1.0  0.95092  0.00946  0.27048  1.0000
  H   H3333     1.0  0.89114  0.04734  0.98967  1.0000
  H   H3334     1.0  0.99888  0.16387  0.40406  1.0000
  C   C1983     1.0  0.88085  0.01234  0.11514  1.0000
  C   C1984     1.0  0.83692  0.03495  0.43997  1.0000
  H   H3335     1.0  0.81156  0.00714  0.31677  1.0000
  H   H3336     1.0  0.84222  0.01850  0.44290  1.0000
  H   H3337     1.0  0.68867  0.07688  0.47634  1.0000
  H   H3338     1.0  0.79085  0.22640  0.41014  1.0000
  S   S566      1.0  0.99824  0.98916  0.11800  1.0000
  H   H3339     1.0  0.87120  0.03196  0.35595  1.0000
  C   C1985     1.0  0.96546  0.00955  0.25915  1.0000
  H   H3340     1.0  0.88358  0.02016  0.40305  1.0000
  H   H3341     1.0  0.99567  0.99727  0.22891  1.0000
  C   C1986     1.0  0.72696  0.14320  0.34636  1.0000
  H   H3342     1.0  0.69294  0.04274  0.44289  1.0000
  C   C1987     1.0  0.80504  0.09533  0.45571  1.0000
  H   H3343     1.0  0.75730  0.20198  0.34443  1.0000
  H   H3344     1.0  0.77923  0.22756  0.44372  1.0000
  H   H3345     1.0  0.84614  0.09196  0.43303  1.0000
  H   H3346     1.0  0.72418  0.00684  0.07109  1.0000
  H   H3347     1.0  0.73167  0.12769  0.44265  1.0000
  C   C1988     1.0  0.90104  0.03857  0.10476  1.0000
  N   N140      1.0  0.83612  0.06610  0.45367  1.0000
  C   C1989     1.0  0.71641  0.18746  0.32091  1.0000
  H   H3348     1.0  0.89285  0.00184  0.10687  1.0000
  C   C1990     1.0  0.81004  0.02057  0.36991  1.0000
  H   H3349     1.0  0.95383  0.05137  0.18444  1.0000
  C   C1991     1.0  0.67026  0.11435  0.17741  1.0000
  H   H3350     1.0  0.68498  0.13928  0.45276  1.0000
  H   H3351     1.0  0.74890  0.17297  0.33999  1.0000
  C   C1992     1.0  0.79102  0.05005  0.33645  1.0000
  H   H3352     1.0  0.71865  0.09181  0.46317  1.0000
  S   S567      1.0  0.68756  0.99736  0.10268  1.0000
  C   C1993     1.0  0.70398  0.10227  0.46146  1.0000
  Fe  Fe277     1.0  0.86485  0.99099  0.00776  1.0000
  S   S568      1.0  0.91117  0.00013  0.32061  1.0000
  H   H3353     1.0  0.84161  0.03442  0.99779  1.0000
  H   H3354     1.0  0.74822  0.19040  0.30658  1.0000
  H   H3355     1.0  0.87420  0.02929  0.08609  1.0000
  C   C1994     1.0  0.77406  0.06145  0.32490  1.0000
  H   H3356     1.0  0.82043  0.03787  0.43980  1.0000
  H   H3357     1.0  0.80444  0.05753  0.33064  1.0000
  H   H3358     1.0  0.90174  0.00519  0.25641  1.0000
  H   H3359     1.0  0.98496  0.04767  0.19473  1.0000
  H   H3360     1.0  0.74568  0.00858  0.43911  1.0000
  H   H3361     1.0  0.80999  0.07138  0.44008  1.0000
  H   H3362     1.0  0.67566  0.11603  0.19036  1.0000
  H   H3363     1.0  0.95048  0.01811  0.23462  1.0000
  H   H3364     1.0  0.88999  0.04839  0.09584  1.0000
  H   H3365     1.0  0.68454  0.01269  0.44527  1.0000
  H   H3366     1.0  0.77712  0.07664  0.31751  1.0000
  C   C1995     1.0  0.81468  0.01958  0.34752  1.0000
  H   H3367     1.0  0.85863  0.06599  0.47011  1.0000
  H   H3368     1.0  0.70677  0.11031  0.44565  1.0000
  H   H3369     1.0  0.67221  0.09818  0.46453  1.0000
  S   S569      1.0  0.86543  0.04869  0.31585  1.0000
  H   H3370     1.0  0.91214  0.02912  0.09458  1.0000
  H   H3371     1.0  0.90789  0.99291  0.05019  1.0000
  C   C1996     1.0  0.89277  0.99385  0.38968  1.0000
  H   H3372     1.0  0.74180  0.14268  0.34999  1.0000
  C   C1997     1.0  0.95671  0.03914  0.19732  1.0000
  C   C1998     1.0  0.77590  0.99687  0.05427  1.0000
  H   H3373     1.0  0.76597  0.02459  0.34005  1.0000
  H   H3374     1.0  0.73552  0.17610  0.36412  1.0000
  C   C1999     1.0  0.69921  0.19683  0.35325  1.0000
  H   H3375     1.0  0.86996  0.06030  0.15385  1.0000
  Fe  Fe278     1.0  0.87878  0.01583  0.31956  1.0000
  H   H3376     1.0  0.72163  0.12940  0.35551  1.0000
  C   C2000     1.0  0.89790  0.99565  0.15125  1.0000
  H   H3377     1.0  0.87808  0.07574  0.41465  1.0000
  H   H3378     1.0  0.91872  0.00403  0.12364  1.0000
  C   C2001     1.0  0.97209  0.04403  0.20707  1.0000
  H   H3379     1.0  0.67560  0.19843  0.33647  1.0000
  C   C2002     1.0  0.74071  0.98854  0.39973  1.0000
  H   H3380     1.0  0.70156  0.21244  0.34677  1.0000
  H   H3381     1.0  0.91372  0.02021  0.14039  1.0000
  C   C2003     1.0  0.93548  0.99060  0.08504  1.0000
  Fe  Fe279     1.0  0.95322  0.00235  0.16087  1.0000
  C   C2004     1.0  0.80402  0.02313  0.31620  1.0000
  H   H3382     1.0  0.99539  0.17754  0.42337  1.0000
  H   H3383     1.0  0.78516  0.05316  0.35184  1.0000
  C   C2005     1.0  0.84086  0.04361  0.45648  1.0000
  H   H3384     1.0  0.82113  0.00367  0.34623  1.0000
  H   H3385     1.0  0.80755  0.02210  0.00336  1.0000
  C   C2006     1.0  0.84215  0.07200  0.47021  1.0000
  H   H3386     1.0  0.81555  0.98886  0.97901  1.0000
  H   H3387     1.0  0.85791  0.01211  0.09907  1.0000
  H   H3388     1.0  0.90194  0.06510  0.11575  1.0000
  H   H3389     1.0  0.78873  0.09901  0.45459  1.0000
  H   H3390     1.0  0.81311  0.10565  0.44344  1.0000
  Fe  Fe280     1.0  0.96483  0.99845  0.11735  1.0000
  C   C2007     1.0  0.71063  0.16145  0.35181  1.0000
  C   C2008     1.0  0.92800  0.99705  0.06734  1.0000
  C   C2009     1.0  0.75668  0.00607  0.06381  1.0000
  C   C2010     1.0  0.70663  0.03135  0.43840  1.0000
  H   H3391     1.0  0.71092  0.03544  0.42186  1.0000
  H   H3392     1.0  0.70842  0.00263  0.43114  1.0000
  H   H3393     1.0  0.67185  0.18304  0.36139  1.0000
  S   S570      1.0  0.87576  0.00062  0.29625  1.0000
  H   H3394     1.0  0.85412  0.03517  0.10745  1.0000
  N   N141      1.0  0.69840  0.11687  0.47548  1.0000
  C   C2011     1.0  0.77706  0.03104  0.47342  1.0000
  C   C2012     1.0  0.86594  0.02318  0.10120  1.0000
  H   H3395     1.0  0.68035  0.12142  0.16394  1.0000
  H   H3396     1.0  0.97106  0.99396  0.25658  1.0000
  H   H3397     1.0  0.85695  0.03762  0.45801  1.0000
  N   N142      1.0  0.97953  0.02808  0.22361  1.0000
  H   H3398     1.0  0.77892  0.02662  0.45929  1.0000
  C   C2013     1.0  0.87374  0.03799  0.13570  1.0000
  C   C2014     1.0  0.91261  0.05290  0.10876  1.0000
  H   H3399     1.0  0.83168  0.03684  0.47082  1.0000
  C   C2015     1.0  0.88014  0.04574  0.15155  1.0000
  C   C2016     1.0  0.96107  0.02433  0.23991  1.0000
  H   H3400     1.0  0.76592  0.01844  0.99705  1.0000
  H   H3401     1.0  0.83338  0.03356  0.30709  1.0000
  N   N143      1.0  0.79713  0.02781  0.33695  1.0000
  C   C2017     1.0  0.74297  0.00872  0.39564  1.0000
  H   H3402     1.0  0.70769  0.99284  0.36978  1.0000
  C   C2018     1.0  0.81931  0.03539  0.30149  1.0000
  H   H3403     1.0  0.84093  0.08850  0.46788  1.0000
  H   H3404     1.0  0.89593  0.04843  0.14772  1.0000
  C   C2019     1.0  0.89133  0.99352  0.42461  1.0000
  C   C2020     1.0  0.71756  0.99718  0.37704  1.0000
  H   H3405     1.0  0.88160  0.08334  0.97915  1.0000
  C   C2021     1.0  0.78254  0.99539  0.35038  1.0000
  H   H3406     1.0  0.76814  0.99023  0.35866  1.0000
  H   H3407     1.0  0.67707  0.98855  0.47228  1.0000
  H   H3408     1.0  0.71940  0.03305  0.44417  1.0000
  S   S571      1.0  0.87768  0.00960  0.97847  1.0000
  H   H3409     1.0  0.97554  0.23057  0.00948  1.0000
  H   H3410     1.0  0.97842  0.00195  0.21289  1.0000
  H   H3411     1.0  0.75889  0.06306  0.33524  1.0000
  C   C2022     1.0  0.99380  0.03539  0.23223  1.0000
  H   H3412     1.0  0.98507  0.04354  0.24450  1.0000
  C   C2023     1.0  0.74565  0.99847  0.45381  1.0000
  H   H3413     1.0  0.83128  0.99038  0.43939  1.0000
  H   H3414     1.0  0.67314  0.09829  0.17682  1.0000
  H   H3415     1.0  0.90930  0.98924  0.16084  1.0000
  H   H3416     1.0  0.80655  0.22150  0.44141  1.0000
  C   C2024     1.0  0.72886  0.98591  0.45917  1.0000
  H   H3417     1.0  0.80553  0.09811  0.47038  1.0000
  H   H3418     1.0  0.74484  0.00686  0.46552  1.0000
  H   H3419     1.0  0.78871  0.04353  0.99540  1.0000
  H   H3420     1.0  0.81793  0.06427  0.98387  1.0000
  H   H3421     1.0  0.78618  0.99878  0.00292  1.0000
  H   H3422     1.0  0.81888  0.98625  0.42203  1.0000
  H   H3423     1.0  0.86713  0.98758  0.25455  1.0000
  H   H3424     1.0  0.78660  0.99053  0.33580  1.0000
  H   H3425     1.0  0.76075  0.98816  0.45236  1.0000
  H   H3426     1.0  0.79387  0.23060  0.37730  1.0000
  H   H3427     1.0  0.99754  0.15097  0.42926  1.0000
  Fe  Fe281     1.0  0.87387  0.99029  0.47434  1.0000
  C   C2025     1.0  0.71710  0.12487  0.47453  1.0000
  H   H3428     1.0  0.67400  0.23143  0.45760  1.0000
  C   C2026     1.0  0.79365  0.23325  0.43692  1.0000
  H   H3429     1.0  0.66673  0.20960  0.35815  1.0000
  H   H3430     1.0  0.67389  0.02743  0.47471  1.0000
  H   H3431     1.0  0.99753  0.06517  0.21399  1.0000
  H   H3432     1.0  0.71262  0.02023  0.47555  1.0000
  H   H3433     1.0  0.81369  0.23425  0.40768  1.0000
  H   H3434     1.0  0.69677  0.23345  0.28722  1.0000
  C   C2027     1.0  0.91350  0.98784  0.06389  1.0000
  Fe  Fe282     1.0  0.82837  0.98744  0.04185  1.0000
  H   H3435     1.0  0.91415  0.05643  0.97774  1.0000
  H   H3436     1.0  0.66704  0.12780  0.47204  1.0000
  H   H3437     1.0  0.76199  0.05029  0.97806  1.0000
  C   C2028     1.0  0.70352  0.00828  0.47965  1.0000
  C   C2029     1.0  0.79646  0.02311  0.57630  1.0000
  S   S572      1.0  0.69732  0.15817  0.89807  1.0000
  H   H3438     1.0  0.80663  0.01484  0.47820  1.0000
  C   C2030     1.0  0.91337  0.01168  0.56825  1.0000
  H   H3439     1.0  0.82013  0.03578  0.58048  1.0000
  H   H3440     1.0  0.69102  0.02092  0.60664  1.0000
  C   C2031     1.0  0.90308  0.17535  0.91920  1.0000
  H   H3441     1.0  0.84361  0.99542  0.60557  1.0000
  S   S573      1.0  0.70505  0.03781  0.53346  1.0000
  S   S574      1.0  0.88786  0.13738  0.88201  1.0000
  S   S575      1.0  0.68197  0.21731  0.88110  1.0000
  Fe  Fe283     1.0  0.85878  0.12549  0.88593  1.0000
  Fe  Fe284     1.0  0.78292  0.01960  0.75594  1.0000
  S   S576      1.0  0.81222  0.00203  0.74114  1.0000
  S   S577      1.0  0.75073  0.02093  0.75284  1.0000
  Fe  Fe285     1.0  0.80475  0.03962  0.77651  1.0000
  S   S578      1.0  0.83598  0.02418  0.76277  1.0000
  S   S579      1.0  0.79518  0.05928  0.79986  1.0000
  Fe  Fe286     1.0  0.82398  0.03068  0.73461  1.0000
  S   S580      1.0  0.83922  0.04113  0.70262  1.0000
  C   C2032     1.0  0.89971  0.05434  0.97508  1.0000
  S   S581      1.0  0.79394  0.04869  0.74757  1.0000
  S   S582      1.0  0.79129  0.01186  0.78596  1.0000
  H   H3442     1.0  0.79058  0.99090  0.86533  1.0000
  Fe  Fe287     1.0  0.84330  0.09651  0.86879  1.0000
  S   S583      1.0  0.85461  0.07455  0.84753  1.0000
  S   S584      1.0  0.84560  0.12902  0.85896  1.0000
  Fe  Fe288     1.0  0.94120  0.02282  0.59966  1.0000
  C   C2033     1.0  0.81583  0.02083  0.58443  1.0000
  S   S585      1.0  0.91955  0.02975  0.57826  1.0000
  Fe  Fe289     1.0  0.97027  0.04302  0.61223  1.0000
  C   C2034     1.0  0.69093  0.10684  0.49667  1.0000
  H   H3443     1.0  0.78644  0.02861  0.85053  1.0000
  H   H3444     1.0  0.70438  0.19950  0.96353  1.0000
  H   H3445     1.0  0.88660  0.19754  0.87947  1.0000
  C   C2035     1.0  0.76971  0.00732  0.66806  1.0000
  S   S586      1.0  0.97362  0.02685  0.58739  1.0000
  S   S587      1.0  0.93681  0.04185  0.62255  1.0000
  C   C2036     1.0  0.69672  0.02864  0.57452  1.0000
  H   H3446     1.0  0.68105  0.02954  0.57377  1.0000
  H   H3447     1.0  0.78482  0.00594  0.65748  1.0000
  H   H3448     1.0  0.81589  0.02282  0.88194  1.0000
  C   C2037     1.0  0.72517  0.00927  0.73587  1.0000
  C   C2038     1.0  0.88626  0.07430  0.96715  1.0000
  H   H3449     1.0  0.96542  0.01949  0.69514  1.0000
  H   H3450     1.0  0.75296  0.02468  0.57736  1.0000
  C   C2039     1.0  0.85836  0.01996  0.58923  1.0000
  H   H3451     1.0  0.72156  0.15227  0.95467  1.0000
  H   H3452     1.0  0.83900  0.04936  0.49782  1.0000
  C   C2040     1.0  0.90667  0.01764  0.55013  1.0000
  H   H3453     1.0  0.90611  0.03298  0.54221  1.0000
  C   C2041     1.0  0.73798  0.14261  0.89612  1.0000
  H   H3454     1.0  0.66659  0.06963  0.65118  1.0000
  H   H3455     1.0  0.91844  0.98736  0.59271  1.0000
  H   H3456     1.0  0.69244  0.20352  0.93460  1.0000
  H   H3457     1.0  0.92294  0.15418  0.87797  1.0000
  H   H3458     1.0  0.75587  0.18964  0.86091  1.0000
  C   C2042     1.0  0.86581  0.03378  0.69507  1.0000
  C   C2043     1.0  0.87847  0.02740  0.70893  1.0000
  H   H3459     1.0  0.83440  0.00408  0.54668  1.0000
  Fe  Fe290     1.0  0.67408  0.18694  0.89382  1.0000
  C   C2044     1.0  0.89523  0.02595  0.66855  1.0000
  C   C2045     1.0  0.87434  0.03351  0.67482  1.0000
  H   H3460     1.0  0.75730  0.04217  0.95740  1.0000
  H   H3461     1.0  0.66784  0.07328  0.62546  1.0000
  H   H3462     1.0  0.90151  0.02516  0.65300  1.0000
  H   H3463     1.0  0.86464  0.03862  0.66402  1.0000
  C   C2046     1.0  0.81209  0.06158  0.81378  1.0000
  C   C2047     1.0  0.80397  0.06912  0.83147  1.0000
  C   C2048     1.0  0.81690  0.07266  0.84222  1.0000
  C   C2049     1.0  0.83804  0.06889  0.83521  1.0000
  C   C2050     1.0  0.84621  0.06043  0.81804  1.0000
  C   C2051     1.0  0.83328  0.05680  0.80731  1.0000
  H   H3464     1.0  0.78759  0.07237  0.83680  1.0000
  H   H3465     1.0  0.81058  0.07842  0.85586  1.0000
  H   H3466     1.0  0.86260  0.05725  0.81268  1.0000
  H   H3467     1.0  0.83969  0.05095  0.79371  1.0000
  H   H3468     1.0  0.78779  0.01108  0.58446  1.0000
  S   S588      1.0  0.98064  0.01516  0.63335  1.0000
  C   C2052     1.0  0.81361  0.00396  0.96931  1.0000
  H   H3469     1.0  0.70456  0.99994  0.72295  1.0000
  H   H3470     1.0  0.90351  0.07744  0.89929  1.0000
  H   H3471     1.0  0.71369  0.02123  0.74160  1.0000
  C   C2053     1.0  0.88423  0.16897  0.92486  1.0000
  H   H3472     1.0  0.69673  0.99223  0.55572  1.0000
  C   C2054     1.0  0.89941  0.01990  0.70264  1.0000
  H   H3473     1.0  0.92473  0.08136  0.90746  1.0000
  H   H3474     1.0  0.99944  0.10645  0.60257  1.0000
  H   H3475     1.0  0.93150  0.17486  0.89767  1.0000
  N   N144      1.0  0.72099  0.18347  0.93952  1.0000
  C   C2055     1.0  0.84931  0.05367  0.94048  1.0000
  C   C2056     1.0  0.72996  0.17607  0.87701  1.0000
  S   S589      1.0  0.79149  0.16100  0.86886  1.0000
  H   H3476     1.0  0.82030  0.01747  0.81772  1.0000
  C   C2057     1.0  0.71145  0.03215  0.55696  1.0000
  H   H3477     1.0  0.75800  0.15737  0.95015  1.0000
  C   C2058     1.0  0.79280  0.02436  0.48414  1.0000
  C   C2059     1.0  0.72266  0.02207  0.59424  1.0000
  H   H3478     1.0  0.73301  0.12943  0.90591  1.0000
  H   H3479     1.0  0.90180  0.10030  0.90601  1.0000
  S   S590      1.0  0.93339  0.00718  0.67541  1.0000
  S   S591      1.0  0.69657  0.00855  0.67129  1.0000
  H   H3480     1.0  0.85153  0.03290  0.53029  1.0000
  H   H3481     1.0  0.97085  0.03404  0.67062  1.0000
  Fe  Fe291     1.0  0.93380  0.20826  0.92508  1.0000
  H   H3482     1.0  0.74205  0.05715  0.50609  1.0000
  S   S592      1.0  0.85921  0.09232  0.89401  1.0000
  C   C2060     1.0  0.76542  0.16007  0.87737  1.0000
  C   C2061     1.0  0.72000  0.99732  0.72523  1.0000
  H   H3483     1.0  0.74229  0.17882  0.91185  1.0000
  C   C2062     1.0  0.70238  0.02352  0.59314  1.0000
  H   H3484     1.0  0.72917  0.16362  0.97681  1.0000
  H   H3485     1.0  0.86795  0.02472  0.57446  1.0000
  H   H3486     1.0  0.78616  0.03761  0.57860  1.0000
  C   C2063     1.0  0.84107  0.23438  0.90497  1.0000
  H   H3487     1.0  0.90303  0.04332  0.96519  1.0000
  C   C2064     1.0  0.79045  0.03008  0.50243  1.0000
  C   C2065     1.0  0.91695  0.17007  0.90217  1.0000
  H   H3488     1.0  0.77003  0.13034  0.89513  1.0000
  C   C2066     1.0  0.70576  0.08855  0.50539  1.0000
  H   H3489     1.0  0.86453  0.15297  0.91787  1.0000
  C   C2067     1.0  0.70807  0.19838  0.92609  1.0000
  H   H3490     1.0  0.91474  0.12221  0.94072  1.0000
  S   S593      1.0  0.81638  0.08490  0.94370  1.0000
  H   H3491     1.0  0.90228  0.21926  0.89401  1.0000
  S   S594      1.0  0.81163  0.10241  0.88755  1.0000
  H   H3492     1.0  0.87546  0.02949  0.93842  1.0000
  C   C2068     1.0  0.83091  0.06442  0.49165  1.0000
  C   C2069     1.0  0.72344  0.15912  0.88971  1.0000
  H   H3493     1.0  0.77058  0.04717  0.52386  1.0000
  H   H3494     1.0  0.98517  0.20466  0.79365  1.0000
  C   C2070     1.0  0.81723  0.00807  0.87796  1.0000
  C   C2071     1.0  0.69552  0.98736  0.54238  1.0000
  C   C2072     1.0  0.75657  0.15936  0.93454  1.0000
  H   H3495     1.0  0.80001  0.02287  0.56012  1.0000
  C   C2073     1.0  0.72033  0.19284  0.95685  1.0000
  H   H3496     1.0  0.72999  0.99823  0.53457  1.0000
  H   H3497     1.0  0.67182  0.00715  0.49616  1.0000
  H   H3498     1.0  0.74683  0.18055  0.97095  1.0000
  H   H3499     1.0  0.87682  0.99222  0.74126  1.0000
  C   C2074     1.0  0.76821  0.04813  0.96246  1.0000
  H   H3500     1.0  0.89571  0.00865  0.52814  1.0000
  H   H3501     1.0  0.84689  0.22426  0.91777  1.0000
  H   H3502     1.0  0.91544  0.09100  0.96495  1.0000
  H   H3503     1.0  0.81486  0.06358  0.49272  1.0000
  C   C2075     1.0  0.74509  0.00588  0.73905  1.0000
  C   C2076     1.0  0.78972  0.03482  0.95968  1.0000
  H   H3504     1.0  0.77217  0.15920  0.92504  1.0000
  Fe  Fe292     1.0  0.82172  0.99688  0.77044  1.0000
  C   C2077     1.0  0.77934  0.00254  0.96504  1.0000
  S   S595      1.0  0.80943  0.02184  0.51670  1.0000
  S   S596      1.0  0.86772  0.00538  0.50055  1.0000
  Fe  Fe293     1.0  0.98163  0.99872  0.60937  1.0000
  H   H3505     1.0  0.72799  0.20599  0.95161  1.0000
  H   H3506     1.0  0.67049  0.14733  0.49602  1.0000
  H   H3507     1.0  0.71783  0.22650  0.92550  1.0000
  C   C2078     1.0  0.91605  0.08947  0.94943  1.0000
  H   H3508     1.0  0.76749  0.01612  0.84866  1.0000
  C   C2079     1.0  0.73727  0.02581  0.57666  1.0000
  N   N145      1.0  0.94429  0.06995  0.67898  1.0000
  C   C2080     1.0  0.94668  0.04947  0.69231  1.0000
  C   C2081     1.0  0.92439  0.08227  0.68790  1.0000
  C   C2082     1.0  0.96167  0.07931  0.67942  1.0000
  C   C2083     1.0  0.94495  0.06753  0.65810  1.0000
  C   C2084     1.0  0.96696  0.03482  0.68668  1.0000
  C   C2085     1.0  0.90532  0.07288  0.69161  1.0000
  C   C2086     1.0  0.96275  0.10029  0.66656  1.0000
  C   C2087     1.0  0.93351  0.08525  0.64476  1.0000
  H   H3509     1.0  0.94495  0.05077  0.70812  1.0000
  H   H3510     1.0  0.93447  0.04161  0.69234  1.0000
  H   H3511     1.0  0.92128  0.09737  0.67849  1.0000
  H   H3512     1.0  0.92518  0.08517  0.70251  1.0000
  H   H3513     1.0  0.96151  0.08016  0.69504  1.0000
  H   H3514     1.0  0.97662  0.06995  0.67414  1.0000
  H   H3515     1.0  0.96101  0.06426  0.64978  1.0000
  H   H3516     1.0  0.93855  0.05426  0.65850  1.0000
  H   H3517     1.0  0.68570  0.15188  0.96306  1.0000
  H   H3518     1.0  0.74312  0.03299  0.54456  1.0000
  C   C2088     1.0  0.92400  0.10815  0.93598  1.0000
  H   H3519     1.0  0.90418  0.06147  0.70563  1.0000
  C   C2089     1.0  0.86011  0.03003  0.96902  1.0000
  H   H3520     1.0  0.90528  0.06577  0.67918  1.0000
  H   H3521     1.0  0.97513  0.10589  0.66977  1.0000
  H   H3522     1.0  0.94850  0.11139  0.66979  1.0000
  Fe  Fe294     1.0  0.83636  0.99876  0.50630  1.0000
  H   H3523     1.0  0.91672  0.08659  0.64958  1.0000
  H   H3524     1.0  0.93765  0.08247  0.62924  1.0000
  H   H3525     1.0  0.93755  0.09979  0.64389  1.0000
  N   N146      1.0  0.75923  0.02906  0.66697  1.0000
  H   H3526     1.0  0.85851  0.00153  0.55196  1.0000
  C   C2090     1.0  0.77490  0.04067  0.66731  1.0000
  C   C2091     1.0  0.75169  0.03610  0.64766  1.0000
  C   C2092     1.0  0.74165  0.03018  0.68471  1.0000
  H   H3527     1.0  0.86313  0.99027  0.58443  1.0000
  H   H3528     1.0  0.99910  0.04851  0.64051  1.0000
  C   C2093     1.0  0.74805  0.05880  0.63913  1.0000
  C   C2094     1.0  0.72954  0.05111  0.68795  1.0000
  H   H3529     1.0  0.90864  0.05999  0.93455  1.0000
  C   C2095     1.0  0.78372  0.03491  0.68643  1.0000
  H   H3530     1.0  0.76883  0.05701  0.66539  1.0000
  H   H3531     1.0  0.85666  0.00960  0.82082  1.0000
  H   H3532     1.0  0.76276  0.02921  0.63546  1.0000
  H   H3533     1.0  0.73715  0.03101  0.64921  1.0000
  H   H3534     1.0  0.73013  0.02185  0.68398  1.0000
  H   H3535     1.0  0.74670  0.02222  0.69872  1.0000
  H   H3536     1.0  0.71423  0.13410  0.48613  1.0000
  S   S597      1.0  0.84174  0.98622  0.47877  1.0000
  C   C2096     1.0  0.77239  0.04250  0.50987  1.0000
  H   H3537     1.0  0.75072  0.19151  0.92618  1.0000
  H   H3538     1.0  0.79484  0.04459  0.68501  1.0000
  H   H3539     1.0  0.83824  0.22531  0.89539  1.0000
  H   H3540     1.0  0.73772  0.06779  0.64988  1.0000
  H   H3541     1.0  0.74073  0.06163  0.62613  1.0000
  H   H3542     1.0  0.76269  0.06426  0.63347  1.0000
  H   H3543     1.0  0.99568  0.20469  0.76142  1.0000
  H   H3544     1.0  0.73901  0.06271  0.68397  1.0000
  H   H3545     1.0  0.72287  0.05042  0.70415  1.0000
  H   H3546     1.0  0.98080  0.23000  0.85749  1.0000
  H   H3547     1.0  0.78315  0.00431  0.94848  1.0000
  C   C2097     1.0  0.74255  0.17921  0.92743  1.0000
  C   C2098     1.0  0.84218  0.03196  0.54571  1.0000
  Fe  Fe295     1.0  0.82767  0.10055  0.91215  1.0000
  S   S598      1.0  0.96454  0.19955  0.93360  1.0000
  C   C2099     1.0  0.91205  0.15835  0.89104  1.0000
  H   H3548     1.0  0.68722  0.11752  0.50703  1.0000
  H   H3549     1.0  0.73099  0.21449  0.90431  1.0000
  C   C2100     1.0  0.89313  0.15211  0.89659  1.0000
  Fe  Fe296     1.0  0.81496  0.13467  0.87963  1.0000
  H   H3550     1.0  0.72003  0.09250  0.50637  1.0000
  H   H3551     1.0  0.70591  0.19129  0.91442  1.0000
  H   H3552     1.0  0.85087  0.09969  0.95963  1.0000
  C   C2101     1.0  0.84963  0.00160  0.58960  1.0000
  H   H3553     1.0  0.96136  0.00188  0.55800  1.0000
  C   C2102     1.0  0.75796  0.99333  0.66351  1.0000
  H   H3554     1.0  0.84059  0.99300  0.94830  1.0000
  H   H3555     1.0  0.85839  0.98849  0.72130  1.0000
  H   H3556     1.0  0.74220  0.99432  0.67247  1.0000
  H   H3557     1.0  0.84195  0.00803  0.85286  1.0000
  H   H3558     1.0  0.78799  0.03897  0.65438  1.0000
  C   C2103     1.0  0.73172  0.03060  0.55809  1.0000
  C   C2104     1.0  0.88441  0.21414  0.87539  1.0000
  H   H3559     1.0  0.81119  0.01779  0.60104  1.0000
  H   H3560     1.0  0.92455  0.10937  0.91996  1.0000
  H   H3561     1.0  0.72572  0.98742  0.78440  1.0000
  H   H3562     1.0  0.89131  0.08465  0.69343  1.0000
  H   H3563     1.0  0.70523  0.22749  0.90623  1.0000
  C   C2105     1.0  0.75632  0.04835  0.49969  1.0000
  H   H3564     1.0  0.81748  0.99284  0.94144  1.0000
  S   S599      1.0  0.67971  0.99151  0.63994  1.0000
  H   H3565     1.0  0.92819  0.07612  0.94661  1.0000
  C   C2106     1.0  0.79701  0.99633  0.84939  1.0000
  H   H3566     1.0  0.85347  0.00363  0.79884  1.0000
  H   H3567     1.0  0.77173  0.03746  0.69993  1.0000
  H   H3568     1.0  0.82244  0.01257  0.97416  1.0000
  N   N147      1.0  0.89567  0.08641  0.94762  1.0000
  H   H3569     1.0  0.67642  0.10191  0.49806  1.0000
  C   C2107     1.0  0.82509  0.00986  0.85523  1.0000
  H   H3570     1.0  0.85832  0.09694  0.93376  1.0000
  C   C2108     1.0  0.91382  0.99190  0.57850  1.0000
  C   C2109     1.0  0.78389  0.01713  0.84350  1.0000
  H   H3571     1.0  0.88392  0.07058  0.93123  1.0000
  C   C2110     1.0  0.90066  0.00390  0.54219  1.0000
  H   H3572     1.0  0.89680  0.21763  0.86231  1.0000
  H   H3573     1.0  0.84653  0.03268  0.59398  1.0000
  C   C2111     1.0  0.84244  0.00965  0.55543  1.0000
  H   H3574     1.0  0.75747  0.99631  0.64745  1.0000
  H   H3575     1.0  0.76269  0.00879  0.96888  1.0000
  C   C2112     1.0  0.69026  0.16676  0.95893  1.0000
  C   C2113     1.0  0.99770  0.07692  0.62023  1.0000
  H   H3576     1.0  0.71201  0.15877  0.93276  1.0000
  H   H3577     1.0  0.74661  0.00119  0.79875  1.0000
  Fe  Fe297     1.0  0.97551  0.21825  0.90368  1.0000
  C   C2114     1.0  0.89838  0.07474  0.93143  1.0000
  S   S600      1.0  0.73018  0.01554  0.61732  1.0000
  H   H3578     1.0  0.88696  0.11593  0.92984  1.0000
  H   H3579     1.0  0.87205  0.02798  0.72449  1.0000
  H   H3580     1.0  0.82653  0.04011  0.54434  1.0000
  H   H3581     1.0  0.85084  0.12116  0.94013  1.0000
  H   H3582     1.0  0.84869  0.03994  0.55353  1.0000
  C   C2115     1.0  0.90781  0.08414  0.91001  1.0000
  H   H3583     1.0  0.85128  0.05862  0.92452  1.0000
  Fe  Fe298     1.0  0.66801  0.99859  0.67066  1.0000
  C   C2116     1.0  0.75863  0.04275  0.48141  1.0000
  H   H3584     1.0  0.97981  0.03865  0.69086  1.0000
  C   C2117     1.0  0.75893  0.14309  0.89004  1.0000
  C   C2118     1.0  0.71210  0.16466  0.94603  1.0000
  H   H3585     1.0  0.83021  0.07502  0.50135  1.0000
  H   H3586     1.0  0.90909  0.01461  0.71345  1.0000
  H   H3587     1.0  0.71893  0.18873  0.87172  1.0000
  S   S601      1.0  0.82822  0.13354  0.90593  1.0000
  H   H3588     1.0  0.79221  0.01923  0.68874  1.0000
  H   H3589     1.0  0.70961  0.07629  0.49689  1.0000
  H   H3590     1.0  0.71686  0.05599  0.67976  1.0000
  N   N148      1.0  0.83349  0.00484  0.57756  1.0000
  C   C2119     1.0  0.82479  0.00149  0.94788  1.0000
  S   S602      1.0  0.90831  0.19023  0.93366  1.0000
  Fe  Fe299     1.0  0.94735  0.01295  0.64234  1.0000
  C   C2120     1.0  0.87917  0.15757  0.91351  1.0000
  C   C2121     1.0  0.85918  0.10567  0.94451  1.0000
  H   H3591     1.0  0.75147  0.14625  0.93252  1.0000
  C   C2122     1.0  0.82691  0.00154  0.82313  1.0000
  C   C2123     1.0  0.75090  0.17652  0.87084  1.0000
  H   H3592     1.0  0.67893  0.17702  0.95070  1.0000
  C   C2124     1.0  0.83322  0.06368  0.95324  1.0000
  C   C2125     1.0  0.86288  0.03705  0.94836  1.0000
  C   C2126     1.0  0.90773  0.01876  0.68251  1.0000
  H   H3593     1.0  0.87873  0.21295  0.90689  1.0000
  H   H3594     1.0  0.82633  0.01617  0.93790  1.0000
  N   N149      1.0  0.77083  0.13358  0.82750  1.0000
  C   C2127     1.0  0.74997  0.13595  0.84123  1.0000
  C   C2128     1.0  0.77474  0.15436  0.81780  1.0000
  C   C2129     1.0  0.78638  0.12291  0.84009  1.0000
  C   C2130     1.0  0.77054  0.12139  0.81265  1.0000
  C   C2131     1.0  0.74428  0.11679  0.85569  1.0000
  C   C2132     1.0  0.75965  0.16730  0.80483  1.0000
  C   C2133     1.0  0.80882  0.12499  0.83115  1.0000
  C   C2134     1.0  0.78922  0.11912  0.79527  1.0000
  H   H3595     1.0  0.74837  0.14715  0.85059  1.0000
  H   H3596     1.0  0.73767  0.14191  0.83258  1.0000
  H   H3597     1.0  0.79022  0.15411  0.80820  1.0000
  H   H3598     1.0  0.77453  0.16277  0.82946  1.0000
  H   H3599     1.0  0.78248  0.12837  0.85442  1.0000
  H   H3600     1.0  0.78605  0.10667  0.84439  1.0000
  H   H3601     1.0  0.76903  0.10580  0.82031  1.0000
  H   H3602     1.0  0.75664  0.12694  0.80614  1.0000
  H   H3603     1.0  0.72844  0.12058  0.86439  1.0000
  H   H3604     1.0  0.74450  0.10488  0.84772  1.0000
  H   H3605     1.0  0.75421  0.11090  0.86675  1.0000
  H   H3606     1.0  0.75898  0.15993  0.79283  1.0000
  H   H3607     1.0  0.74412  0.17137  0.81394  1.0000
  H   H3608     1.0  0.76491  0.18161  0.79747  1.0000
  H   H3609     1.0  0.81108  0.14026  0.83078  1.0000
  H   H3610     1.0  0.81467  0.12115  0.81621  1.0000
  H   H3611     1.0  0.81861  0.11447  0.84095  1.0000
  H   H3612     1.0  0.80085  0.10573  0.79942  1.0000
  H   H3613     1.0  0.79642  0.13243  0.78968  1.0000
  H   H3614     1.0  0.78424  0.11701  0.78225  1.0000
  Fe  Fe300     1.0  0.70898  0.99872  0.64184  1.0000
  C   C2135     1.0  0.71632  0.21766  0.91508  1.0000
  H   H3615     1.0  0.87339  0.17305  0.93800  1.0000
  H   H3616     1.0  0.87206  0.07019  0.96596  1.0000
  H   H3617     1.0  0.76922  0.06324  0.95311  1.0000
  C   C2136     1.0  0.88139  0.10638  0.94425  1.0000
  C   C2137     1.0  0.85025  0.99938  0.81538  1.0000
  H   H3618     1.0  0.69789  0.99955  0.52917  1.0000
  H   H3619     1.0  0.86945  0.21964  0.87100  1.0000
  H   H3620     1.0  0.72989  0.11237  0.47795  1.0000
  H   H3621     1.0  0.88071  0.11501  0.95585  1.0000
  H   H3622     1.0  0.96723  0.09964  0.65044  1.0000
  C   C2138     1.0  0.97169  0.98788  0.56339  1.0000
  H   H3623     1.0  0.77297  0.00054  0.68317  1.0000
  S   S603      1.0  0.94549  0.22457  0.89421  1.0000
  H   H3624     1.0  0.98749  0.99066  0.55768  1.0000
  S   S604      1.0  0.98201  0.07208  0.60626  1.0000
  H   H3625     1.0  0.82152  0.99266  0.81508  1.0000
  H   H3626     1.0  0.93983  0.10738  0.93748  1.0000
  H   H3627     1.0  0.79378  0.98592  0.84138  1.0000
  H   H3628     1.0  0.86883  0.01561  0.59985  1.0000
  H   H3629     1.0  0.69827  0.08243  0.52085  1.0000
  H   H3630     1.0  0.73728  0.98897  0.51231  1.0000
  C   C2139     1.0  0.88583  0.22249  0.89324  1.0000
  H   H3631     1.0  0.80038  0.04290  0.96255  1.0000
  H   H3632     1.0  0.77514  0.98749  0.73430  1.0000
  H   H3633     1.0  0.72848  0.99032  0.56603  1.0000
  H   H3634     1.0  0.79458  0.03445  0.94346  1.0000
  C   C2140     1.0  0.76173  0.98587  0.52739  1.0000
  Fe  Fe301     1.0  0.67140  0.04796  0.53584  1.0000
  H   H3635     1.0  0.76443  0.00122  0.52027  1.0000
  C   C2141     1.0  0.68122  0.01830  0.48709  1.0000
  C   C2142     1.0  0.83038  0.05660  0.97392  1.0000
  H   H3636     1.0  0.82047  0.02575  0.84795  1.0000
  S   S605      1.0  0.94929  0.99357  0.62033  1.0000
  H   H3637     1.0  0.78645  0.02222  0.82710  1.0000
  H   H3638     1.0  0.87372  0.22431  0.93432  1.0000
  H   H3639     1.0  0.68929  0.17161  0.97303  1.0000
  H   H3640     1.0  0.99401  0.19948  0.81628  1.0000
  H   H3641     1.0  0.81478  0.98643  0.57240  1.0000
  Fe  Fe302     1.0  0.95703  0.22871  0.94438  1.0000
  N   N150      1.0  0.79139  0.01388  0.97196  1.0000
  H   H3642     1.0  0.68106  0.02847  0.49703  1.0000
  H   H3643     1.0  0.87803  0.99169  0.70005  1.0000
  C   C2143     1.0  0.99659  0.22953  0.84988  1.0000
  C   C2144     1.0  0.73048  0.17951  0.97387  1.0000
  C   C2145     1.0  0.99840  0.20454  0.79985  1.0000
  C   C2146     1.0  0.67590  0.15163  0.47968  1.0000
  S   S606      1.0  0.96130  0.23082  0.97460  1.0000
  C   C2147     1.0  0.75980  0.99031  0.73175  1.0000
  H   H3644     1.0  0.84550  0.99258  0.69179  1.0000
  H   H3645     1.0  0.82800  0.99673  0.88620  1.0000
  H   H3646     1.0  0.70894  0.99812  0.49281  1.0000
  N   N151      1.0  0.81972  0.99549  0.84543  1.0000
  H   H3647     1.0  0.80173  0.00462  0.88336  1.0000
  H   H3648     1.0  0.79282  0.25027  0.35592  1.0000
  Fe  Fe303     1.0  0.80398  0.35839  0.40844  1.0000
  S   S607      1.0  0.83194  0.35060  0.38522  1.0000
  S   S608      1.0  0.77695  0.34260  0.41591  1.0000
  Fe  Fe304     1.0  0.81944  0.39321  0.41607  1.0000
  S   S609      1.0  0.84811  0.38842  0.39267  1.0000
  S   S610      1.0  0.81412  0.42072  0.42984  1.0000
  Fe  Fe305     1.0  0.82832  0.38376  0.37425  1.0000
  S   S611      1.0  0.83251  0.39466  0.34115  1.0000
  Fe  Fe306     1.0  0.84930  0.35581  0.40578  1.0000
  S   S612      1.0  0.87875  0.33565  0.41183  1.0000
  S   S613      1.0  0.79928  0.39151  0.39619  1.0000
  S   S614      1.0  0.82168  0.36065  0.43055  1.0000
  S   S615      1.0  0.74095  0.25330  0.35126  1.0000
  H   H3649     1.0  0.75249  0.44147  0.32962  1.0000
  C   C2148     1.0  0.93796  0.46927  0.24800  1.0000
  H   H3650     1.0  0.92503  0.32343  0.98279  1.0000
  Fe  Fe307     1.0  0.73075  0.28244  0.36223  1.0000
  S   S616      1.0  0.75459  0.30225  0.35439  1.0000
  S   S617      1.0  0.70078  0.28870  0.35239  1.0000
  Fe  Fe308     1.0  0.70977  0.25796  0.34469  1.0000
  C   C2149     1.0  0.92456  0.39555  0.40971  1.0000
  C   C2150     1.0  0.67872  0.40763  0.13367  1.0000
  C   C2151     1.0  0.67806  0.45081  0.09062  1.0000
  C   C2152     1.0  0.82079  0.46413  0.98186  1.0000
  C   C2153     1.0  0.94889  0.29394  0.00557  1.0000
  S   S618      1.0  0.69659  0.24175  0.37504  1.0000
  H   H3651     1.0  0.80876  0.43317  0.17619  1.0000
  C   C2154     1.0  0.79700  0.23797  0.41396  1.0000
  H   H3652     1.0  0.90055  0.34363  0.44137  1.0000
  H   H3653     1.0  0.71593  0.42400  0.06649  1.0000
  C   C2155     1.0  0.87172  0.41359  0.41816  1.0000
  H   H3654     1.0  0.67913  0.28397  0.23787  1.0000
  H   H3655     1.0  0.83462  0.45716  0.00741  1.0000
  C   C2156     1.0  0.68376  0.24409  0.31486  1.0000
  H   H3656     1.0  0.76396  0.46146  0.13022  1.0000
  H   H3657     1.0  0.95247  0.46109  0.24131  1.0000
  H   H3658     1.0  0.86980  0.48542  0.43873  1.0000
  H   H3659     1.0  0.81171  0.25738  0.37765  1.0000
  H   H3660     1.0  0.97705  0.43735  0.26425  1.0000
  H   H3661     1.0  0.92065  0.45805  0.23308  1.0000
  H   H3662     1.0  0.90201  0.41525  0.28503  1.0000
  H   H3663     1.0  0.78702  0.28991  0.40249  1.0000
  H   H3664     1.0  0.73657  0.26793  0.43112  1.0000
  H   H3665     1.0  0.99545  0.24414  0.32522  1.0000
  H   H3666     1.0  0.91665  0.41083  0.40401  1.0000
  C   C2157     1.0  0.81293  0.44850  0.30880  1.0000
  C   C2158     1.0  0.99058  0.38713  0.31401  1.0000
  H   H3667     1.0  0.98881  0.38738  0.33004  1.0000
  C   C2159     1.0  0.77081  0.33177  0.39848  1.0000
  C   C2160     1.0  0.78422  0.32925  0.38029  1.0000
  C   C2161     1.0  0.77904  0.32009  0.36703  1.0000
  C   C2162     1.0  0.76044  0.31340  0.37176  1.0000
  C   C2163     1.0  0.74709  0.31579  0.38999  1.0000
  C   C2164     1.0  0.75228  0.32493  0.40326  1.0000
  H   H3668     1.0  0.79868  0.33412  0.37657  1.0000
  H   H3669     1.0  0.78957  0.31804  0.35308  1.0000
  H   H3670     1.0  0.73269  0.31074  0.39380  1.0000
  H   H3671     1.0  0.74184  0.32675  0.41733  1.0000
  C   C2165     1.0  0.82140  0.41988  0.33456  1.0000
  C   C2166     1.0  0.81254  0.43167  0.34909  1.0000
  H   H3672     1.0  0.86647  0.37759  0.45669  1.0000
  S   S619      1.0  0.95905  0.36650  0.36158  1.0000
  H   H3673     1.0  0.99613  0.28597  0.42846  1.0000
  C   C2167     1.0  0.82142  0.42824  0.31444  1.0000
  H   H3674     1.0  0.81258  0.42532  0.36465  1.0000
  C   C2168     1.0  0.82515  0.43907  0.45460  1.0000
  H   H3675     1.0  0.82802  0.41906  0.30321  1.0000
  C   C2169     1.0  0.90116  0.34316  0.39652  1.0000
  C   C2170     1.0  0.90024  0.35961  0.38072  1.0000
  C   C2171     1.0  0.91810  0.36663  0.36998  1.0000
  C   C2172     1.0  0.93707  0.35678  0.37451  1.0000
  C   C2173     1.0  0.93813  0.33981  0.38974  1.0000
  C   C2174     1.0  0.92018  0.33311  0.40082  1.0000
  H   H3676     1.0  0.88580  0.36698  0.37678  1.0000
  H   H3677     1.0  0.91725  0.37961  0.35805  1.0000
  H   H3678     1.0  0.95270  0.33209  0.39329  1.0000
  H   H3679     1.0  0.92103  0.32023  0.41287  1.0000
  H   H3680     1.0  0.70519  0.43004  0.09937  1.0000
  C   C2175     1.0  0.82907  0.40304  0.46419  1.0000
  C   C2176     1.0  0.68494  0.45115  0.03421  1.0000
  C   C2177     1.0  0.82343  0.42075  0.45097  1.0000
  H   H3681     1.0  0.97533  0.25235  0.41045  1.0000
  H   H3682     1.0  0.78378  0.43311  0.19146  1.0000
  C   C2178     1.0  0.80405  0.46033  0.32331  1.0000
  N   N152      1.0  0.67564  0.44394  0.07281  1.0000
  H   H3683     1.0  0.67226  0.46726  0.08938  1.0000
  S   S620      1.0  0.70696  0.24949  0.31645  1.0000
  H   H3684     1.0  0.85996  0.43962  0.27760  1.0000
  H   H3685     1.0  0.79160  0.45645  0.18069  1.0000
  H   H3686     1.0  0.90256  0.44665  0.32169  1.0000
  H   H3687     1.0  0.74735  0.41681  0.37094  1.0000
  H   H3688     1.0  0.97121  0.30768  0.98300  1.0000
  H   H3689     1.0  0.74268  0.37992  0.31855  1.0000
  H   H3690     1.0  0.87951  0.40391  0.35250  1.0000
  C   C2179     1.0  0.83530  0.45354  0.99317  1.0000
  S   S621      1.0  0.72187  0.45571  0.15329  1.0000
  C   C2180     1.0  0.75467  0.40918  0.33304  1.0000
  H   H3691     1.0  0.93931  0.28246  0.00870  1.0000
  H   H3692     1.0  0.98837  0.30065  0.30918  1.0000
  H   H3693     1.0  0.77226  0.43626  0.10855  1.0000
  H   H3694     1.0  0.76808  0.42561  0.98669  1.0000
  H   H3695     1.0  0.81296  0.45488  0.29326  1.0000
  H   H3696     1.0  0.93485  0.38979  0.39653  1.0000
  C   C2181     1.0  0.88011  0.41758  0.32134  1.0000
  C   C2182     1.0  0.92412  0.42424  0.30743  1.0000
  H   H3697     1.0  0.89119  0.40344  0.31905  1.0000
  Fe  Fe309     1.0  0.68941  0.27209  0.38326  1.0000
  H   H3698     1.0  0.71100  0.45255  0.08176  1.0000
  C   C2183     1.0  0.85075  0.43830  0.98612  1.0000
  H   H3699     1.0  0.83407  0.45390  0.47368  1.0000
  H   H3700     1.0  0.73886  0.41256  0.34200  1.0000
  H   H3701     1.0  0.86566  0.41444  0.31973  1.0000
  H   H3702     1.0  0.68198  0.24977  0.42261  1.0000
  H   H3703     1.0  0.95956  0.28859  0.01602  1.0000
  S   S622      1.0  0.71850  0.26822  0.39368  1.0000
  H   H3704     1.0  0.75646  0.39901  0.39099  1.0000
  H   H3705     1.0  0.79361  0.35207  0.33534  1.0000
  H   H3706     1.0  0.93658  0.43002  0.31022  1.0000
  S   S623      1.0  0.87878  0.47603  0.24520  1.0000
  H   H3707     1.0  0.97536  0.42962  0.29074  1.0000
  H   H3708     1.0  0.69401  0.42573  0.14377  1.0000
  H   H3709     1.0  0.70308  0.45396  0.05356  1.0000
  H   H3710     1.0  0.77183  0.42455  0.13391  1.0000
  H   H3711     1.0  0.71056  0.40002  0.07881  1.0000
  C   C2184     1.0  0.90949  0.38124  0.42006  1.0000
  H   H3712     1.0  0.66882  0.44363  0.10464  1.0000
  C   C2185     1.0  0.87211  0.42600  0.27883  1.0000
  C   C2186     1.0  0.81459  0.44538  0.13420  1.0000
  H   H3713     1.0  0.67794  0.41391  0.09032  1.0000
  H   H3714     1.0  0.84179  0.44570  0.11061  1.0000
  H   H3715     1.0  0.99053  0.37151  0.31315  1.0000
  H   H3716     1.0  0.98234  0.27623  0.31527  1.0000
  C   C2187     1.0  0.75143  0.36740  0.32777  1.0000
  H   H3717     1.0  0.92979  0.41977  0.29265  1.0000
  H   H3718     1.0  0.82065  0.45285  0.44452  1.0000
  H   H3719     1.0  0.97240  0.28224  0.98241  1.0000
  H   H3720     1.0  0.76139  0.35962  0.35560  1.0000
  H   H3721     1.0  0.82382  0.27765  0.38957  1.0000
  C   C2188     1.0  0.79411  0.27507  0.41022  1.0000
  C   C2189     1.0  0.78364  0.44180  0.15975  1.0000
  H   H3722     1.0  0.87833  0.47610  0.31583  1.0000
  S   S624      1.0  0.74375  0.46895  0.19479  1.0000
  H   H3723     1.0  0.81513  0.36353  0.32302  1.0000
  H   H3724     1.0  0.86192  0.43016  0.99498  1.0000
  C   C2190     1.0  0.90492  0.44100  0.30774  1.0000
  C   C2191     1.0  0.66775  0.25474  0.43245  1.0000
  C   C2192     1.0  0.86630  0.46684  0.32088  1.0000
  C   C2193     1.0  0.76454  0.26146  0.40913  1.0000
  C   C2194     1.0  0.83272  0.43970  0.47112  1.0000
  H   H3725     1.0  0.67717  0.26989  0.26246  1.0000
  H   H3726     1.0  0.90113  0.38054  0.40879  1.0000
  H   H3727     1.0  0.77456  0.42959  0.31346  1.0000
  H   H3728     1.0  0.69951  0.45343  0.10719  1.0000
  C   C2195     1.0  0.70578  0.41355  0.06780  1.0000
  S   S625      1.0  0.99080  0.46932  0.21535  1.0000
  C   C2196     1.0  0.87953  0.37250  0.44495  1.0000
  H   H3729     1.0  0.73890  0.37792  0.35526  1.0000
  H   H3730     1.0  0.89729  0.44091  0.27364  1.0000
  H   H3731     1.0  0.78547  0.46383  0.11052  1.0000
  H   H3732     1.0  0.88713  0.42719  0.34634  1.0000
  H   H3733     1.0  0.67476  0.41575  0.06582  1.0000
  C   C2197     1.0  0.78023  0.45446  0.12522  1.0000
  H   H3734     1.0  0.99721  0.28513  0.29090  1.0000
  H   H3735     1.0  0.79374  0.24600  0.44352  1.0000
  H   H3736     1.0  0.88574  0.40254  0.47556  1.0000
  H   H3737     1.0  0.89378  0.41839  0.43264  1.0000
  H   H3738     1.0  0.79676  0.46098  0.35473  1.0000
  H   H3739     1.0  0.69278  0.39873  0.12696  1.0000
  Fe  Fe310     1.0  0.72707  0.23942  0.38227  1.0000
  C   C2198     1.0  0.82596  0.45448  0.11349  1.0000
  H   H3740     1.0  0.79601  0.42558  0.11600  1.0000
  H   H3741     1.0  0.92113  0.29229  0.98130  1.0000
  H   H3742     1.0  0.66799  0.27786  0.47164  1.0000
  C   C2199     1.0  0.89046  0.42938  0.28554  1.0000
  H   H3743     1.0  0.92155  0.41097  0.31935  1.0000
  H   H3744     1.0  0.73907  0.39287  0.37967  1.0000
  H   H3745     1.0  0.75223  0.40801  0.31842  1.0000
  H   H3746     1.0  0.74243  0.35522  0.33291  1.0000
  C   C2200     1.0  0.66749  0.25681  0.24278  1.0000
  H   H3747     1.0  0.82751  0.38890  0.46168  1.0000
  H   H3748     1.0  0.80490  0.36408  0.34875  1.0000
  H   H3749     1.0  0.86558  0.41319  0.28872  1.0000
  C   C2201     1.0  0.69980  0.44634  0.09460  1.0000
  C   C2202     1.0  0.67945  0.42297  0.14313  1.0000
  H   H3750     1.0  0.82004  0.28643  0.41208  1.0000
  H   H3751     1.0  0.68306  0.24763  0.23940  1.0000
  H   H3752     1.0  0.81890  0.45378  0.10128  1.0000
  H   H3753     1.0  0.86646  0.45860  0.33629  1.0000
  C   C2203     1.0  0.78035  0.43385  0.12094  1.0000
  C   C2204     1.0  0.68661  0.45574  0.05398  1.0000
  H   H3754     1.0  0.87746  0.42234  0.26365  1.0000
  C   C2205     1.0  0.99443  0.28491  0.30712  1.0000
  C   C2206     1.0  0.90654  0.38369  0.45480  1.0000
  H   H3755     1.0  0.86417  0.42963  0.41697  1.0000
  C   C2207     1.0  0.88337  0.40768  0.43530  1.0000
  H   H3756     1.0  0.88182  0.41181  0.40347  1.0000
  N   N153      1.0  0.79231  0.45447  0.14027  1.0000
  H   H3757     1.0  0.87169  0.41090  0.44884  1.0000
  H   H3758     1.0  0.70889  0.40838  0.05343  1.0000
  C   C2208     1.0  0.75299  0.26847  0.42883  1.0000
  H   H3759     1.0  0.76607  0.36123  0.31842  1.0000
  H   H3760     1.0  0.85938  0.40500  0.42131  1.0000
  H   H3761     1.0  0.75846  0.25892  0.44205  1.0000
  H   H3762     1.0  0.69620  0.45811  0.02180  1.0000
  H   H3763     1.0  0.91669  0.36866  0.45654  1.0000
  C   C2209     1.0  0.88798  0.35023  0.45260  1.0000
  H   H3764     1.0  0.97708  0.39728  0.30914  1.0000
  H   H3765     1.0  0.76678  0.44691  0.16397  1.0000
  C   C2210     1.0  0.79475  0.26053  0.38200  1.0000
  H   H3766     1.0  0.68827  0.43490  0.03416  1.0000
  H   H3767     1.0  0.82736  0.47004  0.11283  1.0000
  C   C2211     1.0  0.96160  0.29667  0.98397  1.0000
  H   H3768     1.0  0.66967  0.45794  0.03073  1.0000
  Fe  Fe311     1.0  0.68819  0.46854  0.15906  1.0000
  H   H3769     1.0  0.78848  0.27559  0.42629  1.0000
  H   H3770     1.0  0.90890  0.45378  0.29556  1.0000
  H   H3771     1.0  0.93443  0.39635  0.41952  1.0000
  C   C2212     1.0  0.87655  0.41922  0.34339  1.0000
  H   H3772     1.0  0.87259  0.37281  0.43223  1.0000
  H   H3773     1.0  0.78974  0.27617  0.37428  1.0000
  H   H3774     1.0  0.87558  0.34163  0.45558  1.0000
  C   C2213     1.0  0.68263  0.42154  0.07461  1.0000
  C   C2214     1.0  0.86845  0.45314  0.30602  1.0000
  H   H3775     1.0  0.85361  0.44824  0.30911  1.0000
  H   H3776     1.0  0.99077  0.38245  0.27911  1.0000
  H   H3777     1.0  0.97408  0.41271  0.27545  1.0000
  C   C2215     1.0  0.91990  0.46751  0.24342  1.0000
  H   H3778     1.0  0.68070  0.47211  0.05334  1.0000
  H   H3779     1.0  0.91698  0.39458  0.45053  1.0000
  N   N154      1.0  0.78757  0.25862  0.40437  1.0000
  C   C2216     1.0  0.98159  0.42467  0.27619  1.0000
  H   H3780     1.0  0.93929  0.30827  0.00920  1.0000
  H   H3781     1.0  0.78454  0.38574  0.31286  1.0000
  C   C2217     1.0  0.79269  0.44131  0.17782  1.0000
  C   C2218     1.0  0.68310  0.23609  0.29863  1.0000
  C   C2219     1.0  0.81730  0.27442  0.40582  1.0000
  H   H3782     1.0  0.91902  0.36603  0.42312  1.0000
  N   N155      1.0  0.88592  0.43529  0.30569  1.0000
  H   H3783     1.0  0.79592  0.39690  0.32593  1.0000
  H   H3784     1.0  0.76186  0.46478  0.22833  1.0000
  C   C2220     1.0  0.76459  0.42781  0.32862  1.0000
  H   H3785     1.0  0.82331  0.44651  0.14502  1.0000
  C   C2221     1.0  0.75446  0.37348  0.34627  1.0000
  H   H3786     1.0  0.86047  0.42633  0.34890  1.0000
  H   H3787     1.0  0.86962  0.46325  0.29107  1.0000
  C   C2222     1.0  0.80366  0.45185  0.34348  1.0000
  H   H3788     1.0  0.98914  0.30571  0.44208  1.0000
  N   N156      1.0  0.89473  0.38629  0.43879  1.0000
  N   N157      1.0  0.76668  0.38974  0.34229  1.0000
  C   C2223     1.0  0.77073  0.39112  0.36190  1.0000
  C   C2224     1.0  0.78681  0.38516  0.32805  1.0000
  C   C2225     1.0  0.75216  0.40054  0.37648  1.0000
  C   C2226     1.0  0.80065  0.36497  0.33440  1.0000
  H   H3789     1.0  0.77377  0.42747  0.33948  1.0000
  H   H3790     1.0  0.78318  0.39954  0.35955  1.0000
  H   H3791     1.0  0.77656  0.37598  0.37016  1.0000
  C   C2227     1.0  0.76473  0.47865  0.21837  1.0000
  H   H3792     1.0  0.75811  0.27292  0.39722  1.0000
  H   H3793     1.0  0.78596  0.42588  0.15838  1.0000
  H   H3794     1.0  0.68200  0.30123  0.27067  1.0000
  S   S626      1.0  0.75040  0.47517  0.98541  1.0000
  H   H3795     1.0  0.75370  0.28430  0.42811  1.0000
  H   H3796     1.0  0.89306  0.34781  0.46682  1.0000
  S   S627      1.0  0.99659  0.32244  0.34057  1.0000
  Fe  Fe312     1.0  0.98852  0.34394  0.36151  1.0000
  H   H3797     1.0  0.81650  0.42905  0.13464  1.0000
  H   H3798     1.0  0.77063  0.24892  0.37526  1.0000
  S   S628      1.0  0.99792  0.32092  0.38738  1.0000
  C   C2228     1.0  0.78748  0.24665  0.37238  1.0000
  C   C2229     1.0  0.99055  0.25015  0.41313  1.0000
  H   H3799     1.0  0.85136  0.47740  0.32139  1.0000
  H   H3800     1.0  0.94292  0.27294  0.97827  1.0000
  C   C2230     1.0  0.78964  0.47556  0.14375  1.0000
  H   H3801     1.0  0.75958  0.24739  0.40928  1.0000
  H   H3802     1.0  0.82564  0.26000  0.41296  1.0000
  C   C2231     1.0  0.66881  0.27548  0.25000  1.0000
  H   H3803     1.0  0.99680  0.27984  0.45428  1.0000
  H   H3804     1.0  0.76056  0.47741  0.05563  1.0000
  S   S629      1.0  0.74357  0.47798  0.09703  1.0000
  Fe  Fe313     1.0  0.98820  0.48231  0.24215  1.0000
  Fe  Fe314     1.0  0.72455  0.47762  0.17097  1.0000
  C   C2232     1.0  0.93716  0.48166  0.26115  1.0000
  C   C2233     1.0  0.90097  0.47824  0.25179  1.0000
  Fe  Fe315     1.0  0.72365  0.48148  0.12717  1.0000
  C   C2234     1.0  0.98520  0.23815  0.99672  1.0000
  C   C2235     1.0  0.99462  0.24043  0.43191  1.0000
  C   C2236     1.0  0.74436  0.48347  0.05716  1.0000
  S   S630      1.0  0.95961  0.48486  0.26648  1.0000
  C   C2237     1.0  0.89357  0.38671  0.47561  1.0000
  H   H3805     1.0  0.78091  0.40146  0.98167  1.0000
  C   C2238     1.0  0.99978  0.29130  0.44053  1.0000
  C   C2239     1.0  0.75751  0.48451  0.20051  1.0000
  H   H3806     1.0  0.77566  0.47903  0.15541  1.0000
  H   H3807     1.0  0.80253  0.47710  0.14974  1.0000
  S   S631      1.0  0.80271  0.48406  0.99061  1.0000
  S   S632      1.0  0.79333  0.48566  0.31646  1.0000
  C   C2240     1.0  0.73222  0.48574  0.07599  1.0000
  C   C2241     1.0  0.78615  0.48150  0.57138  1.0000
  C   C2242     1.0  0.77170  0.47285  0.61285  1.0000
  H   H3808     1.0  0.95689  0.30696  0.93528  1.0000
  H   H3809     1.0  0.67720  0.28395  0.87162  1.0000
  N   N158      1.0  0.94959  0.30302  0.96760  1.0000
  C   C2243     1.0  0.74814  0.48292  0.71096  1.0000
  Fe  Fe316     1.0  0.69980  0.43260  0.66947  1.0000
  S   S633      1.0  0.68788  0.46171  0.65104  1.0000
  S   S634      1.0  0.68627  0.40481  0.67444  1.0000
  Fe  Fe317     1.0  0.72685  0.45234  0.68499  1.0000
  H   H3810     1.0  0.94240  0.44674  0.61933  1.0000
  S   S635      1.0  0.74714  0.44445  0.70770  1.0000
  H   H3811     1.0  0.98493  0.32638  0.84028  1.0000
  H   H3812     1.0  0.92493  0.29781  0.94222  1.0000
  C   C2244     1.0  0.70627  0.48351  0.76040  1.0000
  H   H3813     1.0  0.91811  0.34970  0.95444  1.0000
  S   S636      1.0  0.69523  0.44589  0.69648  1.0000
  S   S637      1.0  0.73272  0.43600  0.65948  1.0000
  H   H3814     1.0  0.78660  0.44839  0.90507  1.0000
  H   H3815     1.0  0.72382  0.44811  0.75339  1.0000
  S   S638      1.0  0.79703  0.42928  0.81948  1.0000
  H   H3816     1.0  0.75805  0.41426  0.97220  1.0000
  H   H3817     1.0  0.83484  0.40035  0.94519  1.0000
  H   H3818     1.0  0.75479  0.48451  0.56950  1.0000
  H   H3819     1.0  0.67379  0.26821  0.80313  1.0000
  H   H3820     1.0  0.82908  0.37714  0.95969  1.0000
  S   S639      1.0  0.73197  0.47635  0.60950  1.0000
  H   H3821     1.0  0.91978  0.45491  0.79661  1.0000
  H   H3822     1.0  0.87619  0.26675  0.90991  1.0000
  S   S640      1.0  0.79133  0.48342  0.83057  1.0000
  C   C2245     1.0  0.88108  0.27900  0.86995  1.0000
  H   H3823     1.0  0.81077  0.46789  0.95444  1.0000
  H   H3824     1.0  0.90515  0.25312  0.87472  1.0000
  H   H3825     1.0  0.89482  0.47429  0.91851  1.0000
  Fe  Fe318     1.0  0.87857  0.41236  0.92670  1.0000
  S   S641      1.0  0.90790  0.41807  0.90555  1.0000
  H   H3826     1.0  0.86407  0.40144  0.84452  1.0000
  Fe  Fe319     1.0  0.86368  0.39845  0.89643  1.0000
  S   S642      1.0  0.89160  0.40280  0.87260  1.0000
  S   S643      1.0  0.83848  0.38541  0.89271  1.0000
  Fe  Fe320     1.0  0.90879  0.38875  0.89719  1.0000
  S   S644      1.0  0.93727  0.36464  0.89477  1.0000
  Fe  Fe321     1.0  0.88815  0.43162  0.88302  1.0000
  S   S645      1.0  0.88606  0.46116  0.86150  1.0000
  S   S646      1.0  0.88105  0.38202  0.92024  1.0000
  S   S647      1.0  0.85875  0.42826  0.90487  1.0000
  S   S648      1.0  0.96999  0.24684  0.91508  1.0000
  C   C2246     1.0  0.92533  0.30321  0.89495  1.0000
  C   C2247     1.0  0.98070  0.31609  0.94317  1.0000
  C   C2248     1.0  0.91391  0.33933  0.89164  1.0000
  C   C2249     1.0  0.93256  0.34111  0.89473  1.0000
  C   C2250     1.0  0.94763  0.32390  0.89786  1.0000
  C   C2251     1.0  0.94391  0.30491  0.89834  1.0000
  Fe  Fe322     1.0  0.85113  0.45212  0.51001  1.0000
  H   H3827     1.0  0.90223  0.35255  0.88914  1.0000
  H   H3828     1.0  0.96210  0.32531  0.90014  1.0000
  H   H3829     1.0  0.95545  0.29168  0.90107  1.0000
  H   H3830     1.0  0.76206  0.44623  0.56950  1.0000
  C   C2252     1.0  0.67280  0.41578  0.63891  1.0000
  H   H3831     1.0  0.77265  0.46390  0.75765  1.0000
  H   H3832     1.0  0.76908  0.43751  0.53032  1.0000
  C   C2253     1.0  0.80446  0.39498  0.94522  1.0000
  H   H3833     1.0  0.88801  0.25104  0.86067  1.0000
  N   N159      1.0  0.69517  0.46957  0.75591  1.0000
  S   S649      1.0  0.86614  0.45399  0.53415  1.0000
  C   C2254     1.0  0.74743  0.48117  0.87439  1.0000
  H   H3834     1.0  0.76544  0.40597  0.90809  1.0000
  S   S650      1.0  0.86666  0.47512  0.48722  1.0000
  H   H3835     1.0  0.78140  0.39730  0.55630  1.0000
  H   H3836     1.0  0.81743  0.39946  0.96929  1.0000
  H   H3837     1.0  0.73965  0.42765  0.59642  1.0000
  H   H3838     1.0  0.84793  0.47723  0.92879  1.0000
  C   C2255     1.0  0.75808  0.47683  0.60012  1.0000
  H   H3839     1.0  0.97356  0.33195  0.94388  1.0000
  H   H3840     1.0  0.91690  0.46318  0.88205  1.0000
  H   H3841     1.0  0.98829  0.30895  0.81506  1.0000
  C   C2256     1.0  0.99460  0.24963  0.96106  1.0000
  H   H3842     1.0  0.93721  0.33708  0.93714  1.0000
  H   H3843     1.0  0.85956  0.39694  0.82195  1.0000
  C   C2257     1.0  0.80745  0.41803  0.84074  1.0000
  C   C2258     1.0  0.80946  0.39728  0.84715  1.0000
  C   C2259     1.0  0.81857  0.38754  0.86340  1.0000
  C   C2260     1.0  0.82632  0.39838  0.87301  1.0000
  C   C2261     1.0  0.82422  0.41920  0.86679  1.0000
  C   C2262     1.0  0.81452  0.42906  0.85080  1.0000
  H   H3844     1.0  0.80398  0.38868  0.83948  1.0000
  H   H3845     1.0  0.82006  0.37147  0.86822  1.0000
  H   H3846     1.0  0.83015  0.42769  0.87418  1.0000
  H   H3847     1.0  0.81311  0.44506  0.84592  1.0000
  C   C2263     1.0  0.95488  0.46935  0.58522  1.0000
  H   H3848     1.0  0.90382  0.38305  0.48635  1.0000
  C   C2264     1.0  0.92633  0.33458  0.95165  1.0000
  H   H3849     1.0  0.67222  0.27196  0.49644  1.0000
  H   H3850     1.0  0.98952  0.31585  0.92764  1.0000
  C   C2265     1.0  0.85556  0.45131  0.78246  1.0000
  N   N160      1.0  0.87602  0.43319  0.81031  1.0000
  C   C2266     1.0  0.87145  0.39751  0.82970  1.0000
  H   H3851     1.0  0.81985  0.42902  0.92921  1.0000
  C   C2267     1.0  0.89379  0.48132  0.86631  1.0000
  H   H3852     1.0  0.97846  0.27081  0.84758  1.0000
  S   S651      1.0  0.87244  0.41547  0.95875  1.0000
  N   N161      1.0  0.93393  0.46388  0.59153  1.0000
  H   H3853     1.0  0.76239  0.42679  0.60421  1.0000
  C   C2268     1.0  0.89262  0.44401  0.79723  1.0000
  C   C2269     1.0  0.85214  0.43393  0.96746  1.0000
  H   H3854     1.0  0.99194  0.31044  0.95298  1.0000
  C   C2270     1.0  0.70092  0.43208  0.75364  1.0000
  C   C2271     1.0  0.83844  0.42198  0.48429  1.0000
  H   H3855     1.0  0.76634  0.43967  0.74045  1.0000
  H   H3856     1.0  0.94690  0.33381  0.97017  1.0000
  H   H3857     1.0  0.75697  0.42561  0.56240  1.0000
  H   H3858     1.0  0.79848  0.43022  0.96078  1.0000
  C   C2272     1.0  0.82233  0.39324  0.95542  1.0000
  S   S652      1.0  0.82572  0.47872  0.57465  1.0000
  C   C2273     1.0  0.87003  0.24089  0.93138  1.0000
  S   S653      1.0  0.84840  0.42217  0.50496  1.0000
  H   H3859     1.0  0.82303  0.38446  0.56728  1.0000
  H   H3860     1.0  0.90214  0.45460  0.81992  1.0000
  Fe  Fe323     1.0  0.93901  0.25159  0.90828  1.0000
  H   H3861     1.0  0.97483  0.43952  0.58375  1.0000
  H   H3862     1.0  0.99868  0.25891  0.87803  1.0000
  C   C2274     1.0  0.76235  0.45559  0.73482  1.0000
  S   S654      1.0  0.82286  0.47391  0.51998  1.0000
  H   H3863     1.0  0.96035  0.47066  0.59829  1.0000
  H   H3864     1.0  0.67323  0.29684  0.48145  1.0000
  H   H3865     1.0  0.79240  0.44179  0.51344  1.0000
  H   H3866     1.0  0.94359  0.29225  0.85205  1.0000
  H   H3867     1.0  0.88047  0.38207  0.83264  1.0000
  H   H3868     1.0  0.88016  0.45750  0.93672  1.0000
  C   C2275     1.0  0.91910  0.48161  0.59883  1.0000
  C   C2276     1.0  0.80744  0.42723  0.92298  1.0000
  C   C2277     1.0  0.67303  0.40227  0.65706  1.0000
  H   H3869     1.0  0.90126  0.45047  0.61957  1.0000
  C   C2278     1.0  0.88603  0.41180  0.81732  1.0000
  H   H3870     1.0  0.96922  0.45360  0.55984  1.0000
  N   N162      1.0  0.87692  0.24445  0.89284  1.0000
  H   H3871     1.0  0.78931  0.39135  0.91293  1.0000
  C   C2279     1.0  0.91468  0.43817  0.61800  1.0000
  C   C2280     1.0  0.82179  0.45951  0.96336  1.0000
  H   H3872     1.0  0.80288  0.47069  0.61480  1.0000
  H   H3873     1.0  0.91880  0.27474  0.95715  1.0000
  H   H3874     1.0  0.78797  0.39157  0.57958  1.0000
  H   H3875     1.0  0.78764  0.41675  0.89888  1.0000
  H   H3876     1.0  0.81126  0.38763  0.93209  1.0000
  H   H3877     1.0  0.70352  0.43441  0.73715  1.0000
  C   C2281     1.0  0.90596  0.46199  0.57335  1.0000
  Fe  Fe324     1.0  0.68518  0.47530  0.67743  1.0000
  C   C2282     1.0  0.88861  0.25602  0.87428  1.0000
  H   H3878     1.0  0.82216  0.39995  0.54287  1.0000
  C   C2283     1.0  0.93076  0.28408  0.95225  1.0000
  H   H3879     1.0  0.69410  0.48075  0.79296  1.0000
  C   C2284     1.0  0.88085  0.25034  0.91053  1.0000
  H   H3880     1.0  0.81502  0.41862  0.91090  1.0000
  H   H3881     1.0  0.71070  0.41744  0.75841  1.0000
  H   H3882     1.0  0.90068  0.43638  0.78444  1.0000
  H   H3883     1.0  0.89752  0.24673  0.91032  1.0000
  H   H3884     1.0  0.76542  0.40477  0.94260  1.0000
  H   H3885     1.0  0.84754  0.26445  0.89694  1.0000
  Fe  Fe325     1.0  0.78858  0.46286  0.81198  1.0000
  C   C2285     1.0  0.83772  0.44460  0.95606  1.0000
  C   C2286     1.0  0.81388  0.39024  0.55552  1.0000
  C   C2287     1.0  0.78555  0.42680  0.95629  1.0000
  C   C2288     1.0  0.85449  0.24972  0.89233  1.0000
  H   H3886     1.0  0.79166  0.45861  0.92411  1.0000
  H   H3887     1.0  0.89605  0.31925  0.88880  1.0000
  H   H3888     1.0  0.68159  0.42755  0.63488  1.0000
  C   C2289     1.0  0.93586  0.28806  0.97087  1.0000
  N   N163      1.0  0.79306  0.41594  0.93897  1.0000
  C   C2290     1.0  0.88059  0.46829  0.92233  1.0000
  C   C2291     1.0  0.77996  0.40669  0.91173  1.0000
  H   H3889     1.0  0.76471  0.42955  0.92904  1.0000
  H   H3890     1.0  0.70907  0.46753  0.72503  1.0000
  H   H3891     1.0  0.83923  0.44172  0.94144  1.0000
  H   H3892     1.0  0.81059  0.45515  0.90200  1.0000
  S   S655      1.0  0.92053  0.27996  0.89404  1.0000
  Fe  Fe326     1.0  0.72040  0.46629  0.64267  1.0000
  H   H3893     1.0  0.90488  0.45722  0.55978  1.0000
  H   H3894     1.0  0.71927  0.46543  0.78618  1.0000
  S   S656      1.0  0.75717  0.47858  0.80715  1.0000
  C   C2292     1.0  0.78587  0.43235  0.52763  1.0000
  H   H3895     1.0  0.88142  0.45956  0.91086  1.0000
  C   C2293     1.0  0.77246  0.41612  0.97514  1.0000
  H   H3896     1.0  0.94521  0.43235  0.60143  1.0000
  C   C2294     1.0  0.74882  0.47095  0.89385  1.0000
  H   H3897     1.0  0.75308  0.47325  0.86207  1.0000
  C   C2295     1.0  0.92872  0.46001  0.57340  1.0000
  H   H3898     1.0  0.94430  0.27534  0.94361  1.0000
  C   C2296     1.0  0.91043  0.32046  0.89147  1.0000
  H   H3899     1.0  0.85317  0.43434  0.83741  1.0000
  H   H3900     1.0  0.98101  0.31370  0.86536  1.0000
  C   C2297     1.0  0.77498  0.41468  0.93134  1.0000
  C   C2298     1.0  0.79826  0.44853  0.91319  1.0000
  C   C2299     1.0  0.79244  0.47355  0.60486  1.0000
  C   C2300     1.0  0.75636  0.42158  0.59359  1.0000
  H   H3901     1.0  0.75534  0.45514  0.89642  1.0000
  Fe  Fe327     1.0  0.87927  0.47913  0.51232  1.0000
  C   C2301     1.0  0.93494  0.44530  0.60760  1.0000
  H   H3902     1.0  0.88635  0.45949  0.79031  1.0000
  C   C2302     1.0  0.96472  0.30261  0.94797  1.0000
  S   S657      1.0  0.74531  0.46853  0.93383  1.0000
  C   C2303     1.0  0.85540  0.46453  0.82494  1.0000
  H   H3903     1.0  0.93659  0.44481  0.57048  1.0000
  C   C2304     1.0  0.70736  0.44856  0.76044  1.0000
  H   H3904     1.0  0.86870  0.45272  0.76964  1.0000
  H   H3905     1.0  0.86596  0.41997  0.79045  1.0000
  C   C2305     1.0  0.86555  0.44222  0.82848  1.0000
  H   H3906     1.0  0.91915  0.47388  0.63107  1.0000
  S   S658      1.0  0.91270  0.48019  0.50868  1.0000
  H   H3907     1.0  0.89094  0.28549  0.85595  1.0000
  C   C2306     1.0  0.90894  0.44615  0.80762  1.0000
  C   C2307     1.0  0.86064  0.43274  0.79857  1.0000
  H   H3908     1.0  0.70671  0.44347  0.77676  1.0000
  H   H3909     1.0  0.72179  0.48248  0.75074  1.0000
  H   H3910     1.0  0.89681  0.41112  0.82689  1.0000
  H   H3911     1.0  0.68488  0.43059  0.76042  1.0000
  C   C2308     1.0  0.76580  0.42958  0.57158  1.0000
  H   H3912     1.0  0.95404  0.31438  0.84663  1.0000
  H   H3913     1.0  0.95843  0.29917  0.82779  1.0000
  H   H3914     1.0  0.89788  0.45253  0.58637  1.0000
  H   H3915     1.0  0.81313  0.37746  0.54916  1.0000
  H   H3916     1.0  0.95441  0.48432  0.57515  1.0000
  H   H3917     1.0  0.77597  0.44165  0.95197  1.0000
  H   H3918     1.0  0.75832  0.40503  0.59710  1.0000
  C   C2309     1.0  0.67402  0.46999  0.76879  1.0000
  H   H3919     1.0  0.97326  0.28705  0.94733  1.0000
  C   C2310     1.0  0.69442  0.47440  0.73399  1.0000
  H   H3920     1.0  0.87580  0.43954  0.83906  1.0000
  H   H3921     1.0  0.91466  0.32672  0.95062  1.0000
  H   H3922     1.0  0.89536  0.40498  0.80434  1.0000
  H   H3923     1.0  0.91557  0.43038  0.63355  1.0000
  N   N164      1.0  0.78850  0.42235  0.56479  1.0000
  H   H3924     1.0  0.79826  0.41348  0.59313  1.0000
  C   C2311     1.0  0.79505  0.43481  0.54447  1.0000
  C   C2312     1.0  0.79919  0.42564  0.57964  1.0000
  C   C2313     1.0  0.79200  0.40038  0.56425  1.0000
  N   N165      1.0  0.99560  0.29416  0.84389  1.0000
  C   C2314     1.0  0.97617  0.28581  0.85141  1.0000
  C   C2315     1.0  0.82183  0.42759  0.57230  1.0000
  C   C2316     1.0  0.74192  0.48119  0.90984  1.0000
  H   H3925     1.0  0.86521  0.28316  0.86756  1.0000
  H   H3926     1.0  0.93449  0.47063  0.55984  1.0000
  H   H3927     1.0  0.81183  0.43170  0.53895  1.0000
  H   H3928     1.0  0.79119  0.45099  0.54536  1.0000
  H   H3929     1.0  0.79136  0.43969  0.58525  1.0000
  H   H3930     1.0  0.84584  0.43008  0.80876  1.0000
  H   H3931     1.0  0.79001  0.41671  0.52511  1.0000
  H   H3932     1.0  0.84071  0.38993  0.49106  1.0000
  C   C2317     1.0  0.76597  0.46930  0.74458  1.0000
  H   H3933     1.0  0.68244  0.46775  0.73136  1.0000
  H   H3934     1.0  0.84289  0.44940  0.77647  1.0000
  H   H3935     1.0  0.82345  0.44184  0.56154  1.0000
  H   H3936     1.0  0.83157  0.41491  0.56556  1.0000
  H   H3937     1.0  0.82796  0.42823  0.58521  1.0000
  H   H3938     1.0  0.98656  0.46023  0.57081  1.0000
  H   H3939     1.0  0.97167  0.28338  0.86797  1.0000
  H   H3940     1.0  0.91817  0.43154  0.81319  1.0000
  H   H3941     1.0  0.99235  0.25093  0.94617  1.0000
  H   H3942     1.0  0.86472  0.47395  0.81299  1.0000
  C   C2318     1.0  0.97206  0.45461  0.57431  1.0000
  H   H3943     1.0  0.67446  0.46332  0.78472  1.0000
  H   H3944     1.0  0.88216  0.37686  0.48158  1.0000
  C   C2319     1.0  0.75312  0.46231  0.71819  1.0000
  H   H3945     1.0  0.90301  0.47991  0.60174  1.0000
  H   H3946     1.0  0.85053  0.46539  0.78834  1.0000
  C   C2320     1.0  0.95718  0.29889  0.84383  1.0000
  H   H3947     1.0  0.82578  0.24267  0.91123  1.0000
  C   C2321     1.0  0.70892  0.47987  0.78211  1.0000
  H   H3948     1.0  0.87544  0.24559  0.94278  1.0000
  H   H3949     1.0  0.91186  0.42753  0.61007  1.0000
  S   S659      1.0  0.71656  0.48299  0.66754  1.0000
  H   H3950     1.0  0.85378  0.47062  0.83852  1.0000
  C   C2322     1.0  0.90939  0.47825  0.87668  1.0000
  H   H3951     1.0  0.86167  0.47621  0.95947  1.0000
  H   H3952     1.0  0.79390  0.38531  0.95531  1.0000
  H   H3953     1.0  0.88232  0.28645  0.88163  1.0000
  H   H3954     1.0  0.98943  0.24604  0.82169  1.0000
  C   C2323     1.0  0.83647  0.40367  0.48084  1.0000
  Fe  Fe328     1.0  0.83899  0.47790  0.54209  1.0000
  C   C2324     1.0  0.79972  0.47781  0.58414  1.0000
  H   H3955     1.0  0.89781  0.47782  0.57222  1.0000
  S   S660      1.0  0.80480  0.47920  0.78323  1.0000
  H   H3956     1.0  0.83998  0.46658  0.82181  1.0000
  C   C2325     1.0  0.93717  0.32376  0.96895  1.0000
  H   H3957     1.0  0.85261  0.25171  0.87670  1.0000
  C   C2326     1.0  0.99215  0.31377  0.85081  1.0000
  H   H3958     1.0  0.95246  0.48353  0.51190  1.0000
  C   C2327     1.0  0.76534  0.48129  0.57938  1.0000
  H   H3959     1.0  0.85328  0.24640  0.93389  1.0000
  H   H3960     1.0  0.76621  0.46945  0.62886  1.0000
  H   H3961     1.0  0.79161  0.48489  0.55542  1.0000
  C   C2328     1.0  0.86118  0.48490  0.92277  1.0000
  S   S661      1.0  0.92531  0.23594  0.93854  1.0000
  C   C2329     1.0  0.98205  0.23979  0.97744  1.0000
  H   H3962     1.0  0.91965  0.55911  0.16385  1.0000
  C   C2330     1.0  0.80259  0.53815  0.41481  1.0000
  Fe  Fe329     1.0  0.84481  0.61342  0.40604  1.0000
  S   S662      1.0  0.87000  0.59653  0.38595  1.0000
  S   S663      1.0  0.84491  0.60270  0.43880  1.0000
  Fe  Fe330     1.0  0.83058  0.64383  0.37114  1.0000
  S   S664      1.0  0.85543  0.62919  0.34850  1.0000
  S   S665      1.0  0.80945  0.67048  0.35707  1.0000
  Fe  Fe331     1.0  0.84708  0.60035  0.36705  1.0000
  S   S666      1.0  0.84108  0.57356  0.35797  1.0000
  Fe  Fe332     1.0  0.87594  0.62699  0.36956  1.0000
  S   S667      1.0  0.90884  0.63164  0.36071  1.0000
  S   S668      1.0  0.82114  0.61501  0.38873  1.0000
  S   S669      1.0  0.85176  0.64381  0.39065  1.0000
  C   C2331     1.0  0.90437  0.58580  0.46313  1.0000
  C   C2332     1.0  0.68771  0.52020  0.22317  1.0000
  Fe  Fe333     1.0  0.72824  0.50282  0.99305  1.0000
  H   H3963     1.0  0.96189  0.65550  0.37878  1.0000
  Fe  Fe334     1.0  0.82823  0.53659  0.26728  1.0000
  S   S670      1.0  0.79666  0.53064  0.27117  1.0000
  S   S671      1.0  0.83633  0.56479  0.27143  1.0000
  H   H3964     1.0  0.74525  0.48710  0.02579  1.0000
  H   H3965     1.0  0.80509  0.65728  0.32249  1.0000
  Fe  Fe335     1.0  0.80846  0.51773  0.24303  1.0000
  S   S672      1.0  0.79162  0.52511  0.21728  1.0000
  S   S673      1.0  0.84025  0.50669  0.28459  1.0000
  S   S674      1.0  0.83907  0.52665  0.23758  1.0000
  C   C2333     1.0  0.80090  0.62078  0.34277  1.0000
  H   H3966     1.0  0.95266  0.62097  0.44392  1.0000
  H   H3967     1.0  0.90228  0.70747  0.42142  1.0000
  H   H3968     1.0  0.81656  0.61217  0.33829  1.0000
  S   S675      1.0  0.68243  0.54426  0.14652  1.0000
  C   C2334     1.0  0.73018  0.54922  0.21819  1.0000
  H   H3969     1.0  0.69653  0.52916  0.18435  1.0000
  C   C2335     1.0  0.85837  0.51673  0.37084  1.0000
  H   H3970     1.0  0.67585  0.56049  0.18505  1.0000
  C   C2336     1.0  0.78738  0.62452  0.29184  1.0000
  H   H3971     1.0  0.78074  0.48613  0.23750  1.0000
  S   S676      1.0  0.68997  0.49283  0.13187  1.0000
  C   C2337     1.0  0.75267  0.70600  0.39238  1.0000
  C   C2338     1.0  0.92592  0.58377  0.39732  1.0000
  H   H3972     1.0  0.77356  0.66942  0.33784  1.0000
  H   H3973     1.0  0.77129  0.63253  0.29310  1.0000
  H   H3974     1.0  0.88805  0.59187  0.46283  1.0000
  H   H3975     1.0  0.90827  0.53039  0.24587  1.0000
  H   H3976     1.0  0.80280  0.63173  0.35094  1.0000
  C   C2339     1.0  0.71871  0.53181  0.22213  1.0000
  H   H3977     1.0  0.80587  0.55313  0.41380  1.0000
  H   H3978     1.0  0.83583  0.63134  0.31490  1.0000
  H   H3979     1.0  0.82034  0.52165  0.43634  1.0000
  H   H3980     1.0  0.91128  0.59105  0.39273  1.0000
  H   H3981     1.0  0.68216  0.55781  0.22769  1.0000
  H   H3982     1.0  0.91547  0.73374  0.40400  1.0000
  C   C2340     1.0  0.85457  0.50182  0.41450  1.0000
  C   C2341     1.0  0.92867  0.73454  0.40991  1.0000
  H   H3983     1.0  0.93741  0.58168  0.38336  1.0000
  C   C2342     1.0  0.80443  0.64711  0.31286  1.0000
  H   H3984     1.0  0.78714  0.59364  0.35113  1.0000
  C   C2343     1.0  0.77917  0.50878  0.21097  1.0000
  C   C2344     1.0  0.77221  0.51447  0.19295  1.0000
  H   H3985     1.0  0.70959  0.49546  0.23724  1.0000
  H   H3986     1.0  0.86278  0.51173  0.43851  1.0000
  C   C2345     1.0  0.71473  0.49661  0.04202  1.0000
  C   C2346     1.0  0.84488  0.54632  0.47048  1.0000
  H   H3987     1.0  0.73580  0.55486  0.20220  1.0000
  H   H3988     1.0  0.79767  0.63439  0.28184  1.0000
  C   C2347     1.0  0.70254  0.49889  0.06081  1.0000
  H   H3989     1.0  0.90006  0.67686  0.40713  1.0000
  H   H3990     1.0  0.82833  0.62926  0.29284  1.0000
  H   H3991     1.0  0.86961  0.63350  0.42899  1.0000
  H   H3992     1.0  0.83403  0.65214  0.29480  1.0000
  N   N166      1.0  0.84085  0.52113  0.40734  1.0000
  H   H3993     1.0  0.71940  0.54540  0.16008  1.0000
  H   H3994     1.0  0.86613  0.50087  0.37430  1.0000
  H   H3995     1.0  0.84844  0.48875  0.41371  1.0000
  C   C2348     1.0  0.76609  0.65635  0.34488  1.0000
  H   H3996     1.0  0.67681  0.59169  0.07215  1.0000
  H   H3997     1.0  0.91002  0.57318  0.43726  1.0000
  N   N167      1.0  0.79213  0.63139  0.32466  1.0000
  H   H3998     1.0  0.79716  0.59826  0.37000  1.0000
  C   C2349     1.0  0.84006  0.57154  0.33368  1.0000
  C   C2350     1.0  0.83130  0.55621  0.33160  1.0000
  C   C2351     1.0  0.83030  0.55387  0.31263  1.0000
  C   C2352     1.0  0.83794  0.56695  0.29549  1.0000
  C   C2353     1.0  0.84669  0.58233  0.29753  1.0000
  C   C2354     1.0  0.84784  0.58457  0.31654  1.0000
  H   H3999     1.0  0.82509  0.54613  0.34472  1.0000
  H   H4000     1.0  0.82340  0.54206  0.31129  1.0000
  H   H4001     1.0  0.85274  0.59246  0.28434  1.0000
  H   H4002     1.0  0.85496  0.59620  0.31790  1.0000
  C   C2355     1.0  0.91735  0.64660  0.37273  1.0000
  C   C2356     1.0  0.90363  0.65810  0.38592  1.0000
  C   C2357     1.0  0.93838  0.64611  0.36988  1.0000
  H   H4003     1.0  0.88743  0.65889  0.38804  1.0000
  H   H4004     1.0  0.94912  0.63737  0.35959  1.0000
  H   H4005     1.0  0.88851  0.60082  0.42338  1.0000
  H   H4006     1.0  0.87168  0.55110  0.38420  1.0000
  S   S677      1.0  0.98049  0.68635  0.43393  1.0000
  C   C2358     1.0  0.83865  0.57899  0.44888  1.0000
  C   C2359     1.0  0.82142  0.57437  0.44540  1.0000
  C   C2360     1.0  0.81556  0.55601  0.45495  1.0000
  H   H4007     1.0  0.89959  0.61979  0.40586  1.0000
  H   H4008     1.0  0.99617  0.64733  0.03073  1.0000
  H   H4009     1.0  0.81221  0.58527  0.43590  1.0000
  H   H4010     1.0  0.80182  0.55276  0.45278  1.0000
  C   C2361     1.0  0.78280  0.67910  0.39195  1.0000
  C   C2362     1.0  0.78789  0.68404  0.37112  1.0000
  H   H4011     1.0  0.79229  0.66676  0.39988  1.0000
  C   C2363     1.0  0.82684  0.63920  0.30340  1.0000
  C   C2364     1.0  0.77544  0.70008  0.36100  1.0000
  H   H4012     1.0  0.70613  0.49220  0.21375  1.0000
  H   H4013     1.0  0.68435  0.57550  0.00342  1.0000
  H   H4014     1.0  0.89339  0.52673  0.18361  1.0000
  H   H4015     1.0  0.71315  0.52852  0.23865  1.0000
  C   C2365     1.0  0.77018  0.64155  0.33060  1.0000
  H   H4016     1.0  0.71527  0.56151  0.17682  1.0000
  H   H4017     1.0  0.69770  0.56756  0.20526  1.0000
  H   H4018     1.0  0.78905  0.61176  0.28436  1.0000
  S   S678      1.0  0.99505  0.51384  0.17053  1.0000
  H   H4019     1.0  0.87617  0.54811  0.40876  1.0000
  C   C2366     1.0  0.72108  0.54573  0.17523  1.0000
  C   C2367     1.0  0.76156  0.50237  0.18768  1.0000
  H   H4020     1.0  0.79164  0.72678  0.38283  1.0000
  C   C2368     1.0  0.83865  0.52174  0.38645  1.0000
  H   H4021     1.0  0.78236  0.60572  0.32058  1.0000
  C   C2369     1.0  0.70172  0.54768  0.09110  1.0000
  C   C2370     1.0  0.78873  0.60573  0.35791  1.0000
  H   H4022     1.0  0.94980  0.59544  0.44953  1.0000
  H   H4023     1.0  0.87859  0.51084  0.20205  1.0000
  H   H4024     1.0  0.79905  0.53729  0.40060  1.0000
  H   H4025     1.0  0.71938  0.51591  0.19091  1.0000
  H   H4026     1.0  0.88161  0.62344  0.44978  1.0000
  H   H4027     1.0  0.69038  0.56294  0.06488  1.0000
  H   H4028     1.0  0.92480  0.56864  0.40641  1.0000
  N   N168      1.0  0.70131  0.53497  0.21161  1.0000
  C   C2371     1.0  0.76525  0.69010  0.40254  1.0000
  H   H4029     1.0  0.77509  0.52836  0.18303  1.0000
  Fe  Fe336     1.0  0.69537  0.51131  0.15101  1.0000
  C   C2372     1.0  0.89764  0.71145  0.43644  1.0000
  C   C2373     1.0  0.70909  0.53080  0.19072  1.0000
  H   H4030     1.0  0.86905  0.52693  0.36858  1.0000
  H   H4031     1.0  0.75645  0.50690  0.17372  1.0000
  C   C2374     1.0  0.93186  0.66733  0.39437  1.0000
  H   H4032     1.0  0.77929  0.70399  0.34488  1.0000
  H   H4033     1.0  0.88705  0.57170  0.22551  1.0000
  C   C2375     1.0  0.81997  0.52095  0.42087  1.0000
  C   C2376     1.0  0.94565  0.65637  0.38073  1.0000
  C   C2377     1.0  0.79298  0.61611  0.31248  1.0000
  S   S679      1.0  0.75223  0.52083  0.98871  1.0000
  Fe  Fe337     1.0  0.97274  0.68212  0.40627  1.0000
  C   C2378     1.0  0.91815  0.49180  0.27012  1.0000
  H   H4034     1.0  0.73758  0.54166  0.17547  1.0000
  N   N169      1.0  0.91856  0.60233  0.42682  1.0000
  C   C2379     1.0  0.93303  0.59678  0.40808  1.0000
  C   C2380     1.0  0.92723  0.61685  0.43348  1.0000
  C   C2381     1.0  0.89791  0.61221  0.42180  1.0000
  C   C2382     1.0  0.91705  0.58333  0.44221  1.0000
  C   C2383     1.0  0.91085  0.66835  0.39669  1.0000
  C   C2384     1.0  0.94882  0.60932  0.43799  1.0000
  C   C2385     1.0  0.77548  0.49071  0.22360  1.0000
  H   H4035     1.0  0.78731  0.50722  0.13014  1.0000
  H   H4036     1.0  0.93620  0.61052  0.39698  1.0000
  H   H4037     1.0  0.94807  0.58828  0.41122  1.0000
  H   H4038     1.0  0.91725  0.62184  0.44712  1.0000
  H   H4039     1.0  0.92787  0.63075  0.42183  1.0000
  H   H4040     1.0  0.93978  0.71727  0.46877  1.0000
  H   H4041     1.0  0.67568  0.52049  0.21511  1.0000
  H   H4042     1.0  0.89265  0.69808  0.44693  1.0000
  H   H4043     1.0  0.93252  0.57477  0.44400  1.0000
  H   H4044     1.0  0.94932  0.52439  0.23044  1.0000
  H   H4045     1.0  0.77349  0.61323  0.36510  1.0000
  H   H4046     1.0  0.69908  0.56038  0.09884  1.0000
  H   H4047     1.0  0.74820  0.72307  0.36357  1.0000
  H   H4048     1.0  0.90550  0.50332  0.19776  1.0000
  H   H4049     1.0  0.96066  0.60721  0.42430  1.0000
  H   H4050     1.0  0.76423  0.65036  0.31721  1.0000
  H   H4051     1.0  0.88426  0.72395  0.43690  1.0000
  C   C2386     1.0  0.87043  0.54119  0.39918  1.0000
  H   H4052     1.0  0.83864  0.55333  0.40127  1.0000
  H   H4053     1.0  0.66880  0.53538  0.11569  1.0000
  C   C2387     1.0  0.84793  0.53951  0.40853  1.0000
  H   H4054     1.0  0.89154  0.64213  0.42960  1.0000
  C   C2388     1.0  0.75785  0.71098  0.37156  1.0000
  S   S680      1.0  0.73078  0.71947  0.40613  1.0000
  H   H4055     1.0  0.86540  0.49456  0.98394  1.0000
  H   H4056     1.0  0.68679  0.48875  0.23569  1.0000
  H   H4057     1.0  0.78846  0.53682  0.42649  1.0000
  H   H4058     1.0  0.80834  0.60630  0.31018  1.0000
  Fe  Fe338     1.0  0.80961  0.49987  0.28647  1.0000
  C   C2389     1.0  0.91558  0.71611  0.44278  1.0000
  H   H4059     1.0  0.76016  0.63033  0.33756  1.0000
  H   H4060     1.0  0.74942  0.66239  0.34856  1.0000
  H   H4061     1.0  0.77080  0.64921  0.35923  1.0000
  H   H4062     1.0  0.67195  0.55888  0.04339  1.0000
  Fe  Fe339     1.0  0.77413  0.49415  0.97851  1.0000
  H   H4063     1.0  0.84088  0.50084  0.97774  1.0000
  H   H4064     1.0  0.94226  0.54840  0.17298  1.0000
  S   S681      1.0  0.81921  0.48651  0.25881  1.0000
  H   H4065     1.0  0.92454  0.53297  0.17347  1.0000
  H   H4066     1.0  0.79697  0.65705  0.30081  1.0000
  H   H4067     1.0  0.76129  0.68616  0.41866  1.0000
  S   S682      1.0  0.94000  0.67886  0.40986  1.0000
  S   S683      1.0  0.70358  0.50305  0.02100  1.0000
  H   H4068     1.0  0.74384  0.54380  0.22504  1.0000
  H   H4069     1.0  0.88557  0.49852  0.27193  1.0000
  C   C2390     1.0  0.68636  0.55079  0.07760  1.0000
  N   N170      1.0  0.91143  0.53572  0.21370  1.0000
  C   C2391     1.0  0.90842  0.54313  0.23288  1.0000
  C   C2392     1.0  0.92962  0.51870  0.21310  1.0000
  C   C2393     1.0  0.89249  0.52801  0.21470  1.0000
  C   C2394     1.0  0.91441  0.55297  0.19633  1.0000
  H   H4070     1.0  0.72062  0.56176  0.22543  1.0000
  C   C2395     1.0  0.94962  0.52362  0.21482  1.0000
  C   C2396     1.0  0.89302  0.51665  0.19838  1.0000
  C   C2397     1.0  0.92584  0.54759  0.17579  1.0000
  H   H4071     1.0  0.88942  0.56463  0.25105  1.0000
  H   H4072     1.0  0.92136  0.55013  0.23269  1.0000
  H   H4073     1.0  0.93321  0.51238  0.19940  1.0000
  H   H4074     1.0  0.92618  0.50600  0.22539  1.0000
  H   H4075     1.0  0.88859  0.51776  0.22928  1.0000
  H   H4076     1.0  0.87906  0.54051  0.21405  1.0000
  H   H4077     1.0  0.89945  0.56280  0.19442  1.0000
  H   H4078     1.0  0.92344  0.56262  0.19949  1.0000
  S   S684      1.0  0.72941  0.50204  0.14420  1.0000
  H   H4079     1.0  0.95411  0.72485  0.43378  1.0000
  H   H4080     1.0  0.71741  0.54657  0.08169  1.0000
  H   H4081     1.0  0.95313  0.53766  0.20465  1.0000
  H   H4082     1.0  0.99903  0.71295  0.02201  1.0000
  H   H4083     1.0  0.96242  0.51129  0.21070  1.0000
  C   C2398     1.0  0.71130  0.49365  0.07771  1.0000
  H   H4084     1.0  0.84373  0.49592  0.44724  1.0000
  C   C2399     1.0  0.68851  0.55570  0.21197  1.0000
  C   C2400     1.0  0.85032  0.56500  0.46149  1.0000
  C   C2401     1.0  0.79829  0.73005  0.39418  1.0000
  H   H4085     1.0  0.67944  0.52426  0.23787  1.0000
  H   H4086     1.0  0.99119  0.52899  0.13023  1.0000
  H   H4087     1.0  0.85422  0.51876  0.35616  1.0000
  H   H4088     1.0  0.68994  0.53722  0.07081  1.0000
  H   H4089     1.0  0.83061  0.53680  0.38015  1.0000
  H   H4090     1.0  0.90505  0.57079  0.47304  1.0000
  Fe  Fe340     1.0  0.84887  0.49627  0.25545  1.0000
  C   C2402     1.0  0.82738  0.54192  0.46734  1.0000
  C   C2403     1.0  0.88880  0.55875  0.23797  1.0000
  H   H4091     1.0  0.88111  0.52686  0.39783  1.0000
  H   H4092     1.0  0.91047  0.71593  0.45909  1.0000
  H   H4093     1.0  0.87499  0.55189  0.24247  1.0000
  H   H4094     1.0  0.94005  0.72056  0.40765  1.0000
  C   C2404     1.0  0.88463  0.62860  0.43343  1.0000
  H   H4095     1.0  0.69470  0.54942  0.00631  1.0000
  H   H4096     1.0  0.73040  0.51842  0.21854  1.0000
  S   S685      1.0  0.98362  0.70978  0.38742  1.0000
  H   H4097     1.0  0.82889  0.51106  0.38669  1.0000
  H   H4098     1.0  0.70171  0.53342  0.10214  1.0000
  H   H4099     1.0  0.68633  0.50473  0.06228  1.0000
  Fe  Fe341     1.0  0.99393  0.71223  0.41420  1.0000
  C   C2405     1.0  0.78705  0.49305  0.12584  1.0000
  C   C2406     1.0  0.67053  0.56112  0.20113  1.0000
  H   H4100     1.0  0.84498  0.54146  0.42425  1.0000
  H   H4101     1.0  0.92855  0.70312  0.44120  1.0000
  H   H4102     1.0  0.91040  0.59509  0.47007  1.0000
  H   H4103     1.0  0.91744  0.50128  0.28042  1.0000
  H   H4104     1.0  0.81494  0.50663  0.42211  1.0000
  C   C2407     1.0  0.69845  0.49802  0.22757  1.0000
  N   N171      1.0  0.92245  0.73550  0.43184  1.0000
  C   C2408     1.0  0.90009  0.49027  0.26530  1.0000
  H   H4105     1.0  0.99606  0.68143  0.02386  1.0000
  H   H4106     1.0  0.67984  0.60267  0.98168  1.0000
  H   H4107     1.0  0.77207  0.49501  0.12181  1.0000
  H   H4108     1.0  0.86997  0.49999  0.40476  1.0000
  H   H4109     1.0  0.71134  0.56646  0.99492  1.0000
  C   C2409     1.0  0.73567  0.48896  0.04022  1.0000
  H   H4110     1.0  0.76991  0.73260  0.41462  1.0000
  H   H4111     1.0  0.70180  0.49548  0.09200  1.0000
  S   S686      1.0  0.69051  0.48829  0.17908  1.0000
  H   H4112     1.0  0.80423  0.71520  0.40279  1.0000
  C   C2410     1.0  0.85772  0.49885  0.43597  1.0000
  C   C2411     1.0  0.93846  0.73341  0.46182  1.0000
  H   H4113     1.0  0.79915  0.49134  0.11236  1.0000
  H   H4114     1.0  0.86358  0.56860  0.46431  1.0000
  C   C2412     1.0  0.69571  0.56408  0.99602  1.0000
  H   H4115     1.0  0.85106  0.67301  0.92239  1.0000
  H   H4116     1.0  0.84458  0.66360  0.89685  1.0000
  C   C2413     1.0  0.73255  0.50140  0.90647  1.0000
  H   H4117     1.0  0.99522  0.49000  0.63016  1.0000
  C   C2414     1.0  0.95162  0.66145  0.84037  1.0000
  H   H4118     1.0  0.88340  0.53238  0.85635  1.0000
  S   S687      1.0  0.97047  0.51091  0.60107  1.0000
  S   S688      1.0  0.94035  0.52807  0.56014  1.0000
  C   C2415     1.0  0.98382  0.66471  0.81672  1.0000
  H   H4119     1.0  0.96383  0.50182  0.53203  1.0000
  H   H4120     1.0  0.82596  0.65679  0.94410  1.0000
  Fe  Fe342     1.0  0.97137  0.52211  0.56836  1.0000
  C   C2416     1.0  0.87024  0.66874  0.94312  1.0000
  H   H4121     1.0  0.74815  0.51257  0.71488  1.0000
  Fe  Fe343     1.0  0.80522  0.50119  0.80154  1.0000
  S   S689      1.0  0.83510  0.51056  0.79873  1.0000
  S   S690      1.0  0.77543  0.52034  0.79588  1.0000
  N   N172      1.0  0.68066  0.58059  0.96414  1.0000
  H   H4122     1.0  0.68756  0.54728  0.94528  1.0000
  C   C2417     1.0  0.73824  0.50143  0.87100  1.0000
  C   C2418     1.0  0.82166  0.56510  0.51811  1.0000
  H   H4123     1.0  0.83696  0.64278  0.89280  1.0000
  H   H4124     1.0  0.99185  0.58758  0.57295  1.0000
  C   C2419     1.0  0.96987  0.65716  0.87378  1.0000
  S   S691      1.0  0.92840  0.66659  0.91847  1.0000
  H   H4125     1.0  0.79485  0.51609  0.52766  1.0000
  H   H4126     1.0  0.88477  0.54205  0.91853  1.0000
  S   S692      1.0  0.93753  0.70776  0.94201  1.0000
  Fe  Fe344     1.0  0.85261  0.58503  0.89754  1.0000
  S   S693      1.0  0.88578  0.58579  0.89240  1.0000
  S   S694      1.0  0.83483  0.58246  0.92918  1.0000
  Fe  Fe345     1.0  0.85461  0.58573  0.85370  1.0000
  S   S695      1.0  0.88808  0.58706  0.84487  1.0000
  S   S696      1.0  0.83378  0.58674  0.83312  1.0000
  Fe  Fe346     1.0  0.89026  0.56355  0.87278  1.0000
  S   S697      1.0  0.91330  0.53491  0.87732  1.0000
  Fe  Fe347     1.0  0.88051  0.60930  0.86547  1.0000
  S   S698      1.0  0.89024  0.63958  0.85845  1.0000
  S   S699      1.0  0.85742  0.56090  0.88022  1.0000
  S   S700      1.0  0.84672  0.60991  0.87193  1.0000
  H   H4127     1.0  0.85981  0.54231  0.93373  1.0000
  H   H4128     1.0  0.77281  0.57439  0.50839  1.0000
  H   H4129     1.0  0.66907  0.65859  0.89223  1.0000
  H   H4130     1.0  0.84906  0.62021  0.92033  1.0000
  H   H4131     1.0  0.82948  0.57135  0.50283  1.0000
  H   H4132     1.0  0.81321  0.54461  0.55397  1.0000
  H   H4133     1.0  0.90114  0.52568  0.55559  1.0000
  H   H4134     1.0  0.92770  0.49240  0.88772  1.0000
  Fe  Fe348     1.0  0.76133  0.50060  0.82350  1.0000
  H   H4135     1.0  0.68984  0.56130  0.92036  1.0000
  S   S701      1.0  0.77270  0.50494  0.94627  1.0000
  C   C2420     1.0  0.91856  0.65953  0.90096  1.0000
  C   C2421     1.0  0.91890  0.63913  0.90236  1.0000
  C   C2422     1.0  0.91030  0.63284  0.88943  1.0000
  C   C2423     1.0  0.90122  0.64694  0.87495  1.0000
  C   C2424     1.0  0.90101  0.66738  0.87342  1.0000
  C   C2425     1.0  0.90965  0.67368  0.88638  1.0000
  H   H4136     1.0  0.92584  0.62809  0.91356  1.0000
  H   H4137     1.0  0.91079  0.61706  0.89060  1.0000
  H   H4138     1.0  0.89401  0.67837  0.86225  1.0000
  H   H4139     1.0  0.90910  0.68946  0.88535  1.0000
  H   H4140     1.0  0.72666  0.50921  0.91883  1.0000
  C   C2426     1.0  0.87623  0.60390  0.94200  1.0000
  H   H4141     1.0  0.88376  0.65869  0.94827  1.0000
  C   C2427     1.0  0.77191  0.56788  0.93734  1.0000
  C   C2428     1.0  0.78482  0.55733  0.95036  1.0000
  C   C2429     1.0  0.80394  0.56221  0.94800  1.0000
  C   C2430     1.0  0.81064  0.57699  0.93206  1.0000
  C   C2431     1.0  0.79789  0.58741  0.91886  1.0000
  C   C2432     1.0  0.77832  0.58315  0.92176  1.0000
  C   C2433     1.0  0.70677  0.60339  0.95853  1.0000
  H   H4142     1.0  0.81364  0.55432  0.95841  1.0000
  H   H4143     1.0  0.80298  0.59896  0.90660  1.0000
  H   H4144     1.0  0.76840  0.59134  0.91165  1.0000
  H   H4145     1.0  0.98020  0.65381  0.88442  1.0000
  C   C2434     1.0  0.68668  0.57974  0.94215  1.0000
  H   H4146     1.0  0.76308  0.55823  0.55034  1.0000
  H   H4147     1.0  0.81163  0.62990  0.96784  1.0000
  C   C2435     1.0  0.99521  0.73044  0.84303  1.0000
  C   C2436     1.0  0.80914  0.55014  0.51675  1.0000
  H   H4148     1.0  0.77770  0.59243  0.52012  1.0000
  C   C2437     1.0  0.68196  0.56184  0.93612  1.0000
  H   H4149     1.0  0.78307  0.57087  0.54880  1.0000
  C   C2438     1.0  0.82803  0.52059  0.91997  1.0000
  H   H4150     1.0  0.99434  0.70280  0.86425  1.0000
  C   C2439     1.0  0.83708  0.64364  0.94983  1.0000
  Fe  Fe349     1.0  0.93815  0.69635  0.91461  1.0000
  H   H4151     1.0  0.77787  0.52184  0.57376  1.0000
  C   C2440     1.0  0.83495  0.53192  0.80785  1.0000
  C   C2441     1.0  0.85127  0.53249  0.81606  1.0000
  C   C2442     1.0  0.85125  0.54928  0.82374  1.0000
  C   C2443     1.0  0.83526  0.56587  0.82255  1.0000
  C   C2444     1.0  0.81944  0.56561  0.81347  1.0000
  C   C2445     1.0  0.81903  0.54854  0.80657  1.0000
  H   H4152     1.0  0.86378  0.51977  0.81685  1.0000
  H   H4153     1.0  0.86363  0.54944  0.83047  1.0000
  H   H4154     1.0  0.80711  0.57847  0.81240  1.0000
  H   H4155     1.0  0.80647  0.54829  0.80018  1.0000
  Fe  Fe350     1.0  0.74856  0.53005  0.95706  1.0000
  H   H4156     1.0  0.70429  0.50349  0.72247  1.0000
  S   S702      1.0  0.92613  0.72657  0.89753  1.0000
  H   H4157     1.0  0.86894  0.63238  0.90569  1.0000
  C   C2446     1.0  0.98217  0.66243  0.85224  1.0000
  C   C2447     1.0  0.77063  0.53596  0.51471  1.0000
  C   C2448     1.0  0.87342  0.62603  0.94359  1.0000
  H   H4158     1.0  0.74117  0.48827  0.69809  1.0000
  S   S703      1.0  0.70881  0.71871  0.92618  1.0000
  H   H4159     1.0  0.68219  0.64245  0.92002  1.0000
  H   H4160     1.0  0.77220  0.52370  0.54491  1.0000
  C   C2449     1.0  0.99278  0.53332  0.67474  1.0000
  H   H4161     1.0  0.67917  0.59366  0.93317  1.0000
  C   C2450     1.0  0.69181  0.67147  0.90708  1.0000
  H   H4162     1.0  0.70587  0.71562  0.86214  1.0000
  S   S704      1.0  0.76396  0.50754  0.75008  1.0000
  H   H4163     1.0  0.71634  0.49174  0.78356  1.0000
  H   H4164     1.0  0.79915  0.57903  0.87887  1.0000
  C   C2451     1.0  0.91555  0.49478  0.87979  1.0000
  H   H4165     1.0  0.80771  0.51161  0.72347  1.0000
  C   C2452     1.0  0.91240  0.51642  0.54612  1.0000
  C   C2453     1.0  0.93327  0.51492  0.54527  1.0000
  C   C2454     1.0  0.87382  0.51479  0.92148  1.0000
  H   H4166     1.0  0.99696  0.52377  0.70488  1.0000
  C   C2455     1.0  0.86347  0.66099  0.92756  1.0000
  H   H4167     1.0  0.83605  0.53202  0.90934  1.0000
  H   H4168     1.0  0.70839  0.61678  0.96336  1.0000
  H   H4169     1.0  0.85820  0.51801  0.96811  1.0000
  H   H4170     1.0  0.80295  0.55625  0.50305  1.0000
  H   H4171     1.0  0.92003  0.49538  0.58704  1.0000
  H   H4172     1.0  0.83580  0.52429  0.94610  1.0000
  C   C2456     1.0  0.99256  0.58089  0.63512  1.0000
  C   C2457     1.0  0.70140  0.70707  0.87751  1.0000
  H   H4173     1.0  0.76555  0.52268  0.51302  1.0000
  C   C2458     1.0  0.66719  0.68908  0.96577  1.0000
  H   H4174     1.0  0.94612  0.66295  0.81041  1.0000
  H   H4175     1.0  0.70061  0.68002  0.91215  1.0000
  H   H4176     1.0  0.77473  0.56183  0.83520  1.0000
  C   C2459     1.0  0.78299  0.52940  0.53129  1.0000
  H   H4177     1.0  0.99642  0.52701  0.66098  1.0000
  C   C2460     1.0  0.75215  0.49665  0.72048  1.0000
  H   H4178     1.0  0.74997  0.53296  0.91010  1.0000
  H   H4179     1.0  0.67480  0.61302  0.95782  1.0000
  H   H4180     1.0  0.87139  0.62654  0.95965  1.0000
  H   H4181     1.0  0.69691  0.71799  0.88758  1.0000
  H   H4182     1.0  0.99299  0.64820  0.84964  1.0000
  C   C2461     1.0  0.77029  0.57934  0.52268  1.0000
  H   H4183     1.0  0.87639  0.66043  0.91441  1.0000
  H   H4184     1.0  0.93223  0.68433  0.82194  1.0000
  H   H4185     1.0  0.81352  0.52073  0.54945  1.0000
  C   C2462     1.0  0.90594  0.50590  0.53497  1.0000
  H   H4186     1.0  0.83516  0.61252  0.96501  1.0000
  H   H4187     1.0  0.81916  0.55798  0.87592  1.0000
  C   C2463     1.0  0.92178  0.48629  0.61816  1.0000
  H   H4188     1.0  0.80996  0.49678  0.85750  1.0000
  H   H4189     1.0  0.78000  0.54560  0.96246  1.0000
  H   H4190     1.0  0.93692  0.48989  0.61660  1.0000
  N   N173      1.0  0.85679  0.64099  0.93451  1.0000
  H   H4191     1.0  0.67413  0.70869  0.91384  1.0000
  S   S705      1.0  0.73693  0.51458  0.84668  1.0000
  H   H4192     1.0  0.81993  0.52521  0.87933  1.0000
  H   H4193     1.0  0.77541  0.51796  0.85796  1.0000
  H   H4194     1.0  0.79533  0.52753  0.83993  1.0000
  S   S706      1.0  0.98816  0.54637  0.56723  1.0000
  H   H4195     1.0  0.96346  0.64351  0.87589  1.0000
  C   C2464     1.0  0.93817  0.66795  0.82464  1.0000
  H   H4196     1.0  0.87497  0.68335  0.93598  1.0000
  H   H4197     1.0  0.97891  0.69979  0.82922  1.0000
  C   C2465     1.0  0.92032  0.49395  0.52261  1.0000
  S   S707      1.0  0.99828  0.70044  0.94083  1.0000
  C   C2466     1.0  0.99727  0.73270  0.95757  1.0000
  H   H4198     1.0  0.86962  0.52102  0.90671  1.0000
  H   H4199     1.0  0.77975  0.54158  0.49993  1.0000
  H   H4200     1.0  0.75362  0.58519  0.52692  1.0000
  H   H4201     1.0  0.98652  0.64814  0.81796  1.0000
  H   H4202     1.0  0.87257  0.50332  0.85075  1.0000
  H   H4203     1.0  0.79995  0.56231  0.85095  1.0000
  H   H4204     1.0  0.78109  0.54410  0.74404  1.0000
  S   S708      1.0  0.74801  0.56166  0.94023  1.0000
  H   H4205     1.0  0.95649  0.69992  0.86242  1.0000
  C   C2467     1.0  0.68763  0.71319  0.94483  1.0000
  H   H4206     1.0  0.74883  0.54588  0.88533  1.0000
  H   H4207     1.0  0.88218  0.52752  0.94314  1.0000
  C   C2468     1.0  0.69296  0.56257  0.97535  1.0000
  H   H4208     1.0  0.79861  0.52255  0.58397  1.0000
  H   H4209     1.0  0.85767  0.67141  0.95612  1.0000
  H   H4210     1.0  0.97625  0.58609  0.63935  1.0000
  C   C2469     1.0  0.66823  0.71221  0.82356  1.0000
  N   N174      1.0  0.97033  0.67070  0.83571  1.0000
  N   N175      1.0  0.85976  0.50098  0.93430  1.0000
  H   H4211     1.0  0.67258  0.66027  0.93646  1.0000
  H   H4212     1.0  0.78574  0.56689  0.72770  1.0000
  S   S709      1.0  0.85299  0.50329  0.52182  1.0000
  S   S710      1.0  0.97102  0.69843  0.90203  1.0000
  H   H4213     1.0  0.67689  0.50564  0.73128  1.0000
  C   C2470     1.0  0.78906  0.53106  0.57301  1.0000
  C   C2471     1.0  0.76079  0.48989  0.73749  1.0000
  H   H4214     1.0  0.97634  0.67140  0.80378  1.0000
  H   H4215     1.0  0.91030  0.49978  0.62172  1.0000
  H   H4216     1.0  0.70870  0.55907  0.96631  1.0000
  H   H4217     1.0  0.88979  0.50647  0.91801  1.0000
  C   C2472     1.0  0.94123  0.49267  0.52150  1.0000
  C   C2473     1.0  0.80240  0.56247  0.88037  1.0000
  H   H4218     1.0  0.72291  0.52699  0.88455  1.0000
  C   C2474     1.0  0.83779  0.51175  0.93832  1.0000
  H   H4219     1.0  0.67509  0.54398  0.70970  1.0000
  N   N176      1.0  0.81320  0.54638  0.73488  1.0000
  C   C2475     1.0  0.79080  0.55562  0.74048  1.0000
  C   C2476     1.0  0.81680  0.54128  0.71451  1.0000
  C   C2477     1.0  0.82559  0.56172  0.73417  1.0000
  C   C2478     1.0  0.81762  0.52807  0.75065  1.0000
  H   H4220     1.0  0.95867  0.69929  0.81841  1.0000
  C   C2479     1.0  0.80464  0.52607  0.71302  1.0000
  C   C2480     1.0  0.84760  0.55929  0.72158  1.0000
  C   C2481     1.0  0.83913  0.51487  0.74722  1.0000
  H   H4221     1.0  0.95734  0.66942  0.87822  1.0000
  H   H4222     1.0  0.71782  0.59048  0.96455  1.0000
  H   H4223     1.0  0.83308  0.53518  0.70880  1.0000
  H   H4224     1.0  0.81306  0.55515  0.70337  1.0000
  H   H4225     1.0  0.81793  0.57702  0.72782  1.0000
  H   H4226     1.0  0.82655  0.56235  0.74956  1.0000
  H   H4227     1.0  0.81556  0.53243  0.76527  1.0000
  H   H4228     1.0  0.80622  0.51826  0.75375  1.0000
  C   C2482     1.0  0.81289  0.52337  0.86755  1.0000
  H   H4229     1.0  0.77572  0.51249  0.89050  1.0000
  H   H4230     1.0  0.88869  0.62991  0.93634  1.0000
  H   H4231     1.0  0.78798  0.53215  0.71549  1.0000
  H   H4232     1.0  0.83966  0.64706  0.96348  1.0000
  C   C2483     1.0  0.85716  0.50201  0.97168  1.0000
  H   H4233     1.0  0.85702  0.54438  0.72559  1.0000
  H   H4234     1.0  0.85530  0.57040  0.72413  1.0000
  H   H4235     1.0  0.84769  0.56259  0.70536  1.0000
  H   H4236     1.0  0.84978  0.52026  0.75325  1.0000
  H   H4237     1.0  0.84572  0.51349  0.73152  1.0000
  H   H4238     1.0  0.83823  0.49928  0.75524  1.0000
  H   H4239     1.0  0.82021  0.53633  0.51338  1.0000
  Fe  Fe351     1.0  0.74675  0.48845  0.95389  1.0000
  H   H4240     1.0  0.94136  0.66476  0.85451  1.0000
  S   S711      1.0  0.81953  0.51918  0.47911  1.0000
  H   H4241     1.0  0.66664  0.50315  0.76664  1.0000
  H   H4242     1.0  0.69885  0.64827  0.93246  1.0000
  H   H4243     1.0  0.69898  0.49946  0.75666  1.0000
  H   H4244     1.0  0.70295  0.66369  0.89551  1.0000
  H   H4245     1.0  0.88665  0.59442  0.95175  1.0000
  C   C2484     1.0  0.80321  0.53518  0.55218  1.0000
  H   H4246     1.0  0.69805  0.68118  0.94923  1.0000
  H   H4247     1.0  0.76107  0.55435  0.90101  1.0000
  S   S712      1.0  0.72231  0.51449  0.96206  1.0000
  H   H4248     1.0  0.75343  0.55321  0.85362  1.0000
  C   C2485     1.0  0.77706  0.56304  0.54018  1.0000
  H   H4249     1.0  0.76317  0.54356  0.83130  1.0000
  H   H4250     1.0  0.82804  0.50139  0.94869  1.0000
  H   H4251     1.0  0.80933  0.52273  0.69771  1.0000
  H   H4252     1.0  0.88323  0.48801  0.95171  1.0000
  C   C2486     1.0  0.86627  0.49108  0.95385  1.0000
  C   C2487     1.0  0.85405  0.63482  0.91642  1.0000
  H   H4253     1.0  0.83210  0.49377  0.86733  1.0000
  C   C2488     1.0  0.81555  0.50053  0.86927  1.0000
  H   H4254     1.0  0.95606  0.64478  0.84287  1.0000
  H   H4255     1.0  0.82341  0.65321  0.91416  1.0000
  C   C2489     1.0  0.68382  0.69667  0.87818  1.0000
  C   C2490     1.0  0.75861  0.54124  0.89638  1.0000
  H   H4256     1.0  0.79026  0.58054  0.75497  1.0000
  C   C2491     1.0  0.77904  0.52753  0.88954  1.0000
  S   S713      1.0  0.98226  0.55097  0.62356  1.0000
  H   H4257     1.0  0.67693  0.52011  0.66318  1.0000
  H   H4258     1.0  0.97623  0.53369  0.68102  1.0000
  H   H4259     1.0  0.71104  0.60633  0.94197  1.0000
  Fe  Fe352     1.0  0.98998  0.53293  0.59912  1.0000
  Fe  Fe353     1.0  0.96963  0.71237  0.92797  1.0000
  H   H4260     1.0  0.78083  0.54515  0.57823  1.0000
  H   H4261     1.0  0.80788  0.49331  0.88417  1.0000
  C   C2492     1.0  0.90601  0.51436  0.87269  1.0000
  H   H4262     1.0  0.86045  0.49154  0.90687  1.0000
  C   C2493     1.0  0.96502  0.69330  0.83213  1.0000
  H   H4263     1.0  0.81208  0.52828  0.92503  1.0000
  C   C2494     1.0  0.87493  0.53259  0.93003  1.0000
  C   C2495     1.0  0.78453  0.56631  0.75853  1.0000
  H   H4264     1.0  0.82154  0.62171  0.94469  1.0000
  C   C2496     1.0  0.68564  0.69329  0.95312  1.0000
  H   H4265     1.0  0.78810  0.52571  0.90106  1.0000
  N   N177      1.0  0.79277  0.54496  0.53486  1.0000
  C   C2497     1.0  0.89045  0.51735  0.86231  1.0000
  C   C2498     1.0  0.83879  0.64968  0.90466  1.0000
  H   H4266     1.0  0.79714  0.55584  0.89623  1.0000
  Fe  Fe354     1.0  0.77373  0.49680  0.77985  1.0000
  C   C2499     1.0  0.88444  0.50088  0.85903  1.0000
  C   C2500     1.0  0.69169  0.73401  0.82123  1.0000
  H   H4267     1.0  0.99519  0.54897  0.67074  1.0000
  H   H4268     1.0  0.76759  0.57025  0.76256  1.0000
  H   H4269     1.0  0.70342  0.57900  0.93655  1.0000
  C   C2501     1.0  0.94989  0.70273  0.84905  1.0000
  N   N178      1.0  0.79122  0.53500  0.86916  1.0000
  H   H4270     1.0  0.83388  0.55748  0.52651  1.0000
  C   C2502     1.0  0.79184  0.55691  0.86628  1.0000
  C   C2503     1.0  0.78280  0.53130  0.85276  1.0000
  H   H4271     1.0  0.75657  0.54709  0.51874  1.0000
  C   C2504     1.0  0.73040  0.51142  0.88711  1.0000
  H   H4272     1.0  0.92463  0.66065  0.83039  1.0000
  C   C2505     1.0  0.76767  0.54864  0.84300  1.0000
  Fe  Fe355     1.0  0.95916  0.72956  0.88718  1.0000
  H   H4273     1.0  0.82264  0.52922  0.85313  1.0000
  C   C2506     1.0  0.68714  0.71803  0.81560  1.0000
  H   H4274     1.0  0.77627  0.56635  0.86769  1.0000
  C   C2507     1.0  0.68571  0.65483  0.92503  1.0000
  H   H4275     1.0  0.81213  0.57789  0.52488  1.0000
  N   N179      1.0  0.67456  0.68551  0.89830  1.0000
  H   H4276     1.0  0.88365  0.60183  0.92655  1.0000
  H   H4277     1.0  0.93505  0.69780  0.85297  1.0000
  H   H4278     1.0  0.94669  0.71928  0.84403  1.0000
  H   H4279     1.0  0.67215  0.70844  0.87182  1.0000
  H   H4280     1.0  0.68989  0.68630  0.86736  1.0000
  C   C2508     1.0  0.69093  0.49669  0.72378  1.0000
  H   H4281     1.0  0.82720  0.50879  0.91236  1.0000
  H   H4282     1.0  0.88982  0.50703  0.53596  1.0000
  C   C2509     1.0  0.67164  0.72881  0.94995  1.0000
  H   H4283     1.0  0.71523  0.69614  0.88091  1.0000
  C   C2510     1.0  0.68448  0.60028  0.96611  1.0000
  H   H4284     1.0  0.86190  0.59807  0.94648  1.0000
  Fe  Fe356     1.0  0.83922  0.49718  0.49876  1.0000
  C   C2511     1.0  0.94771  0.50299  0.53291  1.0000
  H   H4285     1.0  0.69819  0.71044  0.80455  1.0000
  H   H4286     1.0  0.99184  0.67291  0.85243  1.0000
  H   H4287     1.0  0.85402  0.53551  0.48008  1.0000
  H   H4288     1.0  0.78970  0.55677  0.77193  1.0000
  H   H4289     1.0  0.68632  0.54901  0.97749  1.0000
  H   H4290     1.0  0.68929  0.49779  0.70828  1.0000
  C   C2512     1.0  0.82602  0.62574  0.95701  1.0000
  H   H4291     1.0  0.99918  0.97453  0.08304  1.0000
  Fe  Fe357     1.0  0.78472  0.90511  0.41281  1.0000
  S   S714      1.0  0.75829  0.90360  0.40051  1.0000
  S   S715      1.0  0.81752  0.89827  0.39690  1.0000
  S   S716      1.0  0.72420  0.95803  0.39471  1.0000
  C   C2513     1.0  0.71746  0.83353  0.42703  1.0000
  C   C2514     1.0  0.83816  0.93933  0.97928  1.0000
  S   S717      1.0  0.72510  0.81603  0.37377  1.0000
  H   H4292     1.0  0.79203  0.97442  0.03670  1.0000
  C   C2515     1.0  0.71603  0.82330  0.41260  1.0000
  C   C2516     1.0  0.90293  0.96269  0.41170  1.0000
  C   C2517     1.0  0.87698  0.92273  0.42511  1.0000
  S   S718      1.0  0.68471  0.95432  0.14983  1.0000
  C   C2518     1.0  0.72598  0.82842  0.39266  1.0000
  H   H4293     1.0  0.91703  0.77283  0.44771  1.0000
  H   H4294     1.0  0.77245  0.96050  0.10985  1.0000
  Fe  Fe358     1.0  0.85164  0.95093  0.02361  1.0000
  H   H4295     1.0  0.77768  0.97667  0.99038  1.0000
  S   S719      1.0  0.84772  0.92228  0.01631  1.0000
  Fe  Fe359     1.0  0.87127  0.96842  0.04900  1.0000
  H   H4296     1.0  0.80302  0.95051  0.08777  1.0000
  S   S720      1.0  0.88873  0.95939  0.07435  1.0000
  H   H4297     1.0  0.94614  0.75084  0.43246  1.0000
  C   C2519     1.0  0.88198  0.92518  0.25964  1.0000
  H   H4298     1.0  0.68431  0.95735  0.46212  1.0000
  H   H4299     1.0  0.87167  0.90909  0.43458  1.0000
  S   S721      1.0  0.84227  0.95636  0.05518  1.0000
  S   S722      1.0  0.88194  0.96014  0.01850  1.0000
  H   H4300     1.0  0.77290  0.80619  0.39697  1.0000
  C   C2520     1.0  0.94326  0.98545  0.21322  1.0000
  C   C2521     1.0  0.82655  0.97857  0.43460  1.0000
  H   H4301     1.0  0.93382  0.96973  0.11308  1.0000
  S   S723      1.0  0.67810  0.95544  0.09734  1.0000
  H   H4302     1.0  0.73246  0.92893  0.15128  1.0000
  C   C2522     1.0  0.86090  0.92968  0.25404  1.0000
  H   H4303     1.0  0.85810  0.91585  0.25099  1.0000
  C   C2523     1.0  0.66650  0.95115  0.17230  1.0000
  H   H4304     1.0  0.92462  0.91727  0.25264  1.0000
  C   C2524     1.0  0.90653  0.97189  0.07806  1.0000
  H   H4305     1.0  0.89296  0.96509  0.27219  1.0000
  N   N180      1.0  0.88459  0.93668  0.27402  1.0000
  H   H4306     1.0  0.71883  0.93073  0.09731  1.0000
  C   C2525     1.0  0.73332  0.95821  0.10985  1.0000
  H   H4307     1.0  0.68351  0.86848  0.47084  1.0000
  H   H4308     1.0  0.90041  0.96458  0.44234  1.0000
  H   H4309     1.0  0.92113  0.77819  0.42090  1.0000
  C   C2526     1.0  0.90494  0.75280  0.43569  1.0000
  H   H4310     1.0  0.99445  0.77701  0.43372  1.0000
  H   H4311     1.0  0.66817  0.81929  0.44136  1.0000
  S   S724      1.0  0.83544  0.96776  0.32301  1.0000
  H   H4312     1.0  0.86041  0.94148  0.24037  1.0000
  C   C2527     1.0  0.79109  0.94154  0.08988  1.0000
  S   S725      1.0  0.69656  0.77196  0.40609  1.0000
  C   C2528     1.0  0.83952  0.92233  0.99446  1.0000
  C   C2529     1.0  0.92959  0.98417  0.24883  1.0000
  H   H4313     1.0  0.71748  0.97937  0.12953  1.0000
  H   H4314     1.0  0.85341  0.95768  0.44129  1.0000
  H   H4315     1.0  0.83540  0.89167  0.00385  1.0000
  S   S726      1.0  0.68256  0.74557  0.38062  1.0000
  H   H4316     1.0  0.99422  0.94778  0.10931  1.0000
  H   H4317     1.0  0.79184  0.93855  0.07492  1.0000
  H   H4318     1.0  0.85766  0.86259  0.97883  1.0000
  C   C2530     1.0  0.69355  0.98135  0.47036  1.0000
  H   H4319     1.0  0.73636  0.90757  0.10466  1.0000
  C   C2531     1.0  0.83446  0.90485  0.99214  1.0000
  S   S727      1.0  0.93182  0.97328  0.27360  1.0000
  C   C2532     1.0  0.86846  0.93539  0.29306  1.0000
  H   H4320     1.0  0.98859  0.91757  0.06526  1.0000
  H   H4321     1.0  0.84153  0.97859  0.39071  1.0000
  C   C2533     1.0  0.75943  0.97574  0.04331  1.0000
  C   C2534     1.0  0.82791  0.91272  0.43632  1.0000
  C   C2535     1.0  0.67182  0.75352  0.29898  1.0000
  H   H4322     1.0  0.73426  0.91658  0.07928  1.0000
  S   S728      1.0  0.89502  0.95872  0.32326  1.0000
  C   C2536     1.0  0.75147  0.93299  0.08914  1.0000
  H   H4323     1.0  0.85310  0.94333  0.29058  1.0000
  H   H4324     1.0  0.98190  0.90749  0.09081  1.0000
  Fe  Fe360     1.0  0.69373  0.76704  0.35300  1.0000
  H   H4325     1.0  0.89504  0.74924  0.45075  1.0000
  H   H4326     1.0  0.77204  0.77746  0.35265  1.0000
  C   C2537     1.0  0.91402  0.96545  0.09578  1.0000
  H   H4327     1.0  0.73036  0.96847  0.09573  1.0000
  H   H4328     1.0  0.67030  0.90677  0.13760  1.0000
  C   C2538     1.0  0.86427  0.97281  0.26366  1.0000
  H   H4329     1.0  0.90865  0.95314  0.10683  1.0000
  C   C2539     1.0  0.78190  0.74195  0.40858  1.0000
  Fe  Fe361     1.0  0.98818  0.96974  0.14746  1.0000
  H   H4330     1.0  0.76525  0.77459  0.42754  1.0000
  C   C2540     1.0  0.73755  0.92041  0.13891  1.0000
  H   H4331     1.0  0.85984  0.92399  0.40305  1.0000
  H   H4332     1.0  0.82482  0.90214  0.45070  1.0000
  H   H4333     1.0  0.79146  0.75727  0.36142  1.0000
  H   H4334     1.0  0.86327  0.90490  0.29503  1.0000
  H   H4335     1.0  0.81550  0.97199  0.44740  1.0000
  N   N181      1.0  0.99179  0.93618  0.08429  1.0000
  C   C2541     1.0  0.98293  0.94197  0.10451  1.0000
  H   H4336     1.0  0.88613  0.90870  0.26496  1.0000
  H   H4337     1.0  0.92377  0.74191  0.46895  1.0000
  C   C2542     1.0  0.77488  0.76257  0.36257  1.0000
  C   C2543     1.0  0.67311  0.94045  0.18970  1.0000
  H   H4338     1.0  0.74982  0.77709  0.38243  1.0000
  Fe  Fe362     1.0  0.67350  0.97171  0.12219  1.0000
  H   H4339     1.0  0.89471  0.75546  0.42501  1.0000
  H   H4340     1.0  0.87166  0.94326  0.30353  1.0000
  C   C2544     1.0  0.67514  0.75187  0.31820  1.0000
  H   H4341     1.0  0.99671  0.98481  0.05793  1.0000
  H   H4342     1.0  0.77187  0.80052  0.37365  1.0000
  C   C2545     1.0  0.97512  0.92556  0.12189  1.0000
  H   H4343     1.0  0.74518  0.84778  0.37205  1.0000
  H   H4344     1.0  0.87035  0.94533  0.39976  1.0000
  H   H4345     1.0  0.72860  0.76920  0.43779  1.0000
  Fe  Fe363     1.0  0.74608  0.88858  0.43175  1.0000
  H   H4346     1.0  0.75347  0.75068  0.38832  1.0000
  C   C2546     1.0  0.90500  0.92759  0.27976  1.0000
  H   H4347     1.0  0.81397  0.91628  0.43009  1.0000
  H   H4348     1.0  0.79692  0.77485  0.40496  1.0000
  S   S729      1.0  0.72939  0.91767  0.44144  1.0000
  S   S730      1.0  0.90609  0.95997  0.37305  1.0000
  H   H4349     1.0  0.74755  0.86574  0.39737  1.0000
  C   C2547     1.0  0.77010  0.95386  0.09798  1.0000
  H   H4350     1.0  0.70723  0.81152  0.41687  1.0000
  Fe  Fe364     1.0  0.68982  0.98220  0.07739  1.0000
  H   H4351     1.0  0.73879  0.96250  0.13802  1.0000
  H   H4352     1.0  0.76412  0.93323  0.13279  1.0000
  C   C2548     1.0  0.75645  0.92728  0.12396  1.0000
  H   H4353     1.0  0.89629  0.78483  0.43568  1.0000
  H   H4354     1.0  0.89207  0.91770  0.41566  1.0000
  C   C2549     1.0  0.77725  0.98172  0.04395  1.0000
  C   C2550     1.0  0.74107  0.75964  0.42885  1.0000
  H   H4355     1.0  0.90742  0.93538  0.29077  1.0000
  H   H4356     1.0  0.90911  0.94679  0.41394  1.0000
  Fe  Fe365     1.0  0.70757  0.79131  0.37692  1.0000
  H   H4357     1.0  0.84191  0.92742  0.45149  1.0000
  S   S731      1.0  0.77155  0.93555  0.42046  1.0000
  C   C2551     1.0  0.86211  0.93457  0.41145  1.0000
  C   C2552     1.0  0.82259  0.91674  0.37560  1.0000
  C   C2553     1.0  0.80660  0.92938  0.36730  1.0000
  C   C2554     1.0  0.81072  0.94460  0.35069  1.0000
  C   C2555     1.0  0.83073  0.94777  0.34290  1.0000
  C   C2556     1.0  0.84674  0.93511  0.35119  1.0000
  C   C2557     1.0  0.84271  0.91942  0.36735  1.0000
  H   H4358     1.0  0.79104  0.92732  0.37354  1.0000
  H   H4359     1.0  0.79832  0.95405  0.34412  1.0000
  H   H4360     1.0  0.86224  0.93737  0.34522  1.0000
  H   H4361     1.0  0.85510  0.90966  0.37377  1.0000
  S   S732      1.0  0.73018  0.86169  0.44016  1.0000
  H   H4362     1.0  0.95110  0.91721  0.07914  1.0000
  H   H4363     1.0  0.85609  0.97559  0.27877  1.0000
  C   C2558     1.0  0.69682  0.96604  0.45680  1.0000
  H   H4364     1.0  0.84787  0.93401  0.26603  1.0000
  H   H4365     1.0  0.94965  0.93575  0.09318  1.0000
  C   C2559     1.0  0.92396  0.92772  0.26245  1.0000
  H   H4366     1.0  0.93792  0.92256  0.26882  1.0000
  C   C2560     1.0  0.73741  0.84372  0.38740  1.0000
  C   C2561     1.0  0.73876  0.85397  0.40176  1.0000
  C   C2562     1.0  0.72875  0.84901  0.42166  1.0000
  H   H4367     1.0  0.90567  0.91164  0.28729  1.0000
  C   C2563     1.0  0.93787  0.75204  0.39571  1.0000
  H   H4368     1.0  0.76057  0.96385  0.03550  1.0000
  H   H4369     1.0  0.92488  0.94287  0.25341  1.0000
  H   H4370     1.0  0.68925  0.93493  0.18930  1.0000
  H   H4371     1.0  0.73185  0.97421  0.47249  1.0000
  S   S733      1.0  0.72353  0.76551  0.36126  1.0000
  N   N182      1.0  0.75253  0.94275  0.10563  1.0000
  H   H4372     1.0  0.96964  0.95460  0.10354  1.0000
  S   S734      1.0  0.67896  0.79489  0.36558  1.0000
  H   H4373     1.0  0.95827  0.92731  0.12445  1.0000
  H   H4374     1.0  0.72437  0.92114  0.13241  1.0000
  C   C2564     1.0  0.88498  0.95838  0.26430  1.0000
  N   N183      1.0  0.77276  0.76313  0.39996  1.0000
  H   H4375     1.0  0.68231  0.90169  0.10437  1.0000
  H   H4376     1.0  0.75020  0.94442  0.07527  1.0000
  H   H4377     1.0  0.87931  0.93197  0.43475  1.0000
  H   H4378     1.0  0.74260  0.98309  0.11707  1.0000
  H   H4379     1.0  0.87910  0.90625  0.31156  1.0000
  H   H4380     1.0  0.74884  0.78696  0.41073  1.0000
  Fe  Fe366     1.0  0.71119  0.74618  0.39001  1.0000
  H   H4381     1.0  0.84075  0.90463  0.42644  1.0000
  S   S735      1.0  0.71853  0.97511  0.05411  1.0000
  Fe  Fe367     1.0  0.75806  0.91878  0.45027  1.0000
  C   C2565     1.0  0.91046  0.77316  0.43482  1.0000
  C   C2566     1.0  0.78153  0.79815  0.38469  1.0000
  H   H4382     1.0  0.71952  0.95149  0.11570  1.0000
  H   H4383     1.0  0.76571  0.92195  0.08525  1.0000
  H   H4384     1.0  0.74886  0.97748  0.40997  1.0000
  C   C2567     1.0  0.92836  0.97478  0.09931  1.0000
  S   S736      1.0  0.77363  0.88827  0.44366  1.0000
  C   C2568     1.0  0.75742  0.77198  0.41666  1.0000
  S   S737      1.0  0.95506  0.97715  0.14556  1.0000
  N   N184      1.0  0.84199  0.94539  0.42177  1.0000
  C   C2569     1.0  0.83237  0.93191  0.44000  1.0000
  C   C2570     1.0  0.84574  0.96292  0.42834  1.0000
  C   C2571     1.0  0.82783  0.95212  0.40736  1.0000
  C   C2572     1.0  0.89808  0.97276  0.42775  1.0000
  H   H4385     1.0  0.82175  0.97467  0.38123  1.0000
  H   H4386     1.0  0.81748  0.94000  0.44735  1.0000
  H   H4387     1.0  0.73414  0.75423  0.41916  1.0000
  H   H4388     1.0  0.67172  0.81903  0.28859  1.0000
  H   H4389     1.0  0.82577  0.93902  0.40231  1.0000
  H   H4390     1.0  0.81197  0.95841  0.41456  1.0000
  C   C2573     1.0  0.74026  0.98449  0.05341  1.0000
  H   H4391     1.0  0.85232  0.91531  0.31694  1.0000
  C   C2574     1.0  0.90017  0.97317  0.39269  1.0000
  C   C2575     1.0  0.83504  0.96674  0.38804  1.0000
  H   H4392     1.0  0.95585  0.94133  0.06619  1.0000
  H   H4393     1.0  0.84671  0.95864  0.37720  1.0000
  S   S738      1.0  0.69140  0.76622  0.32168  1.0000
  Fe  Fe368     1.0  0.66928  0.77328  0.39366  1.0000
  Fe  Fe369     1.0  0.74396  0.93260  0.41121  1.0000
  H   H4394     1.0  0.76727  0.91368  0.11959  1.0000
  H   H4395     1.0  0.74202  0.90452  0.14613  1.0000
  H   H4396     1.0  0.76979  0.75217  0.35605  1.0000
  H   H4397     1.0  0.70970  0.82953  0.44238  1.0000
  H   H4398     1.0  0.76664  0.96674  0.08585  1.0000
  C   C2576     1.0  0.76182  0.76332  0.38392  1.0000
  C   C2577     1.0  0.73408  0.92140  0.09323  1.0000
  C   C2578     1.0  0.95813  0.92972  0.07967  1.0000
  H   H4399     1.0  0.79515  0.92731  0.10027  1.0000
  Fe  Fe370     1.0  0.86416  0.97788  0.32219  1.0000
  H   H4400     1.0  0.89309  0.92793  0.24521  1.0000
  C   C2579     1.0  0.98097  0.92186  0.08000  1.0000
  C   C2580     1.0  0.78910  0.77570  0.39269  1.0000
  H   H4401     1.0  0.85425  0.96770  0.25680  1.0000
  H   H4402     1.0  0.80151  0.77006  0.38082  1.0000
  C   C2581     1.0  0.86596  0.91410  0.30452  1.0000
  H   H4403     1.0  0.89388  0.95968  0.24863  1.0000
  H   H4404     1.0  0.73195  0.97781  0.44662  1.0000
  H   H4405     1.0  0.79488  0.80538  0.37714  1.0000
  H   H4406     1.0  0.95725  0.96528  0.23644  1.0000
  H   H4407     1.0  0.67974  0.76303  0.28644  1.0000
  H   H4408     1.0  0.97350  0.96285  0.06979  1.0000
  H   H4409     1.0  0.97791  0.92782  0.13593  1.0000
  C   C2582     1.0  0.73330  0.97140  0.12450  1.0000
  S   S739      1.0  0.83538  0.98122  0.01092  1.0000
  C   C2583     1.0  0.98972  0.95489  0.06832  1.0000
  H   H4410     1.0  0.69658  0.97330  0.44102  1.0000
  H   H4411     1.0  0.95116  0.75481  0.40002  1.0000
  H   H4412     1.0  0.78863  0.74182  0.42139  1.0000
  S   S740      1.0  0.98987  0.74335  0.42002  1.0000
  H   H4413     1.0  0.85661  0.97106  0.41654  1.0000
  C   C2584     1.0  0.72794  0.98280  0.39037  1.0000
  Fe  Fe371     1.0  0.89649  0.97719  0.34458  1.0000
  H   H4414     1.0  0.74745  0.74668  0.43953  1.0000
  C   C2585     1.0  0.94458  0.97719  0.23315  1.0000
  H   H4415     1.0  0.66740  0.73792  0.34909  1.0000
  H   H4416     1.0  0.98252  0.90998  0.12054  1.0000
  H   H4417     1.0  0.71033  0.88588  0.47005  1.0000
  H   H4418     1.0  0.95481  0.97982  0.20126  1.0000
  H   H4419     1.0  0.71132  0.95507  0.45757  1.0000
  H   H4420     1.0  0.81157  0.73738  0.38701  1.0000
  H   H4421     1.0  0.89575  0.98307  0.14547  1.0000
  H   H4422     1.0  0.92609  0.76585  0.39395  1.0000
  H   H4423     1.0  0.99433  0.95104  0.05315  1.0000
  H   H4424     1.0  0.84225  0.95277  0.98077  1.0000
  H   H4425     1.0  0.94367  0.74815  0.38063  1.0000
  Fe  Fe372     1.0  0.90696  0.98304  0.29918  1.0000
  H   H4426     1.0  0.95108  0.73861  0.46505  1.0000
  S   S741      1.0  0.75569  0.93255  0.47692  1.0000
  C   C2586     1.0  0.94094  0.73642  0.43900  1.0000
  C   C2587     1.0  0.81147  0.80220  0.94991  1.0000
  C   C2588     1.0  0.82450  0.78591  0.93812  1.0000
  H   H4427     1.0  0.67784  0.90067  0.59808  1.0000
  C   C2589     1.0  0.87573  0.90586  0.91452  1.0000
  H   H4428     1.0  0.67709  0.84356  0.83458  1.0000
  H   H4429     1.0  0.74374  0.95480  0.51105  1.0000
  C   C2590     1.0  0.73989  0.87217  0.50199  1.0000
  C   C2591     1.0  0.70929  0.82978  0.83009  1.0000
  H   H4430     1.0  0.82327  0.89909  0.49023  1.0000
  H   H4431     1.0  0.82346  0.89108  0.97357  1.0000
  H   H4432     1.0  0.87960  0.91107  0.89809  1.0000
  S   S742      1.0  0.84005  0.96753  0.78348  1.0000
  Fe  Fe373     1.0  0.83943  0.86471  0.90062  1.0000
  S   S743      1.0  0.82201  0.86288  0.93231  1.0000
  S   S744      1.0  0.87126  0.84714  0.89139  1.0000
  Fe  Fe374     1.0  0.80580  0.89682  0.88426  1.0000
  S   S745      1.0  0.78605  0.89707  0.91486  1.0000
  S   S746      1.0  0.79108  0.91805  0.86006  1.0000
  Fe  Fe375     1.0  0.81480  0.89669  0.92460  1.0000
  C   C2592     1.0  0.73459  0.98151  0.71828  1.0000
  Fe  Fe376     1.0  0.79510  0.86351  0.91916  1.0000
  S   S747      1.0  0.77322  0.84181  0.93283  1.0000
  S   S748      1.0  0.83396  0.89836  0.89347  1.0000
  S   S749      1.0  0.81318  0.86331  0.88794  1.0000
  H   H4433     1.0  0.90144  0.85201  0.96189  1.0000
  S   S750      1.0  0.67751  0.96712  0.68676  1.0000
  C   C2593     1.0  0.89349  0.78431  0.92554  1.0000
  S   S751      1.0  0.69185  0.77855  0.91984  1.0000
  C   C2594     1.0  0.73609  0.95944  0.55975  1.0000
  H   H4434     1.0  0.74753  0.84376  0.78197  1.0000
  C   C2595     1.0  0.73099  0.84324  0.78662  1.0000
  Fe  Fe377     1.0  0.70787  0.79057  0.88875  1.0000
  S   S752      1.0  0.73064  0.81162  0.87817  1.0000
  H   H4435     1.0  0.86902  0.79211  0.94994  1.0000
  S   S753      1.0  0.84365  0.96893  0.52607  1.0000
  C   C2596     1.0  0.83168  0.93886  0.96206  1.0000
  Fe  Fe378     1.0  0.85161  0.95681  0.49784  1.0000
  H   H4436     1.0  0.98266  0.73908  0.95342  1.0000
  H   H4437     1.0  0.75441  0.92602  0.80283  1.0000
  H   H4438     1.0  0.68165  0.81848  0.83104  1.0000
  H   H4439     1.0  0.72589  0.90118  0.50868  1.0000
  H   H4440     1.0  0.80711  0.96207  0.49110  1.0000
  C   C2597     1.0  0.79372  0.91385  0.48392  1.0000
  H   H4441     1.0  0.94154  0.93741  0.56743  1.0000
  C   C2598     1.0  0.69589  0.88472  0.53968  1.0000
  H   H4442     1.0  0.67752  0.87873  0.52252  1.0000
  H   H4443     1.0  0.74147  0.77956  0.80204  1.0000
  H   H4444     1.0  0.71170  0.97399  0.58159  1.0000
  H   H4445     1.0  0.83717  0.81199  0.90883  1.0000
  C   C2599     1.0  0.81245  0.91313  0.48874  1.0000
  C   C2600     1.0  0.83064  0.97427  0.85184  1.0000
  H   H4446     1.0  0.69174  0.92261  0.52208  1.0000
  C   C2601     1.0  0.68335  0.95003  0.61031  1.0000
  H   H4447     1.0  0.73718  0.97163  0.58502  1.0000
  C   C2602     1.0  0.81749  0.93049  0.49117  1.0000
  C   C2603     1.0  0.71392  0.93227  0.81726  1.0000
  H   H4448     1.0  0.81698  0.80027  0.96385  1.0000
  C   C2604     1.0  0.68495  0.93232  0.62461  1.0000
  C   C2605     1.0  0.71362  0.95892  0.76940  1.0000
  N   N185      1.0  0.97987  0.94993  0.56298  1.0000
  S   S754      1.0  0.71671  0.76088  0.87870  1.0000
  H   H4449     1.0  0.90808  0.96288  0.57862  1.0000
  C   C2606     1.0  0.76070  0.83422  0.91762  1.0000
  C   C2607     1.0  0.74722  0.82081  0.92642  1.0000
  C   C2608     1.0  0.73770  0.81386  0.91462  1.0000
  C   C2609     1.0  0.74165  0.82025  0.89387  1.0000
  C   C2610     1.0  0.75508  0.83369  0.88511  1.0000
  C   C2611     1.0  0.76452  0.84067  0.89689  1.0000
  H   H4450     1.0  0.74414  0.81574  0.94245  1.0000
  H   H4451     1.0  0.72737  0.80355  0.92158  1.0000
  H   H4452     1.0  0.75822  0.83877  0.86910  1.0000
  H   H4453     1.0  0.77470  0.85109  0.88991  1.0000
  C   C2612     1.0  0.82676  0.95356  0.80487  1.0000
  C   C2613     1.0  0.80563  0.95914  0.81084  1.0000
  C   C2614     1.0  0.79505  0.94824  0.82802  1.0000
  C   C2615     1.0  0.80549  0.93163  0.83936  1.0000
  C   C2616     1.0  0.82671  0.92605  0.83362  1.0000
  C   C2617     1.0  0.83734  0.93696  0.81626  1.0000
  H   H4454     1.0  0.79737  0.97166  0.80208  1.0000
  H   H4455     1.0  0.77870  0.95266  0.83263  1.0000
  H   H4456     1.0  0.83483  0.91316  0.84234  1.0000
  H   H4457     1.0  0.85373  0.93257  0.81172  1.0000
  S   S755      1.0  0.66944  0.75475  0.89866  1.0000
  H   H4458     1.0  0.69565  0.97263  0.48540  1.0000
  C   C2618     1.0  0.88279  0.88976  0.95564  1.0000
  H   H4459     1.0  0.87742  0.91777  0.92149  1.0000
  C   C2619     1.0  0.90346  0.79096  0.90599  1.0000
  C   C2620     1.0  0.89652  0.81030  0.89571  1.0000
  C   C2621     1.0  0.87935  0.82292  0.90473  1.0000
  C   C2622     1.0  0.86934  0.81624  0.92427  1.0000
  C   C2623     1.0  0.87662  0.79713  0.93472  1.0000
  H   H4460     1.0  0.91651  0.78121  0.89879  1.0000
  H   H4461     1.0  0.90441  0.81541  0.88063  1.0000
  H   H4462     1.0  0.85622  0.82588  0.93144  1.0000
  H   H4463     1.0  0.81672  0.98273  0.59774  1.0000
  H   H4464     1.0  0.77560  0.78368  0.90545  1.0000
  H   H4465     1.0  0.86276  0.76358  0.92126  1.0000
  C   C2624     1.0  0.88836  0.97856  0.74460  1.0000
  H   H4466     1.0  0.85276  0.88055  0.94436  1.0000
  Fe  Fe379     1.0  0.68656  0.76871  0.86934  1.0000
  C   C2625     1.0  0.70248  0.87878  0.48500  1.0000
  S   S756      1.0  0.67272  0.93232  0.56388  1.0000
  H   H4467     1.0  0.95245  0.94776  0.61202  1.0000
  H   H4468     1.0  0.90546  0.90830  0.93741  1.0000
  C   C2626     1.0  0.97487  0.93440  0.55430  1.0000
  S   S757      1.0  0.68822  0.93202  0.64861  1.0000
  H   H4469     1.0  0.75074  0.84581  0.81318  1.0000
  C   C2627     1.0  0.74469  0.94990  0.52709  1.0000
  H   H4470     1.0  0.72425  0.84819  0.77311  1.0000
  C   C2628     1.0  0.89005  0.88573  0.92024  1.0000
  H   H4471     1.0  0.70970  0.97546  0.76755  1.0000
  C   C2629     1.0  0.82780  0.90444  0.97496  1.0000
  H   H4472     1.0  0.72256  0.92969  0.53331  1.0000
  N   N186      1.0  0.70262  0.88999  0.50077  1.0000
  H   H4473     1.0  0.83078  0.95204  0.95037  1.0000
  H   H4474     1.0  0.75924  0.97707  0.80905  1.0000
  H   H4475     1.0  0.98455  0.92890  0.59023  1.0000
  H   H4476     1.0  0.70126  0.95224  0.78041  1.0000
  N   N187      1.0  0.88203  0.96192  0.71837  1.0000
  C   C2630     1.0  0.86840  0.94979  0.73448  1.0000
  H   H4477     1.0  0.90086  0.98333  0.74846  1.0000
  C   C2631     1.0  0.67767  0.74402  0.83545  1.0000
  C   C2632     1.0  0.89359  0.94946  0.70289  1.0000
  C   C2633     1.0  0.87928  0.93114  0.74723  1.0000
  H   H4478     1.0  0.91768  0.86403  0.94119  1.0000
  H   H4479     1.0  0.71404  0.95522  0.75482  1.0000
  H   H4480     1.0  0.70606  0.73881  0.81427  1.0000
  H   H4481     1.0  0.85789  0.95928  0.74487  1.0000
  H   H4482     1.0  0.85822  0.94428  0.72797  1.0000
  H   H4483     1.0  0.71265  0.84501  0.82727  1.0000
  H   H4484     1.0  0.70813  0.82446  0.84648  1.0000
  C   C2634     1.0  0.90798  0.95981  0.68480  1.0000
  H   H4485     1.0  0.89355  0.83300  0.93943  1.0000
  H   H4486     1.0  0.90360  0.93593  0.70966  1.0000
  H   H4487     1.0  0.88323  0.94308  0.69740  1.0000
  H   H4488     1.0  0.88786  0.91955  0.73832  1.0000
  H   H4489     1.0  0.88952  0.93483  0.75505  1.0000
  H   H4490     1.0  0.86752  0.92427  0.75905  1.0000
  H   H4491     1.0  0.72914  0.94613  0.56770  1.0000
  H   H4492     1.0  0.88155  0.96854  0.75807  1.0000
  H   H4493     1.0  0.82229  0.77107  0.94765  1.0000
  C   C2635     1.0  0.75445  0.97797  0.72166  1.0000
  C   C2636     1.0  0.85994  0.85459  0.96644  1.0000
  H   H4494     1.0  0.86642  0.85914  0.93426  1.0000
  C   C2637     1.0  0.95399  0.94458  0.59697  1.0000
  H   H4495     1.0  0.81293  0.81753  0.94152  1.0000
  C   C2638     1.0  0.67733  0.93223  0.58730  1.0000
  N   N188      1.0  0.82076  0.78750  0.91756  1.0000
  C   C2639     1.0  0.83493  0.77004  0.90916  1.0000
  C   C2640     1.0  0.79892  0.78543  0.92018  1.0000
  C   C2641     1.0  0.82431  0.80764  0.90508  1.0000
  C   C2642     1.0  0.79161  0.78611  0.90112  1.0000
  C   C2643     1.0  0.82951  0.80954  0.88209  1.0000
  H   H4496     1.0  0.83263  0.76930  0.89444  1.0000
  H   H4497     1.0  0.83285  0.96534  0.84011  1.0000
  H   H4498     1.0  0.79604  0.77119  0.93060  1.0000
  H   H4499     1.0  0.78818  0.79764  0.92714  1.0000
  H   H4500     1.0  0.81075  0.81952  0.90887  1.0000
  C   C2644     1.0  0.72766  0.97479  0.57367  1.0000
  C   C2645     1.0  0.86589  0.86784  0.94574  1.0000
  H   H4501     1.0  0.80059  0.77418  0.89284  1.0000
  H   H4502     1.0  0.79121  0.80108  0.89128  1.0000
  H   H4503     1.0  0.82116  0.82418  0.87526  1.0000
  H   H4504     1.0  0.82533  0.79808  0.87640  1.0000
  H   H4505     1.0  0.99691  0.75725  0.97126  1.0000
  C   C2646     1.0  0.77647  0.94356  0.78501  1.0000
  H   H4506     1.0  0.94965  0.92987  0.59877  1.0000
  H   H4507     1.0  0.77279  0.97561  0.51818  1.0000
  H   H4508     1.0  0.75200  0.97990  0.77487  1.0000
  N   N189      1.0  0.72601  0.81583  0.81883  1.0000
  H   H4509     1.0  0.87119  0.84045  0.96878  1.0000
  C   C2647     1.0  0.82640  0.92148  0.95984  1.0000
  C   C2648     1.0  0.74617  0.81437  0.82435  1.0000
  C   C2649     1.0  0.72775  0.82177  0.79654  1.0000
  H   H4510     1.0  0.91441  0.88922  0.95735  1.0000
  S   S758      1.0  0.67917  0.79945  0.87654  1.0000
  H   H4511     1.0  0.73214  0.98567  0.81814  1.0000
  H   H4512     1.0  0.88004  0.88199  0.97152  1.0000
  H   H4513     1.0  0.86237  0.78408  0.90004  1.0000
  H   H4514     1.0  0.79011  0.90036  0.48192  1.0000
  H   H4515     1.0  0.77364  0.96328  0.48322  1.0000
  C   C2650     1.0  0.75125  0.83389  0.82658  1.0000
  H   H4516     1.0  0.74698  0.80399  0.83896  1.0000
  H   H4517     1.0  0.67778  0.96380  0.58092  1.0000
  H   H4518     1.0  0.74082  0.81172  0.78876  1.0000
  H   H4519     1.0  0.71437  0.81926  0.79200  1.0000
  C   C2651     1.0  0.68127  0.87712  0.48279  1.0000
  C   C2652     1.0  0.90305  0.85848  0.94564  1.0000
  H   H4520     1.0  0.67309  0.74419  0.94372  1.0000
  H   H4521     1.0  0.94769  0.94966  0.54160  1.0000
  H   H4522     1.0  0.68744  0.83854  0.80997  1.0000
  C   C2653     1.0  0.68938  0.91049  0.49660  1.0000
  H   H4523     1.0  0.67291  0.90957  0.50156  1.0000
  H   H4524     1.0  0.76570  0.96557  0.71651  1.0000
  H   H4525     1.0  0.98291  0.95366  0.59179  1.0000
  H   H4526     1.0  0.72316  0.85455  0.79597  1.0000
  H   H4527     1.0  0.81599  0.96918  0.88416  1.0000
  C   C2654     1.0  0.90642  0.84111  0.93449  1.0000
  H   H4528     1.0  0.83094  0.94740  0.87507  1.0000
  H   H4529     1.0  0.74079  0.92215  0.54950  1.0000
  H   H4530     1.0  0.90903  0.95462  0.73114  1.0000
  H   H4531     1.0  0.70534  0.96460  0.80734  1.0000
  C   C2655     1.0  0.67933  0.91446  0.60143  1.0000
  N   N190      1.0  0.88547  0.87546  0.94185  1.0000
  C   C2656     1.0  0.72044  0.79532  0.82537  1.0000
  C   C2657     1.0  0.82022  0.96168  0.87120  1.0000
  H   H4532     1.0  0.99545  0.95542  0.63544  1.0000
  Fe  Fe380     1.0  0.87588  0.97444  0.51816  1.0000
  H   H4533     1.0  0.68194  0.89539  0.54506  1.0000
  C   C2658     1.0  0.72443  0.89198  0.49857  1.0000
  H   H4534     1.0  0.73753  0.93374  0.77616  1.0000
  H   H4535     1.0  0.90598  0.88844  0.91560  1.0000
  C   C2659     1.0  0.68315  0.91452  0.62003  1.0000
  H   H4536     1.0  0.97176  0.97420  0.53910  1.0000
  H   H4537     1.0  0.95077  0.92311  0.54818  1.0000
  H   H4538     1.0  0.86897  0.90168  0.95438  1.0000
  S   S759      1.0  0.89378  0.96625  0.54305  1.0000
  H   H4539     1.0  0.84599  0.80995  0.87612  1.0000
  H   H4540     1.0  0.84055  0.78673  0.93724  1.0000
  H   H4541     1.0  0.68445  0.90077  0.63102  1.0000
  H   H4542     1.0  0.76586  0.97753  0.66727  1.0000
  H   H4543     1.0  0.78030  0.95861  0.78220  1.0000
  H   H4544     1.0  0.90213  0.97595  0.67996  1.0000
  S   S760      1.0  0.68270  0.76614  0.83928  1.0000
  H   H4545     1.0  0.88919  0.87592  0.91028  1.0000
  C   C2660     1.0  0.90127  0.98406  0.55235  1.0000
  S   S761      1.0  0.84190  0.92899  0.49564  1.0000
  C   C2661     1.0  0.75599  0.94197  0.79998  1.0000
  S   S762      1.0  0.81795  0.92211  0.93798  1.0000
  S   S763      1.0  0.90110  0.75990  0.93871  1.0000
  C   C2662     1.0  0.73463  0.95026  0.77504  1.0000
  H   H4546     1.0  0.85952  0.90439  0.91840  1.0000
  H   H4547     1.0  0.85054  0.96148  0.59136  1.0000
  C   C2663     1.0  0.96814  0.97046  0.55573  1.0000
  N   N191      1.0  0.73739  0.95570  0.79350  1.0000
  H   H4548     1.0  0.83151  0.75561  0.91885  1.0000
  C   C2664     1.0  0.73698  0.77769  0.81851  1.0000
  C   C2665     1.0  0.89732  0.96785  0.72665  1.0000
  H   H4549     1.0  0.79514  0.80095  0.95457  1.0000
  H   H4550     1.0  0.90622  0.97802  0.71487  1.0000
  H   H4551     1.0  0.77135  0.97346  0.96852  1.0000
  H   H4552     1.0  0.83432  0.95404  0.57954  1.0000
  H   H4553     1.0  0.84443  0.96757  0.70505  1.0000
  H   H4554     1.0  0.69716  0.93360  0.82288  1.0000
  Fe  Fe381     1.0  0.69117  0.96071  0.65588  1.0000
  H   H4555     1.0  0.74256  0.86363  0.48990  1.0000
  Fe  Fe382     1.0  0.92762  0.73835  0.92401  1.0000
  C   C2666     1.0  0.77964  0.93188  0.48194  1.0000
  H   H4556     1.0  0.75750  0.94424  0.81456  1.0000
  H   H4557     1.0  0.70682  0.79506  0.81982  1.0000
  C   C2667     1.0  0.85797  0.76933  0.90673  1.0000
  C   C2668     1.0  0.73851  0.92912  0.53417  1.0000
  H   H4558     1.0  0.71612  0.79142  0.84195  1.0000
  H   H4559     1.0  0.74109  0.83955  0.83983  1.0000
  H   H4560     1.0  0.68470  0.96381  0.61369  1.0000
  H   H4561     1.0  0.80654  0.95739  0.86906  1.0000
  C   C2669     1.0  0.68778  0.83254  0.82594  1.0000
  H   H4562     1.0  0.90973  0.95299  0.67165  1.0000
  H   H4563     1.0  0.95145  0.97112  0.55970  1.0000
  H   H4564     1.0  0.72183  0.92333  0.82938  1.0000
  H   H4565     1.0  0.70726  0.93196  0.49829  1.0000
  C   C2670     1.0  0.85504  0.97779  0.69660  1.0000
  H   H4566     1.0  0.70841  0.96546  0.52410  1.0000
  C   C2671     1.0  0.78179  0.97986  0.97383  1.0000
  C   C2672     1.0  0.86874  0.98065  0.70944  1.0000
  H   H4567     1.0  0.70078  0.86193  0.52214  1.0000
  H   H4568     1.0  0.92019  0.82998  0.93785  1.0000
  H   H4569     1.0  0.97961  0.91904  0.56278  1.0000
  H   H4570     1.0  0.86417  0.97249  0.68280  1.0000
  C   C2673     1.0  0.90099  0.90007  0.95284  1.0000
  S   S764      1.0  0.72805  0.96484  0.70696  1.0000
  C   C2674     1.0  0.80338  0.94860  0.48924  1.0000
  S   S765      1.0  0.88468  0.95961  0.49127  1.0000
  H   H4571     1.0  0.75911  0.80767  0.81334  1.0000
  C   C2675     1.0  0.69412  0.87823  0.52087  1.0000
  H   H4572     1.0  0.92329  0.95817  0.68810  1.0000
  H   H4573     1.0  0.76701  0.83060  0.82928  1.0000
  N   N192      1.0  0.73241  0.96590  0.53875  1.0000
  H   H4574     1.0  0.74850  0.91895  0.52418  1.0000
  C   C2676     1.0  0.67954  0.94997  0.59169  1.0000
  H   H4575     1.0  0.71786  0.92372  0.80508  1.0000
  Fe  Fe383     1.0  0.69879  0.74946  0.90892  1.0000
  H   H4576     1.0  0.70382  0.95537  0.55003  1.0000
  H   H4577     1.0  0.78893  0.93273  0.79140  1.0000
  H   H4578     1.0  0.86694  0.75871  0.89680  1.0000
  C   C2677     1.0  0.97621  0.94433  0.58545  1.0000
  H   H4579     1.0  0.90916  0.84618  0.91805  1.0000
  H   H4580     1.0  0.84629  0.97411  0.85355  1.0000
  H   H4581     1.0  0.77664  0.93964  0.77064  1.0000
  H   H4582     1.0  0.75066  0.77513  0.82499  1.0000
  C   C2678     1.0  0.95240  0.93650  0.55302  1.0000
  H   H4583     1.0  0.73059  0.76375  0.82400  1.0000
  C   C2679     1.0  0.84190  0.96647  0.57919  1.0000
  C   C2680     1.0  0.71017  0.96757  0.53870  1.0000
  C   C2681     1.0  0.90784  0.97814  0.57054  1.0000
  H   H4584     1.0  0.85848  0.98371  0.81899  1.0000
  H   H4585     1.0  0.72181  0.95701  0.82406  1.0000
  H   H4586     1.0  0.73521  0.86268  0.51673  1.0000
  C   C2682     1.0  0.69257  0.92705  0.50584  1.0000
  H   H4587     1.0  0.85269  0.96864  0.56464  1.0000
  C   C2683     1.0  0.78443  0.94925  0.48477  1.0000
  Fe  Fe384     1.0  0.70722  0.97635  0.68472  1.0000
  H   H4588     1.0  0.70942  0.89126  0.53788  1.0000
  H   H4589     1.0  0.94287  0.95659  0.59014  1.0000
  H   H4590     1.0  0.71113  0.86312  0.48779  1.0000
  H   H4591     1.0  0.75487  0.87570  0.50161  1.0000
  H   H4592     1.0  0.76119  0.94721  0.52737  1.0000
  H   H4593     1.0  0.68021  0.94036  0.50360  1.0000
  H   H4594     1.0  0.69744  0.87132  0.55179  1.0000
  C   C2684     1.0  0.71923  0.95343  0.81048  1.0000
  S   S766      1.0  0.72159  0.96720  0.65512  1.0000
  H   H4595     1.0  0.75264  0.95393  0.55982  1.0000
  H   H4596     1.0  0.79744  0.97164  0.96874  1.0000
  S   S767      1.0  0.95972  0.74385  0.91224  1.0000
  H   H4597     1.0  0.73012  0.90030  0.48337  1.0000
  H   H4598     1.0  0.98371  0.93451  0.53866  1.0000
  H   H4599     1.0  0.84515  0.85032  0.96749  1.0000
  H   H4600     1.0  0.74620  0.95542  0.76177  1.0000
  C   C2685     1.0  0.73981  0.97729  0.78840  1.0000
  H   H4601     1.0  0.67273  0.86889  0.49661  1.0000
  H   H4602     1.0  0.89649  0.91125  0.96279  1.0000
  S   S768      1.0  0.97275  0.74381  0.85586  1.0000
  H   H4603     1.0  0.69176  0.91652  0.48020  1.0000
  H   H4604     1.0  0.99385  0.76668  0.89013  1.0000
  H   H4605     1.0  0.76500  0.98279  0.54254  1.0000
  H   H4606     1.0  0.67190  0.89197  0.47804  1.0000
  C   C2686     1.0  0.74472  0.98539  0.80476  1.0000
  C   C2687     1.0  0.73938  0.98527  0.52801  1.0000
  H   H4607     1.0  0.96796  0.98546  0.57988  1.0000
  C   C2688     1.0  0.82560  0.98553  0.58207  1.0000
  H   H4608     1.0  0.67955  0.98529  0.54471  1.0000
