data_image0
_chemical_formula_structural       HSHFeSHC4SCH2S2H3CH3C2H2FeH2C6H4C2H2CH3CH3CHC2NSH4CFeH2FeCH6SC2HCH2C3SCHNHC2H3NH2CHCH4NHCH3SCH3SH2CH2FeCNSHC6H6SCHCH3FeSHCH3CSCH5CSH4CHC3H3SH3C2HCHCHFeCH9FeSHCHCSHSHSHC2HCH2CH2CHFeHC4H3NC4HC3H9C2H9CNH3CHC2FeS3H2FeCH2SC2SC2HCH9SHCHCFeH4FeHCHCHCH3S2FeC3HS2FeS2HFeSFeC3HCH2SCH4SH2C3H4CFeH7CHFeC2H5NH3C3HSC5H5CHC2SCH6CHSC2H4CH6S2HC2H2CH2FeHCHSNCS3C2HC7H3C2FeSHCHSHC6H3SFeS2FeSFe2S2HC6H6C2H3CNH4FeC2H3SHFeH2CNC7H13FeCH2CH2CH5CHCSH7CH3NHSFeSFeS2FeSFeS3C2H4C6H4CHC3H5CS2C6H4CHC3FeCNH3CH3CS2H2CHCH6CH2FeH3C4NC3HCHCNH14C5H7CSCH4CSHCHC2HNH3CFeCH2CHC3H2SCHCH4CH2C2HCH14CH3SHFe2S2FeS2FeSFeS3FeSH2SCH3C2FeNC6H3C7H4C3HSFeHS2H2SH3CH2CH8SC2H3CH2NC4HC3H6CHC2HC2H5CHFeH2C2SHCH2CH2CH2C2HS2H5C2H5C2H3CH4NCHCH2CFeHCHCH3NHCH4SH2C3HCH6CH2SFeSC6H6C2H3CHCHC3HCH5CHCHFeHC3HCH2CH6C2SHC2H5CH3C2H2NCH4C3H2FeHCH2FeH3S2HCH4NHC2SCHFeH2CHNCS2H3C3Fe2SHC2HCSHSCH3CSCSH9CH4CHCH3C2H2CH2CHCNH3NH2CHCHCHCHFeCHFeS4HC2H2C6H3C2H2C2HSHCSHCH2CH3CHCH3CH3C2H2C2HNCH6CHSHFeHCH2SHCH3CH4CH7CHC2H2C2HCSHCH2SHC2HNH3CH3SHCH2CH6FeH2C3SH2C3H6SFeHCHFe2SC2H2FeH2CHSHFeS2CSFeS2FeSFeS3C2H3SC6H5C6H4CSCH4C2H3CNHFeCH3C2H5FeCH2CH2CH3CNCH2C2H6CH4C2HCHSC2H2C2H3FeH3CHCHC3SCH5NC2H5SCH2C2HCH3NH5CNHCH4SCH4CH2CFeHCSCSH4C2HFeS2FeS2FeSFeCS2H2SHSHCHC2H2NCH3C6H3C6H4CHCHC3HCHCH2FeH7CHC2SHCH2CH4C2H4CH5CH6NHNHCH8CHC3H4CH2CH4CH2CH2C2H2CHCHNH3C4SH4C2HCNHFeS2FeS2FeHFeS3H3NC2SFeSCSC3H4C6H4CH3CHC2HC3H3CHC2H3NH3CH2NH2CH2SHC2H3CSH4FeHCH3CH3CH3CH2CH6FeHCH3CHC2H2C2HCH2C3HS2H2SH
_chemical_formula_sum              "H960 S160 Fe80 C560 N40"
_cell_length_a       31.0754
_cell_length_b       61.5153
_cell_length_c       56.4332
_cell_angle_alpha    87.1768
_cell_angle_beta     87.0426
_cell_angle_gamma    122.458

_space_group_name_H-M_alt    "P 1"
_space_group_IT_number       1

loop_
  _space_group_symop_operation_xyz
  'x, y, z'

loop_
  _atom_site_type_symbol
  _atom_site_label
  _atom_site_symmetry_multiplicity
  _atom_site_fract_x
  _atom_site_fract_y
  _atom_site_fract_z
  _atom_site_occupancy
  H   H1        1.0  0.19753  0.26362  0.21216  1.0000
  S   S1        1.0  0.13039  0.13484  0.19707  1.0000
  H   H2        1.0  0.24163  0.17141  0.20556  1.0000
  Fe  Fe1       1.0  0.08143  0.09135  0.19745  1.0000
  S   S2        1.0  0.08957  0.06727  0.17049  1.0000
  H   H3        1.0  0.99660  0.98515  0.13419  1.0000
  C   C1        1.0  0.94683  0.23862  0.21167  1.0000
  C   C2        1.0  0.27820  0.26193  0.20254  1.0000
  C   C3        1.0  0.86983  0.20956  0.19016  1.0000
  C   C4        1.0  0.05564  0.20760  0.20805  1.0000
  S   S3        1.0  0.04273  0.16163  0.19745  1.0000
  C   C5        1.0  0.99162  0.97585  0.20701  1.0000
  H   H4        1.0  0.85237  0.23917  0.18060  1.0000
  H   H5        1.0  0.29815  0.25147  0.20044  1.0000
  S   S4        1.0  0.39895  0.25700  0.20634  1.0000
  S   S5        1.0  0.09721  0.08482  0.23471  1.0000
  H   H6        1.0  0.24997  0.25506  0.18897  1.0000
  H   H7        1.0  0.33487  0.29251  0.17635  1.0000
  H   H8        1.0  0.00679  0.03543  0.03632  1.0000
  C   C6        1.0  0.97222  0.01901  0.04696  1.0000
  H   H9        1.0  0.91831  0.18222  0.21795  1.0000
  H   H10       1.0  0.94369  0.17265  0.19478  1.0000
  H   H11       1.0  0.93822  0.98059  0.98779  1.0000
  C   C7        1.0  0.02151  0.00020  0.05624  1.0000
  C   C8        1.0  0.34794  0.22691  0.22013  1.0000
  H   H12       1.0  0.02660  0.27232  0.17742  1.0000
  H   H13       1.0  0.06573  0.21319  0.18913  1.0000
  Fe  Fe2       1.0  0.05803  0.13153  0.21159  1.0000
  H   H14       1.0  0.92964  0.23691  0.15209  1.0000
  H   H15       1.0  0.98875  0.24735  0.21156  1.0000
  C   C9        1.0  0.03534  0.04207  0.15849  1.0000
  C   C10       1.0  0.03764  0.02176  0.14957  1.0000
  C   C11       1.0  0.99459  0.00087  0.14068  1.0000
  C   C12       1.0  0.94932  0.00053  0.14005  1.0000
  C   C13       1.0  0.94737  0.02114  0.14841  1.0000
  C   C14       1.0  0.99006  0.04173  0.15782  1.0000
  H   H16       1.0  0.07271  0.02202  0.14987  1.0000
  H   H17       1.0  0.01933  0.00141  0.07587  1.0000
  H   H18       1.0  0.91255  0.02108  0.14784  1.0000
  H   H19       1.0  0.98808  0.05743  0.16437  1.0000
  C   C15       1.0  0.92968  0.98344  0.00634  1.0000
  C   C16       1.0  0.94788  0.20826  0.18436  1.0000
  H   H20       1.0  0.93627  0.25985  0.17190  1.0000
  H   H21       1.0  0.85205  0.19264  0.20361  1.0000
  C   C17       1.0  0.03705  0.98057  0.05218  1.0000
  H   H22       1.0  0.85745  0.20095  0.17293  1.0000
  H   H23       1.0  0.05481  0.01943  0.04865  1.0000
  H   H24       1.0  0.01606  0.98945  0.19124  1.0000
  C   C18       1.0  0.00580  0.26191  0.16230  1.0000
  H   H25       1.0  0.98906  0.21842  0.18745  1.0000
  H   H26       1.0  0.30104  0.30260  0.19445  1.0000
  H   H27       1.0  0.31648  0.21305  0.18691  1.0000
  C   C19       1.0  0.31183  0.20875  0.20604  1.0000
  H   H28       1.0  0.06451  0.24362  0.21593  1.0000
  C   C20       1.0  0.04366  0.18319  0.21722  1.0000
  C   C21       1.0  0.02274  0.01540  0.22645  1.0000
  N   N1        1.0  0.92747  0.22517  0.18934  1.0000
  S   S6        1.0  0.00818  0.08859  0.20853  1.0000
  H   H29       1.0  0.94618  0.20442  0.16521  1.0000
  H   H30       1.0  0.87220  0.98064  0.04620  1.0000
  H   H31       1.0  0.24560  0.21944  0.23242  1.0000
  H   H32       1.0  0.00562  0.03321  0.08096  1.0000
  C   C22       1.0  0.92096  0.18142  0.19849  1.0000
  Fe  Fe3       1.0  0.13920  0.12795  0.23536  1.0000
  H   H33       1.0  0.93643  0.01241  0.08376  1.0000
  H   H34       1.0  0.65270  0.29684  0.07759  1.0000
  Fe  Fe4       1.0  0.45088  0.28908  0.22877  1.0000
  C   C23       1.0  0.22017  0.22694  0.23262  1.0000
  H   H35       1.0  0.06704  0.98383  0.06405  1.0000
  H   H36       1.0  0.03643  0.02780  0.20926  1.0000
  H   H37       1.0  0.01532  0.27698  0.14765  1.0000
  H   H38       1.0  0.85468  0.23392  0.21228  1.0000
  H   H39       1.0  0.96785  0.04488  0.07057  1.0000
  H   H40       1.0  0.93989  0.01772  0.03838  1.0000
  S   S7        1.0  0.09164  0.29545  0.21616  1.0000
  C   C24       1.0  0.05502  0.22490  0.22323  1.0000
  C   C25       1.0  0.06887  0.01533  0.23530  1.0000
  H   H41       1.0  0.01042  0.00425  0.01059  1.0000
  C   C26       1.0  0.26929  0.18517  0.21658  1.0000
  H   H42       1.0  0.02047  0.25012  0.15585  1.0000
  H   H43       1.0  0.35070  0.29919  0.20605  1.0000
  C   C27       1.0  0.31824  0.29081  0.19476  1.0000
  C   C28       1.0  0.97045  0.02755  0.07210  1.0000
  C   C29       1.0  0.84388  0.22452  0.19542  1.0000
  S   S8        1.0  0.53481  0.30564  0.23111  1.0000
  C   C30       1.0  0.94720  0.24569  0.16860  1.0000
  H   H44       1.0  0.92442  0.99987  0.00508  1.0000
  N   N2        1.0  0.97255  0.99460  0.04626  1.0000
  H   H45       1.0  0.88239  0.16802  0.19266  1.0000
  C   C31       1.0  0.97436  0.98841  0.02080  1.0000
  C   C32       1.0  0.93776  0.99387  0.21260  1.0000
  H   H46       1.0  0.80166  0.21071  0.19744  1.0000
  H   H47       1.0  0.94329  0.25567  0.21231  1.0000
  H   H48       1.0  0.95377  0.00406  0.19451  1.0000
  N   N3        1.0  0.97552  0.98920  0.22373  1.0000
  H   H49       1.0  0.05373  0.98318  0.03359  1.0000
  H   H50       1.0  0.15454  0.21958  0.21311  1.0000
  C   C33       1.0  0.92194  0.00984  0.22652  1.0000
  H   H51       1.0  0.19662  0.21168  0.19785  1.0000
  C   C34       1.0  0.21975  0.26763  0.22802  1.0000
  H   H52       1.0  0.08628  0.00919  0.22168  1.0000
  H   H53       1.0  0.24485  0.28909  0.22633  1.0000
  H   H54       1.0  0.95308  0.03063  0.22478  1.0000
  H   H55       1.0  0.88869  0.00869  0.21880  1.0000
  N   N4        1.0  0.25182  0.25595  0.22741  1.0000
  H   H56       1.0  0.15396  0.19133  0.22286  1.0000
  C   C35       1.0  0.17916  0.21186  0.21544  1.0000
  H   H57       1.0  0.73170  0.29925  0.06825  1.0000
  H   H58       1.0  0.68489  0.30499  0.03874  1.0000
  H   H59       1.0  0.90191  0.97571  0.20956  1.0000
  S   S9        1.0  0.89459  0.97476  0.12891  1.0000
  C   C36       1.0  0.92336  0.22227  0.23587  1.0000
  H   H60       1.0  0.88264  0.20660  0.23640  1.0000
  H   H61       1.0  0.20035  0.22083  0.25085  1.0000
  H   H62       1.0  0.24295  0.25484  0.27842  1.0000
  S   S10       1.0  0.96352  0.05380  0.27266  1.0000
  H   H63       1.0  0.06305  0.09303  0.29294  1.0000
  H   H64       1.0  0.01910  0.18759  0.27575  1.0000
  C   C37       1.0  0.29962  0.19735  0.25533  1.0000
  H   H65       1.0  0.20208  0.27297  0.26477  1.0000
  H   H66       1.0  0.12813  0.13908  0.29154  1.0000
  Fe  Fe5       1.0  0.05956  0.27857  0.25362  1.0000
  C   C38       1.0  0.18303  0.16017  0.31660  1.0000
  N   N5        1.0  0.11288  0.11098  0.32087  1.0000
  S   S11       1.0  0.03651  0.23813  0.26705  1.0000
  H   H67       1.0  0.18858  0.16015  0.33583  1.0000
  C   C39       1.0  0.97140  0.03088  0.28842  1.0000
  C   C40       1.0  0.92950  0.01003  0.30248  1.0000
  C   C41       1.0  0.93482  0.99156  0.31535  1.0000
  C   C42       1.0  0.98227  0.99396  0.31429  1.0000
  C   C43       1.0  0.02401  0.01468  0.30010  1.0000
  C   C44       1.0  0.01866  0.03310  0.28725  1.0000
  H   H68       1.0  0.89283  0.00824  0.30355  1.0000
  H   H69       1.0  0.15264  0.11822  0.35280  1.0000
  H   H70       1.0  0.06076  0.01657  0.29921  1.0000
  H   H71       1.0  0.05131  0.04915  0.27670  1.0000
  H   H72       1.0  0.17029  0.07660  0.30665  1.0000
  H   H73       1.0  0.19028  0.11980  0.31337  1.0000
  S   S12       1.0  0.43419  0.28752  0.26811  1.0000
  C   C45       1.0  0.07783  0.08326  0.36192  1.0000
  H   H74       1.0  0.15037  0.10641  0.28988  1.0000
  C   C46       1.0  0.01861  0.09761  0.32041  1.0000
  H   H75       1.0  0.10241  0.14322  0.31849  1.0000
  H   H76       1.0  0.15090  0.07816  0.33643  1.0000
  H   H77       1.0  0.10403  0.06245  0.31496  1.0000
  Fe  Fe6       1.0  0.51949  0.30783  0.27000  1.0000
  S   S13       1.0  0.00825  0.29398  0.25594  1.0000
  H   H78       1.0  0.16116  0.24000  0.25707  1.0000
  C   C47       1.0  0.06069  0.09258  0.31275  1.0000
  H   H79       1.0  0.32591  0.26625  0.23857  1.0000
  H   H80       1.0  0.04085  0.08057  0.36857  1.0000
  H   H81       1.0  0.01890  0.10187  0.33925  1.0000
  C   C48       1.0  0.14262  0.07898  0.31764  1.0000
  S   S14       1.0  0.20954  0.15039  0.25529  1.0000
  C   C49       1.0  0.18240  0.26064  0.25032  1.0000
  H   H82       1.0  0.04575  0.07220  0.31885  1.0000
  H   H83       1.0  0.15200  0.26395  0.24550  1.0000
  H   H84       1.0  0.27299  0.23708  0.27259  1.0000
  H   H85       1.0  0.07041  0.06642  0.35249  1.0000
  H   H86       1.0  0.09605  0.08267  0.37816  1.0000
  C   C50       1.0  0.12930  0.13798  0.31123  1.0000
  S   S15       1.0  0.56578  0.29772  0.29250  1.0000
  H   H87       1.0  0.30919  0.28892  0.24442  1.0000
  H   H88       1.0  0.36961  0.23470  0.25581  1.0000
  H   H89       1.0  0.59551  0.30272  0.44032  1.0000
  H   H90       1.0  0.29530  0.19299  0.27443  1.0000
  C   C51       1.0  0.15047  0.10524  0.30966  1.0000
  H   H91       1.0  0.30958  0.26916  0.28145  1.0000
  C   C52       1.0  0.11297  0.11005  0.34767  1.0000
  C   C53       1.0  0.27789  0.25636  0.27067  1.0000
  C   C54       1.0  0.29294  0.26786  0.24446  1.0000
  H   H92       1.0  0.02211  0.11365  0.30872  1.0000
  H   H93       1.0  0.18771  0.17894  0.31091  1.0000
  H   H94       1.0  0.98046  0.08013  0.31826  1.0000
  S   S16       1.0  0.06947  0.12696  0.24989  1.0000
  H   H95       1.0  0.10043  0.12261  0.35470  1.0000
  H   H96       1.0  0.21408  0.16001  0.30618  1.0000
  H   H97       1.0  0.71777  0.29850  0.45155  1.0000
  C   C55       1.0  0.02983  0.19335  0.25687  1.0000
  C   C56       1.0  0.04138  0.21770  0.24767  1.0000
  H   H98       1.0  0.90243  0.97564  0.32631  1.0000
  C   C57       1.0  0.26299  0.17944  0.24130  1.0000
  H   H99       1.0  0.95982  0.98765  0.26170  1.0000
  C   C58       1.0  0.34174  0.22107  0.24482  1.0000
  H   H100      1.0  0.91066  0.00277  0.24564  1.0000
  Fe  Fe7       1.0  0.02662  0.08433  0.24581  1.0000
  C   C59       1.0  0.03127  0.17621  0.24174  1.0000
  H   H101      1.0  0.65200  0.30297  0.47224  1.0000
  H   H102      1.0  0.02123  0.15730  0.24896  1.0000
  H   H103      1.0  0.92456  0.23492  0.24957  1.0000
  H   H104      1.0  0.05875  0.00325  0.25239  1.0000
  H   H105      1.0  0.94569  0.21407  0.24170  1.0000
  H   H106      1.0  0.63523  0.29094  0.43218  1.0000
  H   H107      1.0  0.01407  0.02605  0.23917  1.0000
  H   H108      1.0  0.09914  0.03539  0.23852  1.0000
  H   H109      1.0  0.88017  0.25037  0.71362  1.0000
  Fe  Fe8       1.0  0.67135  0.22094  0.70999  1.0000
  S   S17       1.0  0.67358  0.23156  0.67087  1.0000
  H   H110      1.0  0.55530  0.04236  0.67597  1.0000
  C   C60       1.0  0.38925  0.09946  0.73175  1.0000
  H   H111      1.0  0.86951  0.00833  0.68800  1.0000
  C   C61       1.0  0.42359  0.98671  0.72818  1.0000
  S   S18       1.0  0.73110  0.08930  0.70431  1.0000
  H   H112      1.0  0.50789  0.06101  0.66429  1.0000
  S   S19       1.0  0.28625  0.00851  0.70157  1.0000
  H   H113      1.0  0.14996  0.99726  0.67979  1.0000
  S   S20       1.0  0.64880  0.01728  0.70891  1.0000
  H   H114      1.0  0.44347  0.07993  0.65895  1.0000
  C   C62       1.0  0.11374  0.98080  0.67569  1.0000
  C   C63       1.0  0.70622  0.12422  0.71476  1.0000
  H   H115      1.0  0.41692  0.06985  0.70336  1.0000
  C   C64       1.0  0.46360  0.98683  0.71530  1.0000
  H   H116      1.0  0.68054  0.11642  0.70090  1.0000
  H   H117      1.0  0.40182  0.03792  0.70149  1.0000
  C   C65       1.0  0.47411  0.13900  0.73161  1.0000
  H   H118      1.0  0.42295  0.04621  0.65754  1.0000
  H   H119      1.0  0.43231  0.12557  0.70053  1.0000
  C   C66       1.0  0.48228  0.05935  0.72464  1.0000
  H   H120      1.0  0.57826  0.10089  0.71478  1.0000
  Fe  Fe9       1.0  0.20704  0.98080  0.71918  1.0000
  H   H121      1.0  0.61467  0.28810  0.68515  1.0000
  C   C67       1.0  0.72277  0.27315  0.63721  1.0000
  C   C68       1.0  0.72708  0.26117  0.65794  1.0000
  C   C69       1.0  0.77405  0.27277  0.66781  1.0000
  C   C70       1.0  0.73466  0.11356  0.72090  1.0000
  H   H122      1.0  0.68662  0.26421  0.62939  1.0000
  H   H123      1.0  0.77809  0.26374  0.68361  1.0000
  H   H124      1.0  0.53864  0.04047  0.70680  1.0000
  N   N6        1.0  0.80810  0.20857  0.67092  1.0000
  C   C71       1.0  0.84741  0.23314  0.68116  1.0000
  C   C72       1.0  0.81644  0.21407  0.64417  1.0000
  C   C73       1.0  0.81775  0.18773  0.67850  1.0000
  C   C74       1.0  0.75568  0.20153  0.68079  1.0000
  H   H125      1.0  0.60007  0.27057  0.71402  1.0000
  C   C75       1.0  0.80656  0.23462  0.63400  1.0000
  C   C76       1.0  0.79541  0.16386  0.66411  1.0000
  C   C77       1.0  0.70884  0.17987  0.66963  1.0000
  H   H126      1.0  0.88648  0.24083  0.67233  1.0000
  H   H127      1.0  0.83976  0.24869  0.67781  1.0000
  H   H128      1.0  0.79225  0.19649  0.63498  1.0000
  H   H129      1.0  0.85643  0.22045  0.63780  1.0000
  H   H130      1.0  0.85972  0.19584  0.67764  1.0000
  H   H131      1.0  0.80316  0.18036  0.69748  1.0000
  H   H132      1.0  0.74940  0.19539  0.70017  1.0000
  H   H133      1.0  0.75252  0.21873  0.68014  1.0000
  H   H134      1.0  0.50679  0.15609  0.72205  1.0000
  C   C78       1.0  0.85704  0.01428  0.70382  1.0000
  C   C79       1.0  0.85124  0.23098  0.70827  1.0000
  H   H135      1.0  0.76706  0.22948  0.63924  1.0000
  H   H136      1.0  0.83465  0.25421  0.63914  1.0000
  H   H137      1.0  0.81095  0.23590  0.61422  1.0000
  H   H138      1.0  0.75406  0.15453  0.66241  1.0000
  H   H139      1.0  0.80025  0.14908  0.67350  1.0000
  H   H140      1.0  0.81648  0.16874  0.64619  1.0000
  H   H141      1.0  0.69417  0.16071  0.67928  1.0000
  H   H142      1.0  0.71555  0.17891  0.65044  1.0000
  H   H143      1.0  0.67769  0.18368  0.67085  1.0000
  C   C80       1.0  0.86240  0.00232  0.72732  1.0000
  N   N7        1.0  0.48346  0.06702  0.69870  1.0000
  H   H144      1.0  0.59911  0.11310  0.68395  1.0000
  H   H145      1.0  0.79112  0.98551  0.64510  1.0000
  H   H146      1.0  0.77839  0.30361  0.70842  1.0000
  C   C81       1.0  0.51663  0.09589  0.69240  1.0000
  H   H147      1.0  0.51961  0.10050  0.67286  1.0000
  C   C82       1.0  0.54663  0.05217  0.68969  1.0000
  C   C83       1.0  0.57222  0.11025  0.69931  1.0000
  Fe  Fe10      1.0  0.71595  0.05181  0.72247  1.0000
  S   S21       1.0  0.33767  0.07759  0.71596  1.0000
  S   S22       1.0  0.74122  0.23982  0.72990  1.0000
  S   S23       1.0  0.64240  0.18064  0.72583  1.0000
  H   H148      1.0  0.49837  0.10578  0.69992  1.0000
  H   H149      1.0  0.70118  0.28390  0.69322  1.0000
  Fe  Fe11      1.0  0.69755  0.00038  0.70737  1.0000
  C   C84       1.0  0.49967  0.05283  0.68320  1.0000
  H   H150      1.0  0.85306  0.30461  0.66435  1.0000
  H   H151      1.0  0.46771  0.03213  0.68342  1.0000
  S   S24       1.0  0.71369  0.98744  0.67283  1.0000
  C   C85       1.0  0.41897  0.06005  0.66781  1.0000
  C   C86       1.0  0.62570  0.27760  0.69720  1.0000
  S   S25       1.0  0.37562  0.98641  0.71242  1.0000
  C   C87       1.0  0.08480  0.98404  0.65910  1.0000
  C   C88       1.0  0.42922  0.05832  0.69410  1.0000
  H   H152      1.0  0.91899  0.98693  0.70419  1.0000
  C   C89       1.0  0.71109  0.14498  0.72637  1.0000
  H   H153      1.0  0.90367  0.00964  0.72721  1.0000
  H   H154      1.0  0.67061  0.29904  0.65281  1.0000
  H   H155      1.0  0.37867  0.05460  0.66727  1.0000
  H   H156      1.0  0.76133  0.30605  0.61072  1.0000
  H   H157      1.0  0.61689  0.25991  0.68864  1.0000
  H   H158      1.0  0.58163  0.07154  0.69003  1.0000
  H   H159      1.0  0.09891  0.00308  0.65047  1.0000
  H   H160      1.0  0.53336  0.98730  0.71687  1.0000
  H   H161      1.0  0.68215  0.28763  0.72192  1.0000
  S   S26       1.0  0.76640  0.03623  0.71827  1.0000
  H   H162      1.0  0.68849  0.15273  0.72176  1.0000
  C   C90       1.0  0.68254  0.29261  0.70266  1.0000
  H   H163      1.0  0.58316  0.12962  0.70456  1.0000
  C   C91       1.0  0.43188  0.12173  0.71949  1.0000
  Fe  Fe12      1.0  0.29398  0.03509  0.72936  1.0000
  H   H164      1.0  0.88219  0.03569  0.70319  1.0000
  H   H165      1.0  0.09543  0.98678  0.57313  1.0000
  H   H166      1.0  0.81473  0.22470  0.71871  1.0000
  H   H167      1.0  0.45541  0.03808  0.72861  1.0000
  Fe  Fe13      1.0  0.31458  0.99231  0.72873  1.0000
  H   H168      1.0  0.86402  0.21785  0.71352  1.0000
  C   C92       1.0  0.76493  0.29683  0.62666  1.0000
  H   H169      1.0  0.20175  0.98177  0.62158  1.0000
  C   C93       1.0  0.50313  0.98753  0.72699  1.0000
  H   H170      1.0  0.81767  0.00968  0.70235  1.0000
  C   C94       1.0  0.81659  0.29595  0.65685  1.0000
  H   H171      1.0  0.51947  0.06309  0.72942  1.0000
  H   H172      1.0  0.46395  0.98629  0.69616  1.0000
  H   H173      1.0  0.15719  0.98041  0.59133  1.0000
  S   S27       1.0  0.62295  0.22680  0.73644  1.0000
  S   S28       1.0  0.32555  0.01999  0.75580  1.0000
  Fe  Fe14      1.0  0.60083  0.18831  0.75439  1.0000
  C   C95       1.0  0.07124  0.97925  0.83412  1.0000
  C   C96       1.0  0.66194  0.09204  0.78791  1.0000
  C   C97       1.0  0.76185  0.30041  0.78862  1.0000
  H   H174      1.0  0.17695  0.01071  0.79388  1.0000
  S   S29       1.0  0.66579  0.20617  0.77788  1.0000
  S   S30       1.0  0.52482  0.15553  0.77237  1.0000
  Fe  Fe15      1.0  0.69213  0.24419  0.75730  1.0000
  S   S31       1.0  0.71990  0.28500  0.76653  1.0000
  S   S32       1.0  0.69221  0.03665  0.76096  1.0000
  H   H175      1.0  0.10310  0.01290  0.80897  1.0000
  Fe  Fe16      1.0  0.24230  0.99138  0.76867  1.0000
  S   S33       1.0  0.79372  0.01967  0.78032  1.0000
  Fe  Fe17      1.0  0.73603  0.01736  0.75564  1.0000
  C   C98       1.0  0.58768  0.05302  0.77416  1.0000
  C   C99       1.0  0.57695  0.08795  0.78800  1.0000
  C   C100      1.0  0.46233  0.98739  0.76470  1.0000
  H   H176      1.0  0.50691  0.04522  0.81804  1.0000
  C   C101      1.0  0.43045  0.11223  0.76847  1.0000
  H   H177      1.0  0.66536  0.12290  0.80806  1.0000
  H   H178      1.0  0.57550  0.09635  0.80486  1.0000
  S   S34       1.0  0.21138  0.00882  0.74447  1.0000
  C   C102      1.0  0.59009  0.06073  0.81602  1.0000
  H   H179      1.0  0.42946  0.10857  0.78750  1.0000
  H   H180      1.0  0.35588  0.07780  0.76595  1.0000
  H   H181      1.0  0.64436  0.26550  0.81709  1.0000
  H   H182      1.0  0.86211  0.01238  0.80681  1.0000
  S   S35       1.0  0.55029  0.98720  0.76708  1.0000
  H   H183      1.0  0.54532  0.04163  0.77368  1.0000
  H   H184      1.0  0.52632  0.03222  0.84112  1.0000
  C   C103      1.0  0.82604  0.99390  0.80770  1.0000
  C   C104      1.0  0.78495  0.99201  0.79646  1.0000
  C   C105      1.0  0.76807  0.28645  0.80693  1.0000
  H   H185      1.0  0.62595  0.12951  0.77602  1.0000
  H   H186      1.0  0.61340  0.05229  0.81976  1.0000
  H   H187      1.0  0.74956  0.26571  0.80690  1.0000
  H   H188      1.0  0.80026  0.28828  0.84037  1.0000
  C   C106      1.0  0.47332  0.13434  0.75621  1.0000
  Fe  Fe18      1.0  0.62727  0.00110  0.74711  1.0000
  H   H189      1.0  0.68533  0.10376  0.82369  1.0000
  H   H190      1.0  0.80240  0.98449  0.91654  1.0000
  H   H191      1.0  0.61524  0.26838  0.84373  1.0000
  H   H192      1.0  0.79072  0.11585  0.74328  1.0000
  H   H193      1.0  0.68063  0.08083  0.78886  1.0000
  H   H194      1.0  0.66909  0.29902  0.87247  1.0000
  H   H195      1.0  0.68473  0.28437  0.83869  1.0000
  C   C107      1.0  0.50237  0.98751  0.75177  1.0000
  H   H196      1.0  0.62069  0.10911  0.75293  1.0000
  Fe  Fe19      1.0  0.70833  0.20004  0.74826  1.0000
  C   C108      1.0  0.77413  0.14512  0.74980  1.0000
  C   C109      1.0  0.68526  0.11252  0.80603  1.0000
  H   H197      1.0  0.59743  0.03888  0.78063  1.0000
  H   H198      1.0  0.53634  0.07419  0.78473  1.0000
  H   H199      1.0  0.65284  0.07055  0.74656  1.0000
  H   H200      1.0  0.59859  0.07480  0.82952  1.0000
  H   H201      1.0  0.67529  0.10277  0.77003  1.0000
  N   N8        1.0  0.60446  0.07397  0.79102  1.0000
  H   H202      1.0  0.72590  0.12722  0.79973  1.0000
  H   H203      1.0  0.52322  0.02161  0.81210  1.0000
  H   H204      1.0  0.76034  0.97948  0.85514  1.0000
  C   C110      1.0  0.53323  0.03877  0.82183  1.0000
  C   C111      1.0  0.64907  0.27913  0.83048  1.0000
  C   C112      1.0  0.79658  0.29925  0.82592  1.0000
  H   H205      1.0  0.73207  0.98330  0.91927  1.0000
  S   S36       1.0  0.75585  0.18333  0.75695  1.0000
  C   C113      1.0  0.75524  0.97649  0.87491  1.0000
  C   C114      1.0  0.61082  0.06128  0.74810  1.0000
  C   C115      1.0  0.38871  0.09478  0.75630  1.0000
  C   C116      1.0  0.15567  0.97702  0.81715  1.0000
  C   C117      1.0  0.60034  0.11084  0.76848  1.0000
  H   H206      1.0  0.80123  0.15349  0.76306  1.0000
  H   H207      1.0  0.85470  0.01130  0.74231  1.0000
  H   H208      1.0  0.49150  0.09380  0.74007  1.0000
  H   H209      1.0  0.46873  0.06612  0.76092  1.0000
  H   H210      1.0  0.59551  0.04364  0.73840  1.0000
  C   C118      1.0  0.10756  0.99772  0.81631  1.0000
  H   H211      1.0  0.46118  0.98711  0.78390  1.0000
  C   C119      1.0  0.14924  0.99640  0.80762  1.0000
  C   C120      1.0  0.74576  0.15585  0.74359  1.0000
  S   S37       1.0  0.01792  0.98071  0.84351  1.0000
  C   C121      1.0  0.42334  0.98730  0.75293  1.0000
  H   H212      1.0  0.56921  0.11259  0.76183  1.0000
  H   H213      1.0  0.78814  0.99401  0.88121  1.0000
  H   H214      1.0  0.39255  0.98711  0.76302  1.0000
  H   H215      1.0  0.60020  0.07362  0.73877  1.0000
  H   H216      1.0  0.83034  0.97823  0.95268  1.0000
  H   H217      1.0  0.90949  0.99736  0.76551  1.0000
  C   C122      1.0  0.76811  0.12378  0.73871  1.0000
  H   H218      1.0  0.60102  0.29554  0.86079  1.0000
  S   S38       1.0  0.66948  0.98045  0.74460  1.0000
  C   C123      1.0  0.46641  0.07241  0.74254  1.0000
  C   C124      1.0  0.65372  0.30300  0.81751  1.0000
  H   H219      1.0  0.04408  0.98197  0.77037  1.0000
  H   H220      1.0  0.42608  0.06628  0.74151  1.0000
  H   H221      1.0  0.62053  0.29590  0.80659  1.0000
  H   H222      1.0  0.09474  0.97732  0.76311  1.0000
  C   C125      1.0  0.89612  0.97768  0.76023  1.0000
  H   H223      1.0  0.76981  0.97790  0.74756  1.0000
  H   H224      1.0  0.92255  0.97890  0.74559  1.0000
  H   H225      1.0  0.71864  0.97480  0.88016  1.0000
  H   H226      1.0  0.57526  0.30387  0.83778  1.0000
  H   H227      1.0  0.89662  0.38287  0.18053  1.0000
  H   H228      1.0  0.79498  0.35653  0.22715  1.0000
  S   S39       1.0  0.46273  0.32816  0.21991  1.0000
  S   S40       1.0  0.61983  0.37843  0.20738  1.0000
  H   H229      1.0  0.83027  0.48010  0.20454  1.0000
  C   C126      1.0  0.03871  0.47279  0.23179  1.0000
  C   C127      1.0  0.90548  0.39357  0.98760  1.0000
  H   H230      1.0  0.80703  0.31663  0.20360  1.0000
  H   H231      1.0  0.79322  0.52238  0.13059  1.0000
  C   C128      1.0  0.77024  0.31669  0.06940  1.0000
  H   H232      1.0  0.07457  0.49024  0.22327  1.0000
  H   H233      1.0  0.79693  0.38558  0.03959  1.0000
  Fe  Fe20      1.0  0.15245  0.32976  0.23294  1.0000
  H   H234      1.0  0.72677  0.43301  0.12012  1.0000
  C   C129      1.0  0.65878  0.31522  0.06948  1.0000
  H   H235      1.0  0.92638  0.35429  0.20359  1.0000
  S   S41       1.0  0.10965  0.35002  0.23228  1.0000
  N   N9        1.0  0.85993  0.35604  0.21221  1.0000
  C   C130      1.0  0.93294  0.40500  0.20920  1.0000
  S   S42       1.0  0.87691  0.37460  0.10387  1.0000
  S   S43       1.0  0.74234  0.35651  0.12904  1.0000
  S   S44       1.0  0.98980  0.40640  0.15001  1.0000
  C   C131      1.0  0.89843  0.40386  0.00811  1.0000
  C   C132      1.0  0.32632  0.35118  0.22384  1.0000
  H   H236      1.0  0.87423  0.42816  0.02147  1.0000
  C   C133      1.0  0.99137  0.33617  0.17988  1.0000
  C   C134      1.0  0.95660  0.33301  0.16330  1.0000
  C   C135      1.0  0.95592  0.35439  0.15370  1.0000
  C   C136      1.0  0.99012  0.37906  0.16066  1.0000
  C   C137      1.0  0.02463  0.38215  0.17730  1.0000
  C   C138      1.0  0.02519  0.36080  0.18693  1.0000
  C   C139      1.0  0.79109  0.34058  0.18193  1.0000
  H   H237      1.0  0.92927  0.35185  0.14086  1.0000
  H   H238      1.0  0.05115  0.40118  0.18277  1.0000
  H   H239      1.0  0.05205  0.36347  0.19967  1.0000
  C   C140      1.0  0.72900  0.37730  0.06058  1.0000
  C   C141      1.0  0.88453  0.38281  0.19950  1.0000
  Fe  Fe21      1.0  0.01909  0.57336  0.21848  1.0000
  S   S45       1.0  0.09439  0.58697  0.23340  1.0000
  H   H240      1.0  0.93039  0.31400  0.15774  1.0000
  C   C142      1.0  0.75511  0.37058  0.04093  1.0000
  H   H241      1.0  0.80867  0.50100  0.17504  1.0000
  S   S46       1.0  0.23581  0.34823  0.21909  1.0000
  H   H242      1.0  0.33812  0.36113  0.20611  1.0000
  C   C143      1.0  0.70964  0.36184  0.15222  1.0000
  C   C144      1.0  0.73510  0.38351  0.16512  1.0000
  C   C145      1.0  0.70746  0.38793  0.18266  1.0000
  C   C146      1.0  0.65428  0.37075  0.18737  1.0000
  C   C147      1.0  0.62922  0.34854  0.17516  1.0000
  C   C148      1.0  0.65685  0.34414  0.15761  1.0000
  H   H243      1.0  0.72715  0.40480  0.19246  1.0000
  H   H244      1.0  0.58825  0.33512  0.17872  1.0000
  H   H245      1.0  0.63693  0.32718  0.14789  1.0000
  S   S47       1.0  0.97203  0.53171  0.20943  1.0000
  Fe  Fe22      1.0  0.90832  0.44422  0.10768  1.0000
  S   S48       1.0  0.88107  0.41584  0.13998  1.0000
  S   S49       1.0  0.92880  0.48542  0.10926  1.0000
  Fe  Fe23      1.0  0.90257  0.40570  0.07354  1.0000
  S   S50       1.0  0.91189  0.39517  0.03604  1.0000
  Fe  Fe24      1.0  0.82489  0.38723  0.11702  1.0000
  Fe  Fe25      1.0  0.93564  0.40589  0.12432  1.0000
  S   S51       1.0  0.84674  0.41631  0.08564  1.0000
  S   S52       1.0  0.96634  0.43607  0.09308  1.0000
  H   H246      1.0  0.77590  0.39696  0.16141  1.0000
  C   C149      1.0  0.96579  0.52053  0.18092  1.0000
  C   C150      1.0  0.94769  0.49435  0.17949  1.0000
  C   C151      1.0  0.93849  0.48382  0.15747  1.0000
  C   C152      1.0  0.94612  0.49919  0.13666  1.0000
  C   C153      1.0  0.96444  0.52550  0.13802  1.0000
  C   C154      1.0  0.97473  0.53625  0.16011  1.0000
  H   H247      1.0  0.94046  0.48206  0.19550  1.0000
  H   H248      1.0  0.92482  0.46372  0.15672  1.0000
  H   H249      1.0  0.97044  0.53755  0.12199  1.0000
  H   H250      1.0  0.98843  0.55646  0.16110  1.0000
  H   H251      1.0  0.77769  0.36739  0.99278  1.0000
  H   H252      1.0  0.81007  0.35921  0.17066  1.0000
  C   C155      1.0  0.90054  0.35133  0.21947  1.0000
  C   C156      1.0  0.88109  0.32429  0.23179  1.0000
  H   H253      1.0  0.72028  0.46640  0.13169  1.0000
  H   H254      1.0  0.39943  0.35575  0.22826  1.0000
  H   H255      1.0  0.67075  0.32890  0.03213  1.0000
  C   C157      1.0  0.87950  0.41992  0.00593  1.0000
  N   N10       1.0  0.74636  0.34393  0.04369  1.0000
  H   H256      1.0  0.76617  0.32131  0.02269  1.0000
  H   H257      1.0  0.02353  0.45936  0.21757  1.0000
  H   H258      1.0  0.74100  0.37365  0.02419  1.0000
  H   H259      1.0  0.70024  0.45446  0.18550  1.0000
  Fe  Fe26      1.0  0.11667  0.62700  0.21970  1.0000
  C   C158      1.0  0.69001  0.32315  0.04479  1.0000
  C   C159      1.0  0.82934  0.52290  0.12785  1.0000
  H   H260      1.0  0.65943  0.43946  0.16210  1.0000
  H   H261      1.0  0.73928  0.37502  0.07860  1.0000
  H   H262      1.0  0.85604  0.33673  0.18046  1.0000
  S   S53       1.0  0.04398  0.61289  0.20188  1.0000
  H   H263      1.0  0.85020  0.53539  0.11109  1.0000
  Fe  Fe27      1.0  0.04526  0.31359  0.21936  1.0000
  H   H264      1.0  0.79853  0.31651  0.05670  1.0000
  H   H265      1.0  0.71796  0.33582  0.99639  1.0000
  C   C160      1.0  0.82967  0.33668  0.19470  1.0000
  N   N11       1.0  0.79142  0.47598  0.14635  1.0000
  C   C161      1.0  0.81977  0.49580  0.12518  1.0000
  C   C162      1.0  0.79333  0.45261  0.14141  1.0000
  C   C163      1.0  0.81905  0.48761  0.16808  1.0000
  C   C164      1.0  0.73744  0.46998  0.14905  1.0000
  C   C165      1.0  0.76737  0.43889  0.11943  1.0000
  C   C166      1.0  0.81153  0.46875  0.18934  1.0000
  C   C167      1.0  0.69878  0.44764  0.16754  1.0000
  H   H266      1.0  0.85796  0.49878  0.12080  1.0000
  H   H267      1.0  0.79917  0.48904  0.10891  1.0000
  H   H268      1.0  0.77576  0.43765  0.15662  1.0000
  H   H269      1.0  0.83379  0.45798  0.13918  1.0000
  H   H270      1.0  0.86123  0.49974  0.16330  1.0000
  H   H271      1.0  0.76750  0.42087  0.11905  1.0000
  H   H272      1.0  0.78878  0.45088  0.10257  1.0000
  H   H273      1.0  0.83076  0.45837  0.18503  1.0000
  H   H274      1.0  0.77084  0.45464  0.19547  1.0000
  H   H275      1.0  0.92000  0.38107  0.98908  1.0000
  H   H276      1.0  0.73748  0.48718  0.15429  1.0000
  H   H277      1.0  0.70309  0.43098  0.16855  1.0000
  H   H278      1.0  0.85410  0.53255  0.14230  1.0000
  Fe  Fe28      1.0  0.54544  0.34454  0.22620  1.0000
  C   C168      1.0  0.77143  0.34197  0.06517  1.0000
  H   H279      1.0  0.68680  0.36589  0.06017  1.0000
  H   H280      1.0  0.81589  0.35422  0.02226  1.0000
  C   C169      1.0  0.77366  0.34117  0.02220  1.0000
  H   H281      1.0  0.81242  0.35817  0.06373  1.0000
  H   H282      1.0  0.85645  0.38876  0.19885  1.0000
  C   C170      1.0  0.82318  0.35202  0.23302  1.0000
  H   H283      1.0  0.67453  0.32984  0.08252  1.0000
  H   H284      1.0  0.78155  0.31555  0.08757  1.0000
  H   H285      1.0  0.74198  0.39798  0.05719  1.0000
  H   H286      1.0  0.75494  0.34443  0.08185  1.0000
  H   H287      1.0  0.77156  0.32517  0.16967  1.0000
  C   C171      1.0  0.75987  0.34636  0.99755  1.0000
  H   H288      1.0  0.94388  0.42352  0.19915  1.0000
  C   C172      1.0  0.27676  0.34181  0.23428  1.0000
  S   S54       1.0  0.99119  0.30896  0.19160  1.0000
  H   H289      1.0  0.96599  0.40285  0.20595  1.0000
  H   H290      1.0  0.00877  0.49668  0.22721  1.0000
  H   H291      1.0  0.76059  0.33891  0.19447  1.0000
  H   H292      1.0  0.92738  0.40690  0.22828  1.0000
  H   H293      1.0  0.92624  0.36546  0.23155  1.0000
  H   H294      1.0  0.61983  0.31099  0.06700  1.0000
  H   H295      1.0  0.86261  0.30896  0.21945  1.0000
  C   C173      1.0  0.36113  0.34817  0.23636  1.0000
  H   H296      1.0  0.96082  0.46360  0.23554  1.0000
  H   H297      1.0  0.17771  0.33175  0.33157  1.0000
  H   H298      1.0  0.88357  0.37160  0.25811  1.0000
  N   N12       1.0  0.25767  0.38672  0.29138  1.0000
  H   H299      1.0  0.92330  0.63006  0.29280  1.0000
  S   S55       1.0  0.07286  0.35161  0.29935  1.0000
  Fe  Fe29      1.0  0.86841  0.43425  0.35563  1.0000
  S   S56       1.0  0.82068  0.39907  0.33655  1.0000
  Fe  Fe30      1.0  0.87551  0.40254  0.39701  1.0000
  S   S57       1.0  0.82786  0.36496  0.38018  1.0000
  S   S58       1.0  0.90364  0.40000  0.43328  1.0000
  Fe  Fe31      1.0  0.87530  0.38748  0.34590  1.0000
  S   S59       1.0  0.89262  0.37160  0.31369  1.0000
  Fe  Fe32      1.0  0.77782  0.37980  0.37184  1.0000
  S   S60       1.0  0.69156  0.35855  0.37746  1.0000
  S   S61       1.0  0.92689  0.42431  0.36280  1.0000
  S   S62       1.0  0.82180  0.41566  0.39082  1.0000
  C   C174      1.0  0.88383  0.40380  0.46216  1.0000
  C   C175      1.0  0.85855  0.41675  0.46546  1.0000
  H   H300      1.0  0.63594  0.36147  0.27874  1.0000
  H   H301      1.0  0.78450  0.37411  0.44145  1.0000
  H   H302      1.0  0.85008  0.42459  0.45011  1.0000
  H   H303      1.0  0.91458  0.38400  0.48009  1.0000
  C   C176      1.0  0.02235  0.35688  0.30333  1.0000
  C   C177      1.0  0.01942  0.36920  0.32312  1.0000
  C   C178      1.0  0.97970  0.37371  0.32671  1.0000
  C   C179      1.0  0.94274  0.36598  0.31043  1.0000
  C   C180      1.0  0.94583  0.35376  0.29060  1.0000
  C   C181      1.0  0.98537  0.34918  0.28706  1.0000
  H   H304      1.0  0.04782  0.37516  0.33581  1.0000
  H   H305      1.0  0.97770  0.38312  0.34204  1.0000
  H   H306      1.0  0.91720  0.34756  0.27808  1.0000
  H   H307      1.0  0.98721  0.33966  0.27178  1.0000
  C   C182      1.0  0.26190  0.32885  0.25713  1.0000
  H   H308      1.0  0.28586  0.31732  0.28796  1.0000
  C   C183      1.0  0.05003  0.50073  0.27420  1.0000
  C   C184      1.0  0.67689  0.33249  0.33735  1.0000
  C   C185      1.0  0.65707  0.34208  0.35360  1.0000
  H   H309      1.0  0.54462  0.32324  0.32940  1.0000
  H   H310      1.0  0.21299  0.36459  0.26349  1.0000
  H   H311      1.0  0.95338  0.42675  0.29864  1.0000
  H   H312      1.0  0.71360  0.33491  0.33950  1.0000
  H   H313      1.0  0.95821  0.46672  0.29978  1.0000
  C   C186      1.0  0.70249  0.36192  0.26532  1.0000
  S   S63       1.0  0.06469  0.57863  0.30245  1.0000
  S   S64       1.0  0.86991  0.46780  0.33638  1.0000
  C   C187      1.0  0.01043  0.54858  0.31393  1.0000
  C   C188      1.0  0.01600  0.53089  0.32799  1.0000
  C   C189      1.0  0.97308  0.50603  0.33559  1.0000
  C   C190      1.0  0.92445  0.49913  0.32955  1.0000
  C   C191      1.0  0.91875  0.51726  0.31648  1.0000
  C   C192      1.0  0.96155  0.54178  0.30858  1.0000
  H   H314      1.0  0.05372  0.53613  0.33237  1.0000
  H   H315      1.0  0.97767  0.49217  0.34580  1.0000
  H   H316      1.0  0.88120  0.51204  0.31184  1.0000
  H   H317      1.0  0.95661  0.55530  0.29820  1.0000
  C   C193      1.0  0.21996  0.38135  0.27320  1.0000
  H   H318      1.0  0.71268  0.35638  0.28205  1.0000
  C   C194      1.0  0.84610  0.36823  0.25425  1.0000
  C   C195      1.0  0.99205  0.61882  0.30494  1.0000
  C   C196      1.0  0.75300  0.41996  0.27016  1.0000
  Fe  Fe33      1.0  0.07499  0.32946  0.26877  1.0000
  C   C197      1.0  0.96321  0.46157  0.28158  1.0000
  N   N13       1.0  0.72294  0.33496  0.45414  1.0000
  H   H319      1.0  0.65260  0.32275  0.42067  1.0000
  H   H320      1.0  0.25092  0.42256  0.26188  1.0000
  H   H321      1.0  0.35622  0.40834  0.30771  1.0000
  C   C198      1.0  0.66784  0.41100  0.28337  1.0000
  H   H322      1.0  0.84936  0.38708  0.25163  1.0000
  H   H323      1.0  0.30093  0.38007  0.26447  1.0000
  H   H324      1.0  0.97639  0.43244  0.26809  1.0000
  C   C199      1.0  0.04299  0.63223  0.31685  1.0000
  S   S65       1.0  0.08931  0.63496  0.25379  1.0000
  S   S66       1.0  0.53286  0.34741  0.26526  1.0000
  H   H325      1.0  0.23619  0.34694  0.29635  1.0000
  H   H326      1.0  0.19042  0.36292  0.33644  1.0000
  C   C200      1.0  0.30755  0.39413  0.27771  1.0000
  H   H327      1.0  0.66298  0.31065  0.30677  1.0000
  C   C201      1.0  0.23930  0.36226  0.30718  1.0000
  H   H328      1.0  0.76396  0.43962  0.27476  1.0000
  H   H329      1.0  0.38637  0.40566  0.28105  1.0000
  H   H330      1.0  0.67638  0.34360  0.25733  1.0000
  H   H331      1.0  0.66437  0.37719  0.31610  1.0000
  H   H332      1.0  0.73682  0.37356  0.25242  1.0000
  H   H333      1.0  0.20252  0.39977  0.24464  1.0000
  C   C202      1.0  0.99927  0.47966  0.23959  1.0000
  H   H334      1.0  0.92415  0.45024  0.27549  1.0000
  H   H335      1.0  0.22408  0.41709  0.33146  1.0000
  Fe  Fe34      1.0  0.44901  0.32722  0.25944  1.0000
  H   H336      1.0  0.26723  0.36542  0.32027  1.0000
  H   H337      1.0  0.06788  0.62611  0.30894  1.0000
  H   H338      1.0  0.65148  0.33125  0.46640  1.0000
  C   C203      1.0  0.70347  0.39221  0.30805  1.0000
  C   C204      1.0  0.97989  0.44221  0.28453  1.0000
  C   C205      1.0  0.89492  0.39399  0.48241  1.0000
  C   C206      1.0  0.67436  0.37593  0.26938  1.0000
  N   N14       1.0  0.94419  0.61204  0.32010  1.0000
  C   C207      1.0  0.90607  0.61135  0.30402  1.0000
  C   C208      1.0  0.95363  0.63149  0.33773  1.0000
  C   C209      1.0  0.91968  0.58559  0.33333  1.0000
  H   H339      1.0  0.03946  0.62754  0.33626  1.0000
  C   C210      1.0  0.88546  0.59035  0.28634  1.0000
  H   H340      1.0  0.06979  0.49022  0.27331  1.0000
  C   C211      1.0  0.95213  0.58189  0.35084  1.0000
  N   N15       1.0  0.99771  0.48580  0.26511  1.0000
  H   H341      1.0  0.87220  0.60880  0.31469  1.0000
  H   H342      1.0  0.70792  0.37706  0.45907  1.0000
  H   H343      1.0  0.68601  0.42902  0.29265  1.0000
  H   H344      1.0  0.78849  0.39783  0.28181  1.0000
  H   H345      1.0  0.88289  0.58007  0.34341  1.0000
  H   H346      1.0  0.90972  0.57056  0.32075  1.0000
  H   H347      1.0  0.86526  0.59463  0.27301  1.0000
  H   H348      1.0  0.98064  0.63309  0.35060  1.0000
  H   H349      1.0  0.59341  0.34576  0.36340  1.0000
  H   H350      1.0  0.32488  0.41310  0.26699  1.0000
  H   H351      1.0  0.18166  0.37534  0.28142  1.0000
  H   H352      1.0  0.92893  0.56186  0.35968  1.0000
  H   H353      1.0  0.96347  0.59511  0.36517  1.0000
  H   H354      1.0  0.98620  0.58364  0.34138  1.0000
  C   C212      1.0  0.29723  0.32671  0.27000  1.0000
  C   C213      1.0  0.97579  0.50250  0.26646  1.0000
  C   C214      1.0  0.74392  0.35986  0.43846  1.0000
  C   C215      1.0  0.71480  0.37373  0.44063  1.0000
  C   C216      1.0  0.66534  0.31962  0.45865  1.0000
  H   H355      1.0  0.74535  0.35667  0.41925  1.0000
  H   H356      1.0  0.63027  0.39723  0.29385  1.0000
  H   H357      1.0  0.72478  0.31523  0.42354  1.0000
  H   H358      1.0  0.97926  0.50960  0.28430  1.0000
  H   H359      1.0  0.67778  0.36312  0.43263  1.0000
  H   H360      1.0  0.73782  0.39302  0.43039  1.0000
  H   H361      1.0  0.82587  0.42419  0.25981  1.0000
  C   C217      1.0  0.79517  0.32858  0.43897  1.0000
  S   S67       1.0  0.39115  0.33466  0.27694  1.0000
  C   C218      1.0  0.23621  0.40390  0.25414  1.0000
  H   H362      1.0  0.98724  0.60130  0.29753  1.0000
  H   H363      1.0  0.22028  0.42519  0.30147  1.0000
  H   H364      1.0  0.78871  0.35215  0.47493  1.0000
  H   H365      1.0  0.85718  0.57087  0.29537  1.0000
  C   C219      1.0  0.26719  0.40855  0.30603  1.0000
  S   S68       1.0  0.12268  0.31198  0.27038  1.0000
  H   H366      1.0  0.72534  0.38283  0.30940  1.0000
  C   C220      1.0  0.73748  0.31819  0.44188  1.0000
  H   H367      1.0  0.82051  0.43080  0.28958  1.0000
  C   C221      1.0  0.34978  0.39637  0.29263  1.0000
  C   C222      1.0  0.65595  0.41829  0.25910  1.0000
  H   H368      1.0  0.89310  0.47608  0.27667  1.0000
  N   N16       1.0  0.70105  0.39991  0.28261  1.0000
  H   H369      1.0  0.28458  0.40780  0.32258  1.0000
  H   H370      1.0  0.91667  0.59012  0.27629  1.0000
  H   H371      1.0  0.82069  0.35744  0.27081  1.0000
  C   C223      1.0  0.34706  0.33645  0.25972  1.0000
  Fe  Fe35      1.0  0.05933  0.59343  0.26588  1.0000
  C   C224      1.0  0.18784  0.35048  0.32231  1.0000
  H   H372      1.0  0.22350  0.32094  0.26508  1.0000
  H   H373      1.0  0.04644  0.50320  0.29352  1.0000
  C   C225      1.0  0.60905  0.33849  0.35081  1.0000
  H   H374      1.0  0.75146  0.42017  0.25047  1.0000
  C   C226      1.0  0.91922  0.48976  0.26143  1.0000
  C   C227      1.0  0.08736  0.52797  0.26144  1.0000
  C   C228      1.0  0.74612  0.34023  0.47770  1.0000
  H   H375      1.0  0.01869  0.45089  0.29059  1.0000
  H   H376      1.0  0.80926  0.32656  0.45611  1.0000
  S   S69       1.0  0.98344  0.57822  0.25166  1.0000
  C   C229      1.0  0.60094  0.31584  0.31556  1.0000
  H   H377      1.0  0.62578  0.40087  0.25137  1.0000
  C   C230      1.0  0.22042  0.41029  0.31336  1.0000
  H   H378      1.0  0.29588  0.42751  0.29602  1.0000
  H   H379      1.0  0.18256  0.39201  0.31416  1.0000
  H   H380      1.0  0.99807  0.52024  0.25386  1.0000
  H   H381      1.0  0.91060  0.50508  0.25937  1.0000
  C   C231      1.0  0.79855  0.41754  0.27601  1.0000
  H   H382      1.0  0.15585  0.34601  0.31150  1.0000
  H   H383      1.0  0.76221  0.43159  0.31718  1.0000
  C   C232      1.0  0.64831  0.31887  0.31877  1.0000
  C   C233      1.0  0.58155  0.32592  0.33150  1.0000
  H   H384      1.0  0.91758  0.62504  0.34903  1.0000
  C   C234      1.0  0.72555  0.41415  0.32480  1.0000
  H   H385      1.0  0.73288  0.40718  0.34172  1.0000
  H   H386      1.0  0.69766  0.41951  0.32980  1.0000
  H   H387      1.0  0.81819  0.34902  0.43153  1.0000
  H   H388      1.0  0.69020  0.42929  0.24610  1.0000
  H   H389      1.0  0.64018  0.43057  0.26179  1.0000
  H   H390      1.0  0.99841  0.63208  0.28918  1.0000
  H   H391      1.0  0.66719  0.38037  0.25125  1.0000
  H   H392      1.0  0.34112  0.37697  0.29920  1.0000
  H   H393      1.0  0.12691  0.53511  0.26599  1.0000
  H   H394      1.0  0.85494  0.31962  0.24803  1.0000
  H   H395      1.0  0.80209  0.31720  0.42641  1.0000
  H   H396      1.0  0.04774  0.46319  0.24593  1.0000
  H   H397      1.0  0.07799  0.54195  0.26766  1.0000
  H   H398      1.0  0.91103  0.48009  0.24470  1.0000
  C   C235      1.0  0.63593  0.30852  0.43656  1.0000
  H   H399      1.0  0.26530  0.40575  0.24047  1.0000
  H   H400      1.0  0.08745  0.52819  0.24178  1.0000
  H   H401      1.0  0.91451  0.32398  0.23749  1.0000
  S   S70       1.0  0.96868  0.63710  0.23778  1.0000
  H   H402      1.0  0.79860  0.33128  0.24003  1.0000
  Fe  Fe36      1.0  0.01584  0.61909  0.23678  1.0000
  Fe  Fe37      1.0  0.85020  0.40533  0.57564  1.0000
  S   S71       1.0  0.85643  0.43262  0.60272  1.0000
  S   S72       1.0  0.83939  0.41575  0.53770  1.0000
  Fe  Fe38      1.0  0.85754  0.37058  0.61339  1.0000
  S   S73       1.0  0.86470  0.39509  0.64287  1.0000
  S   S74       1.0  0.86610  0.33717  0.62315  1.0000
  Fe  Fe39      1.0  0.80204  0.39711  0.62712  1.0000
  S   S75       1.0  0.73982  0.39117  0.65470  1.0000
  Fe  Fe40      1.0  0.91849  0.42858  0.61662  1.0000
  S   S76       1.0  0.98868  0.46429  0.62806  1.0000
  S   S77       1.0  0.79036  0.36976  0.59930  1.0000
  S   S78       1.0  0.91685  0.40410  0.58787  1.0000
  Fe  Fe41      1.0  0.20423  0.47429  0.70837  1.0000
  S   S79       1.0  0.13140  0.44591  0.69173  1.0000
  H   H403      1.0  0.75417  0.47228  0.62801  1.0000
  H   H404      1.0  0.43238  0.43227  0.69288  1.0000
  S   S80       1.0  0.70094  0.48180  0.66463  1.0000
  C   C236      1.0  0.69429  0.32037  0.65277  1.0000
  H   H405      1.0  0.01982  0.41761  0.71702  1.0000
  H   H406      1.0  0.11342  0.54053  0.54228  1.0000
  H   H407      1.0  0.91805  0.47392  0.67635  1.0000
  C   C237      1.0  0.73395  0.32900  0.67121  1.0000
  C   C238      1.0  0.90207  0.49961  0.71113  1.0000
  Fe  Fe42      1.0  0.30597  0.47976  0.71994  1.0000
  N   N17       1.0  0.84611  0.48001  0.70895  1.0000
  C   C239      1.0  0.72866  0.41626  0.65722  1.0000
  C   C240      1.0  0.74842  0.43679  0.63949  1.0000
  C   C241      1.0  0.73936  0.45665  0.64199  1.0000
  C   C242      1.0  0.71173  0.45655  0.66250  1.0000
  C   C243      1.0  0.69231  0.43616  0.68040  1.0000
  C   C244      1.0  0.70013  0.41587  0.67759  1.0000
  H   H408      1.0  0.77004  0.43718  0.62366  1.0000
  H   H409      1.0  0.67073  0.43585  0.69621  1.0000
  H   H410      1.0  0.68466  0.40001  0.69136  1.0000
  C   C245      1.0  0.46119  0.48355  0.70977  1.0000
  C   C246      1.0  0.02839  0.45931  0.64586  1.0000
  C   C247      1.0  0.07136  0.48054  0.65439  1.0000
  C   C248      1.0  0.10362  0.47692  0.66848  1.0000
  C   C249      1.0  0.09307  0.45200  0.67398  1.0000
  C   C250      1.0  0.04999  0.43082  0.66550  1.0000
  C   C251      1.0  0.01777  0.43443  0.65153  1.0000
  H   H411      1.0  0.07984  0.49986  0.65006  1.0000
  H   H412      1.0  0.13669  0.49334  0.67493  1.0000
  H   H413      1.0  0.04169  0.41150  0.66961  1.0000
  H   H414      1.0  0.98500  0.41793  0.64497  1.0000
  C   C252      1.0  0.85628  0.41030  0.50893  1.0000
  C   C253      1.0  0.88092  0.39702  0.50566  1.0000
  C   C254      1.0  0.39701  0.58960  0.72602  1.0000
  H   H415      1.0  0.88969  0.38933  0.52100  1.0000
  S   S81       1.0  0.28569  0.49944  0.69219  1.0000
  Fe  Fe43      1.0  0.69110  0.49502  0.70011  1.0000
  H   H416      1.0  0.92201  0.51113  0.69389  1.0000
  S   S82       1.0  0.70111  0.57825  0.70777  1.0000
  S   S83       1.0  0.75618  0.53098  0.71297  1.0000
  H   H417      1.0  0.98961  0.51109  0.55206  1.0000
  H   H418      1.0  0.87815  0.52705  0.67927  1.0000
  S   S84       1.0  0.63789  0.50872  0.70522  1.0000
  H   H419      1.0  0.46990  0.49302  0.69193  1.0000
  H   H420      1.0  0.75831  0.42863  0.72095  1.0000
  H   H421      1.0  0.58272  0.42157  0.71929  1.0000
  C   C255      1.0  0.84004  0.46110  0.69112  1.0000
  H   H422      1.0  0.42589  0.62306  0.70095  1.0000
  H   H423      1.0  0.58449  0.47226  0.63414  1.0000
  C   C256      1.0  0.79741  0.32493  0.70700  1.0000
  H   H424      1.0  0.53685  0.49142  0.71203  1.0000
  H   H425      1.0  0.13051  0.51751  0.55003  1.0000
  H   H426      1.0  0.71507  0.32773  0.63474  1.0000
  H   H427      1.0  0.03723  0.47534  0.49076  1.0000
  H   H428      1.0  0.06538  0.45750  0.72666  1.0000
  H   H429      1.0  0.08454  0.50106  0.51729  1.0000
  H   H430      1.0  0.07219  0.46337  0.53511  1.0000
  H   H431      1.0  0.67022  0.32856  0.65472  1.0000
  S   S85       1.0  0.36411  0.47134  0.70498  1.0000
  C   C257      1.0  0.52390  0.45483  0.66400  1.0000
  C   C258      1.0  0.54869  0.39938  0.66443  1.0000
  H   H432      1.0  0.83852  0.44405  0.69997  1.0000
  H   H433      1.0  0.81447  0.51896  0.67648  1.0000
  H   H434      1.0  0.92181  0.48951  0.71586  1.0000
  C   C259      1.0  0.52325  0.55303  0.72554  1.0000
  H   H435      1.0  0.76059  0.35038  0.66781  1.0000
  H   H436      1.0  0.94364  0.49118  0.57643  1.0000
  N   N18       1.0  0.01845  0.47514  0.54199  1.0000
  C   C260      1.0  0.98244  0.46220  0.52303  1.0000
  C   C261      1.0  0.98708  0.47536  0.56318  1.0000
  C   C262      1.0  0.04039  0.45908  0.54851  1.0000
  C   C263      1.0  0.06016  0.50202  0.53180  1.0000
  H   H437      1.0  0.48633  0.57167  0.70891  1.0000
  C   C264      1.0  0.95865  0.37802  0.72281  1.0000
  C   C265      1.0  0.06059  0.46143  0.57328  1.0000
  C   C266      1.0  0.09796  0.52014  0.54897  1.0000
  H   H438      1.0  0.96663  0.47369  0.51662  1.0000
  H   H439      1.0  0.74865  0.35536  0.51183  1.0000
  H   H440      1.0  0.00970  0.48301  0.57863  1.0000
  H   H441      1.0  0.95599  0.45528  0.56968  1.0000
  H   H442      1.0  0.01090  0.43804  0.54813  1.0000
  H   H443      1.0  0.80294  0.45298  0.68327  1.0000
  C   C267      1.0  0.71007  0.60366  0.72447  1.0000
  H   H444      1.0  0.04420  0.51225  0.52260  1.0000
  C   C268      1.0  0.98921  0.40533  0.73159  1.0000
  C   C269      1.0  0.88205  0.47097  0.67016  1.0000
  H   H445      1.0  0.63509  0.33538  0.73135  1.0000
  C   C270      1.0  0.43888  0.41739  0.70047  1.0000
  C   C271      1.0  0.81788  0.49283  0.70240  1.0000
  H   H446      1.0  0.08700  0.48159  0.57733  1.0000
  H   H447      1.0  0.08174  0.45154  0.57428  1.0000
  H   H448      1.0  0.02843  0.45137  0.58750  1.0000
  H   H449      1.0  0.57525  0.40338  0.67837  1.0000
  H   H450      1.0  0.77699  0.47817  0.70055  1.0000
  C   C272      1.0  0.47896  0.55215  0.71342  1.0000
  H   H451      1.0  0.83390  0.49959  0.66343  1.0000
  Fe  Fe44      1.0  0.70028  0.54270  0.72164  1.0000
  H   H452      1.0  0.73584  0.32173  0.48772  1.0000
  H   H453      1.0  0.23945  0.56291  0.72872  1.0000
  C   C273      1.0  0.84532  0.42015  0.48867  1.0000
  C   C274      1.0  0.83808  0.51058  0.67902  1.0000
  S   S86       1.0  0.21316  0.50303  0.73401  1.0000
  H   H454      1.0  0.70845  0.35529  0.69849  1.0000
  C   C275      1.0  0.96159  0.49074  0.55905  1.0000
  H   H455      1.0  0.78126  0.35480  0.70901  1.0000
  H   H456      1.0  0.74034  0.44989  0.73270  1.0000
  C   C276      1.0  0.68399  0.33397  0.70324  1.0000
  H   H457      1.0  0.47459  0.54312  0.69639  1.0000
  H   H458      1.0  0.66507  0.61183  0.70238  1.0000
  C   C277      1.0  0.68837  0.61758  0.71725  1.0000
  H   H459      1.0  0.52638  0.41935  0.64062  1.0000
  H   H460      1.0  0.58752  0.43885  0.65162  1.0000
  C   C278      1.0  0.49926  0.48252  0.72112  1.0000
  C   C279      1.0  0.73178  0.35460  0.49475  1.0000
  H   H461      1.0  0.60769  0.48281  0.66269  1.0000
  S   S87       1.0  0.66510  0.47138  0.73537  1.0000
  S   S88       1.0  0.34503  0.56938  0.70968  1.0000
  H   H462      1.0  0.44652  0.40572  0.66589  1.0000
  H   H463      1.0  0.94396  0.37930  0.70558  1.0000
  H   H464      1.0  0.54722  0.45357  0.70645  1.0000
  H   H465      1.0  0.59609  0.45210  0.69080  1.0000
  H   H466      1.0  0.86905  0.45602  0.65725  1.0000
  C   C280      1.0  0.57562  0.47721  0.65161  1.0000
  C   C281      1.0  0.46796  0.41087  0.68208  1.0000
  H   H467      1.0  0.82025  0.33357  0.68951  1.0000
  H   H468      1.0  0.93016  0.48119  0.54725  1.0000
  H   H469      1.0  0.89059  0.48900  0.66025  1.0000
  H   H470      1.0  0.82642  0.43052  0.49096  1.0000
  H   H471      1.0  0.08029  0.51806  0.56711  1.0000
  C   C282      1.0  0.54684  0.42328  0.65708  1.0000
  C   C283      1.0  0.75906  0.33324  0.71168  1.0000
  H   H472      1.0  0.94880  0.44311  0.53056  1.0000
  H   H473      1.0  0.51043  0.38186  0.66993  1.0000
  H   H474      1.0  0.01726  0.44355  0.50451  1.0000
  C   C284      1.0  0.46829  0.63299  0.73202  1.0000
  H   H475      1.0  0.51158  0.46358  0.67737  1.0000
  H   H476      1.0  0.56470  0.39482  0.64878  1.0000
  H   H477      1.0  0.46287  0.39250  0.68915  1.0000
  H   H478      1.0  0.81709  0.50424  0.71693  1.0000
  N   N19       1.0  0.52346  0.43193  0.67547  1.0000
  C   C285      1.0  0.55442  0.44035  0.69673  1.0000
  H   H479      1.0  0.57352  0.49453  0.64804  1.0000
  C   C286      1.0  0.43031  0.61584  0.71792  1.0000
  H   H480      1.0  0.89616  0.53066  0.72627  1.0000
  H   H481      1.0  0.49576  0.44866  0.65035  1.0000
  C   C287      1.0  0.76589  0.44255  0.73436  1.0000
  Fe  Fe45      1.0  0.29694  0.52618  0.72032  1.0000
  H   H482      1.0  0.95616  0.53370  0.72818  1.0000
  C   C288      1.0  0.91413  0.51948  0.72955  1.0000
  H   H483      1.0  0.44175  0.53992  0.72436  1.0000
  C   C289      1.0  0.69658  0.63887  0.72909  1.0000
  H   H484      1.0  0.52886  0.42061  0.73293  1.0000
  H   H485      1.0  0.55855  0.56404  0.71290  1.0000
  H   H486      1.0  0.96331  0.41269  0.73224  1.0000
  N   N20       1.0  0.71349  0.32164  0.69708  1.0000
  H   H487      1.0  0.98315  0.37029  0.71921  1.0000
  C   C290      1.0  0.82272  0.46497  0.73301  1.0000
  H   H488      1.0  0.58334  0.60203  0.73022  1.0000
  H   H489      1.0  0.65098  0.32756  0.69259  1.0000
  H   H490      1.0  0.82507  0.33216  0.72078  1.0000
  H   H491      1.0  0.74639  0.32810  0.73104  1.0000
  S   S89       1.0  0.22374  0.45225  0.73388  1.0000
  H   H492      1.0  0.45860  0.42377  0.71693  1.0000
  H   H493      1.0  0.75682  0.32067  0.66639  1.0000
  C   C291      1.0  0.54540  0.41886  0.71572  1.0000
  C   C292      1.0  0.66331  0.32960  0.72963  1.0000
  C   C293      1.0  0.00517  0.45723  0.50049  1.0000
  H   H494      1.0  0.51418  0.53298  0.72668  1.0000
  C   C294      1.0  0.41186  0.47227  0.72123  1.0000
  H   H495      1.0  0.40038  0.39980  0.70583  1.0000
  H   H496      1.0  0.52093  0.39881  0.71111  1.0000
  H   H497      1.0  0.68998  0.34484  0.49920  1.0000
  H   H498      1.0  0.92488  0.36411  0.73529  1.0000
  H   H499      1.0  0.74903  0.37500  0.48785  1.0000
  H   H500      1.0  0.28125  0.59492  0.73611  1.0000
  C   C295      1.0  0.81199  0.30822  0.63645  1.0000
  H   H501      1.0  0.07879  0.41191  0.73556  1.0000
  H   H502      1.0  0.97500  0.44811  0.48797  1.0000
  S   S90       1.0  0.00935  0.47293  0.83115  1.0000
  Fe  Fe46      1.0  0.23597  0.48201  0.75874  1.0000
  S   S91       1.0  0.20035  0.46746  0.79671  1.0000
  C   C296      1.0  0.06026  0.46999  0.82090  1.0000
  C   C297      1.0  0.09719  0.48848  0.80332  1.0000
  C   C298      1.0  0.13936  0.48731  0.79532  1.0000
  C   C299      1.0  0.14592  0.46821  0.80543  1.0000
  C   C300      1.0  0.10913  0.44978  0.82316  1.0000
  C   C301      1.0  0.06574  0.45030  0.83050  1.0000
  H   H503      1.0  0.09295  0.50366  0.79576  1.0000
  H   H504      1.0  0.11399  0.43492  0.83104  1.0000
  H   H505      1.0  0.03733  0.43590  0.84402  1.0000
  H   H506      1.0  0.16722  0.50142  0.78161  1.0000
  H   H507      1.0  0.33592  0.62280  0.81108  1.0000
  H   H508      1.0  0.42943  0.44789  0.77280  1.0000
  C   C302      1.0  0.05216  0.40109  0.75184  1.0000
  C   C303      1.0  0.43983  0.59773  0.76239  1.0000
  H   H509      1.0  0.44258  0.59078  0.77988  1.0000
  H   H510      1.0  0.38599  0.61685  0.80325  1.0000
  H   H511      1.0  0.23968  0.60615  0.77329  1.0000
  C   C304      1.0  0.33030  0.60633  0.77654  1.0000
  H   H512      1.0  0.90313  0.51038  0.74814  1.0000
  C   C305      1.0  0.30672  0.56643  0.79986  1.0000
  H   H513      1.0  0.49524  0.55908  0.78426  1.0000
  C   C306      1.0  0.24963  0.57543  0.74369  1.0000
  C   C307      1.0  0.40074  0.45984  0.74422  1.0000
  C   C308      1.0  0.66239  0.34480  0.81614  1.0000
  H   H514      1.0  0.08917  0.46320  0.87719  1.0000
  C   C309      1.0  0.40312  0.58047  0.74796  1.0000
  H   H515      1.0  0.18977  0.59084  0.79676  1.0000
  H   H516      1.0  0.02957  0.48654  0.96645  1.0000
  H   H517      1.0  0.21476  0.57519  0.74942  1.0000
  H   H518      1.0  0.04774  0.43742  0.77955  1.0000
  H   H519      1.0  0.47170  0.51611  0.78660  1.0000
  C   C310      1.0  0.47214  0.62407  0.75458  1.0000
  H   H520      1.0  0.96985  0.49202  0.92676  1.0000
  C   C311      1.0  0.70896  0.35842  0.79720  1.0000
  H   H521      1.0  0.53847  0.51972  0.76291  1.0000
  Fe  Fe47      1.0  0.61668  0.48820  0.74164  1.0000
  H   H522      1.0  0.57554  0.56508  0.77932  1.0000
  C   C312      1.0  0.81436  0.34002  0.80782  1.0000
  C   C313      1.0  0.57552  0.56246  0.75992  1.0000
  C   C314      1.0  0.45661  0.52168  0.77165  1.0000
  H   H523      1.0  0.23213  0.53243  0.81543  1.0000
  C   C315      1.0  0.03311  0.43459  0.76177  1.0000
  H   H524      1.0  0.85321  0.43801  0.98206  1.0000
  H   H525      1.0  0.31912  0.57564  0.81679  1.0000
  C   C316      1.0  0.36106  0.62305  0.79627  1.0000
  H   H526      1.0  0.20777  0.55956  0.80106  1.0000
  H   H527      1.0  0.93239  0.38687  0.77027  1.0000
  H   H528      1.0  0.75738  0.60072  0.74930  1.0000
  H   H529      1.0  0.01216  0.39649  0.80556  1.0000
  H   H530      1.0  0.13742  0.52815  0.94177  1.0000
  H   H531      1.0  0.97360  0.41033  0.80392  1.0000
  C   C317      1.0  0.97595  0.39347  0.79995  1.0000
  C   C318      1.0  0.96875  0.38813  0.77352  1.0000
  S   S92       1.0  0.53376  0.46539  0.75726  1.0000
  H   H532      1.0  0.09411  0.42163  0.78240  1.0000
  C   C319      1.0  0.99695  0.46893  0.96008  1.0000
  C   C320      1.0  0.70462  0.33467  0.84636  1.0000
  H   H533      1.0  0.64376  0.30908  0.73684  1.0000
  H   H534      1.0  0.25111  0.61625  0.80309  1.0000
  H   H535      1.0  0.60399  0.53793  0.76846  1.0000
  H   H536      1.0  0.69451  0.34193  0.74075  1.0000
  H   H537      1.0  0.54282  0.60197  0.78154  1.0000
  C   C321      1.0  0.81882  0.32597  0.82671  1.0000
  H   H538      1.0  0.11091  0.49487  0.94091  1.0000
  H   H539      1.0  0.01857  0.52516  0.89233  1.0000
  H   H540      1.0  0.12260  0.40873  0.76567  1.0000
  C   C322      1.0  0.24402  0.57900  0.79997  1.0000
  C   C323      1.0  0.57265  0.60870  0.76645  1.0000
  H   H541      1.0  0.62732  0.33750  0.80652  1.0000
  H   H542      1.0  0.58504  0.62893  0.76085  1.0000
  N   N21       1.0  0.28602  0.57931  0.78493  1.0000
  C   C324      1.0  0.26534  0.56392  0.76373  1.0000
  H   H543      1.0  0.71644  0.35449  0.85076  1.0000
  H   H544      1.0  0.94422  0.37652  0.81134  1.0000
  H   H545      1.0  0.60690  0.60962  0.77257  1.0000
  H   H546      1.0  0.00226  0.43868  0.76336  1.0000
  C   C325      1.0  0.57561  0.53769  0.75714  1.0000
  C   C326      1.0  0.23141  0.59936  0.79241  1.0000
  C   C327      1.0  0.89394  0.39927  0.96516  1.0000
  H   H547      1.0  0.25435  0.58236  0.81866  1.0000
  H   H548      1.0  0.35786  0.60559  0.76381  1.0000
  Fe  Fe48      1.0  0.72770  0.50787  0.74888  1.0000
  H   H549      1.0  0.66547  0.36053  0.82634  1.0000
  C   C328      1.0  0.77851  0.48170  0.78732  1.0000
  H   H550      1.0  0.04769  0.44316  0.90266  1.0000
  H   H551      1.0  0.70516  0.34580  0.78306  1.0000
  Fe  Fe49      1.0  0.86929  0.41505  0.89682  1.0000
  H   H552      1.0  0.89984  0.39131  0.94956  1.0000
  H   H553      1.0  0.68639  0.41909  0.80633  1.0000
  H   H554      1.0  0.83180  0.36059  0.80803  1.0000
  S   S93       1.0  0.78959  0.50898  0.76943  1.0000
  S   S94       1.0  0.92887  0.40968  0.87856  1.0000
  H   H555      1.0  0.14662  0.51648  0.91446  1.0000
  C   C329      1.0  0.81272  0.46165  0.81197  1.0000
  H   H556      1.0  0.03982  0.45845  0.93836  1.0000
  H   H557      1.0  0.09089  0.47516  0.75168  1.0000
  H   H558      1.0  0.28665  0.53066  0.82024  1.0000
  H   H559      1.0  0.36248  0.45068  0.75304  1.0000
  N   N22       1.0  0.02798  0.48419  0.91547  1.0000
  H   H560      1.0  0.71123  0.37559  0.78834  1.0000
  C   C330      1.0  0.48589  0.55131  0.76658  1.0000
  C   C331      1.0  0.76466  0.43848  0.81504  1.0000
  S   S95       1.0  0.67702  0.52267  0.75872  1.0000
  C   C332      1.0  0.07044  0.51029  0.92170  1.0000
  H   H561      1.0  0.99987  0.49971  0.87253  1.0000
  Fe  Fe50      1.0  0.82133  0.41376  0.84965  1.0000
  H   H562      1.0  0.45816  0.55629  0.76101  1.0000
  H   H563      1.0  0.97670  0.44470  0.93084  1.0000
  C   C333      1.0  0.01066  0.46319  0.93548  1.0000
  H   H564      1.0  0.45689  0.51172  0.75599  1.0000
  N   N23       1.0  0.53345  0.56410  0.74939  1.0000
  C   C334      1.0  0.78596  0.32729  0.78890  1.0000
  S   S96       1.0  0.86152  0.42413  0.93517  1.0000
  S   S97       1.0  0.80436  0.38337  0.87898  1.0000
  H   H565      1.0  0.29388  0.56031  0.75537  1.0000
  H   H566      1.0  0.31830  0.61760  0.76616  1.0000
  H   H567      1.0  0.78148  0.33823  0.77475  1.0000
  C   C335      1.0  0.11884  0.51223  0.92994  1.0000
  C   C336      1.0  0.87497  0.41531  0.96301  1.0000
  C   C337      1.0  0.04369  0.47702  0.89281  1.0000
  Fe  Fe51      1.0  0.86448  0.38039  0.85832  1.0000
  Fe  Fe52      1.0  0.93653  0.43828  0.84953  1.0000
  S   S98       1.0  0.87734  0.40872  0.82801  1.0000
  H   H568      1.0  0.98690  0.45258  0.97336  1.0000
  C   C338      1.0  0.98236  0.48595  0.91100  1.0000
  C   C339      1.0  0.98980  0.50474  0.88965  1.0000
  H   H569      1.0  0.37779  0.56039  0.75441  1.0000
  C   C340      1.0  0.73058  0.45843  0.79014  1.0000
  S   S99       1.0  0.75458  0.41115  0.83242  1.0000
  H   H570      1.0  0.52118  0.59482  0.73915  1.0000
  S   S100      1.0  0.88137  0.44582  0.86880  1.0000
  C   C341      1.0  0.81953  0.48316  0.79821  1.0000
  H   H571      1.0  0.84453  0.46307  0.82039  1.0000
  H   H572      1.0  0.85674  0.50107  0.79607  1.0000
  H   H573      1.0  0.00942  0.46353  0.88365  1.0000
  C   C342      1.0  0.72370  0.43692  0.80399  1.0000
  S   S101      1.0  0.85031  0.34110  0.85181  1.0000
  C   C343      1.0  0.55209  0.59239  0.74501  1.0000
  S   S102      1.0  0.32062  0.50757  0.74737  1.0000
  H   H574      1.0  0.06707  0.49432  0.87975  1.0000
  H   H575      1.0  0.61381  0.57850  0.75176  1.0000
  H   H576      1.0  0.94889  0.46658  0.90797  1.0000
  H   H577      1.0  0.05639  0.51815  0.93530  1.0000
  H   H578      1.0  0.73759  0.33726  0.83503  1.0000
  H   H579      1.0  0.69872  0.45708  0.78186  1.0000
  H   H580      1.0  0.23076  0.54449  0.76933  1.0000
  H   H581      1.0  0.34164  0.56891  0.79045  1.0000
  H   H582      1.0  0.10639  0.47366  0.90595  1.0000
  C   C344      1.0  0.08471  0.40471  0.77275  1.0000
  H   H583      1.0  0.74571  0.36572  0.80515  1.0000
  H   H584      1.0  0.75499  0.43163  0.75222  1.0000
  H   H585      1.0  0.08426  0.52485  0.90604  1.0000
  H   H586      1.0  0.95295  0.50334  0.88785  1.0000
  C   C345      1.0  0.07355  0.46361  0.89518  1.0000
  H   H587      1.0  0.82432  0.47778  0.74655  1.0000
  C   C346      1.0  0.86761  0.42547  0.98355  1.0000
  H   H588      1.0  0.77607  0.33979  0.98371  1.0000
  H   H589      1.0  0.96063  0.36829  0.77206  1.0000
  H   H590      1.0  0.96295  0.47042  0.96026  1.0000
  C   C347      1.0  0.26959  0.53718  0.80705  1.0000
  C   C348      1.0  0.75017  0.63327  0.75490  1.0000
  H   H591      1.0  0.26371  0.52573  0.79157  1.0000
  H   H592      1.0  0.06594  0.38705  0.78543  1.0000
  C   C349      1.0  0.43863  0.45818  0.75531  1.0000
  H   H593      1.0  0.73648  0.32028  0.87156  1.0000
  H   H594      1.0  0.69706  0.32946  0.88553  1.0000
  C   C350      1.0  0.48797  0.46933  0.74371  1.0000
  H   H595      1.0  0.41542  0.51388  0.77647  1.0000
  C   C351      1.0  0.74019  0.61123  0.74368  1.0000
  N   N24       1.0  0.65777  0.32342  0.83271  1.0000
  H   H596      1.0  0.59809  0.34438  0.85365  1.0000
  H   H597      1.0  0.84491  0.45678  0.73948  1.0000
  H   H598      1.0  0.64042  0.34294  0.87355  1.0000
  N   N25       1.0  0.01159  0.40735  0.75515  1.0000
  H   H599      1.0  0.57269  0.32018  0.87816  1.0000
  H   H600      1.0  0.77510  0.63963  0.76917  1.0000
  C   C352      1.0  0.60547  0.33123  0.86428  1.0000
  H   H601      1.0  0.03456  0.38054  0.74817  1.0000
  C   C353      1.0  0.70024  0.31964  0.87016  1.0000
  H   H602      1.0  0.68794  0.31112  0.80462  1.0000
  C   C354      1.0  0.07733  0.45623  0.74457  1.0000
  H   H603      1.0  0.11041  0.45397  0.74306  1.0000
  C   C355      1.0  0.60871  0.31215  0.84864  1.0000
  H   H604      1.0  0.58802  0.53703  0.73850  1.0000
  Fe  Fe53      1.0  0.82061  0.88014  0.12619  1.0000
  C   C356      1.0  0.24131  0.67944  0.21495  1.0000
  H   H605      1.0  0.72670  0.88734  0.14002  1.0000
  Fe  Fe54      1.0  0.51351  0.82663  0.21959  1.0000
  S   S103      1.0  0.56232  0.85369  0.18719  1.0000
  S   S104      1.0  0.42707  0.80440  0.22542  1.0000
  S   S105      1.0  0.74606  0.84579  0.14401  1.0000
  S   S106      1.0  0.99630  0.90543  0.15112  1.0000
  H   H606      1.0  0.82609  0.90373  0.02824  1.0000
  C   C357      1.0  0.02966  0.88012  0.17806  1.0000
  C   C358      1.0  0.02606  0.85836  0.18961  1.0000
  H   H607      1.0  0.06251  0.89926  0.17989  1.0000
  H   H608      1.0  0.05577  0.86083  0.20039  1.0000
  C   C359      1.0  0.69549  0.84855  0.15564  1.0000
  C   C360      1.0  0.69536  0.87109  0.15113  1.0000
  C   C361      1.0  0.65409  0.87241  0.16069  1.0000
  C   C362      1.0  0.61329  0.85142  0.17518  1.0000
  C   C363      1.0  0.61383  0.82905  0.17993  1.0000
  C   C364      1.0  0.65453  0.82756  0.17001  1.0000
  H   H609      1.0  0.65390  0.88975  0.15688  1.0000
  H   H610      1.0  0.58239  0.81265  0.19080  1.0000
  H   H611      1.0  0.65428  0.81003  0.17346  1.0000
  C   C365      1.0  0.32523  0.71919  0.21572  1.0000
  C   C366      1.0  0.28341  0.70235  0.20325  1.0000
  H   H612      1.0  0.35807  0.73649  0.20649  1.0000
  H   H613      1.0  0.28395  0.70683  0.18442  1.0000
  C   C367      1.0  0.15462  0.83981  0.12861  1.0000
  C   C368      1.0  0.12086  0.83459  0.17140  1.0000
  H   H614      1.0  0.29940  0.82796  0.20087  1.0000
  S   S107      1.0  0.21537  0.83309  0.21522  1.0000
  H   H615      1.0  0.52077  0.93827  0.21049  1.0000
  C   C369      1.0  0.30058  0.83081  0.21964  1.0000
  S   S108      1.0  0.83293  0.91062  0.09796  1.0000
  H   H616      1.0  0.49124  0.89925  0.15982  1.0000
  C   C370      1.0  0.45509  0.85961  0.17434  1.0000
  H   H617      1.0  0.05540  0.86286  0.12767  1.0000
  H   H618      1.0  0.69769  0.86628  0.20329  1.0000
  C   C371      1.0  0.19787  0.83590  0.13506  1.0000
  H   H619      1.0  0.17220  0.86093  0.12537  1.0000
  H   H620      1.0  0.13721  0.82417  0.17988  1.0000
  H   H621      1.0  0.73335  0.89996  0.20473  1.0000
  C   C372      1.0  0.72934  0.88182  0.21227  1.0000
  H   H622      1.0  0.18291  0.87584  0.15895  1.0000
  C   C373      1.0  0.15741  0.86364  0.17479  1.0000
  H   H623      1.0  0.18344  0.86572  0.18854  1.0000
  H   H624      1.0  0.28558  0.78097  0.19502  1.0000
  H   H625      1.0  0.07873  0.79217  0.12817  1.0000
  C   C374      1.0  0.84990  0.90692  0.01212  1.0000
  H   H626      1.0  0.23163  0.84784  0.12184  1.0000
  H   H627      1.0  0.19682  0.70987  0.20408  1.0000
  H   H628      1.0  0.21064  0.84220  0.15287  1.0000
  C   C375      1.0  0.99077  0.87735  0.16442  1.0000
  C   C376      1.0  0.28520  0.76377  0.20232  1.0000
  H   H629      1.0  0.36729  0.82878  0.22295  1.0000
  H   H630      1.0  0.41678  0.85521  0.17029  1.0000
  C   C377      1.0  0.49322  0.88882  0.17604  1.0000
  C   C378      1.0  0.77903  0.88346  0.20380  1.0000
  H   H631      1.0  0.14348  0.83262  0.11077  1.0000
  N   N26       1.0  0.10804  0.82714  0.14642  1.0000
  C   C379      1.0  0.08893  0.86148  0.13084  1.0000
  H   H632      1.0  0.18658  0.81555  0.13423  1.0000
  H   H633      1.0  0.53187  0.89171  0.17418  1.0000
  H   H634      1.0  0.46944  0.85333  0.15941  1.0000
  H   H635      1.0  0.84815  0.94733  0.05339  1.0000
  H   H636      1.0  0.10921  0.79245  0.15410  1.0000
  H   H637      1.0  0.78325  0.88559  0.18402  1.0000
  C   C380      1.0  0.06945  0.83299  0.13832  1.0000
  H   H638      1.0  0.11378  0.86866  0.11381  1.0000
  S   S109      1.0  0.07218  0.78690  0.22654  1.0000
  H   H639      1.0  0.00462  0.96031  0.05619  1.0000
  Fe  Fe55      1.0  0.03254  0.80856  0.22859  1.0000
  H   H640      1.0  0.19342  0.75437  0.20252  1.0000
  C   C381      1.0  0.16412  0.70580  0.21638  1.0000
  H   H641      1.0  0.13934  0.71068  0.20718  1.0000
  H   H642      1.0  0.14069  0.68452  0.22081  1.0000
  S   S110      1.0  0.19026  0.65829  0.19874  1.0000
  H   H643      1.0  0.26118  0.74724  0.19205  1.0000
  C   C382      1.0  0.83181  0.90662  0.98958  1.0000
  H   H644      1.0  0.32501  0.76844  0.19925  1.0000
  H   H645      1.0  0.10851  0.87446  0.14478  1.0000
  H   H646      1.0  0.13561  0.87205  0.18125  1.0000
  C   C383      1.0  0.08394  0.79824  0.14665  1.0000
  H   H647      1.0  0.05116  0.82209  0.12276  1.0000
  H   H648      1.0  0.03769  0.82624  0.15252  1.0000
  H   H649      1.0  0.08530  0.82780  0.18314  1.0000
  H   H650      1.0  0.01911  0.76035  0.16082  1.0000
  C   C384      1.0  0.03134  0.78094  0.16115  1.0000
  H   H651      1.0  0.97494  0.97049  0.02005  1.0000
  H   H652      1.0  0.59068  0.93496  0.17260  1.0000
  H   H653      1.0  0.00102  0.78271  0.15354  1.0000
  H   H654      1.0  0.81338  0.90060  0.20977  1.0000
  H   H655      1.0  0.01583  0.97013  0.21576  1.0000
  H   H656      1.0  0.79395  0.90313  0.98863  1.0000
  H   H657      1.0  0.21850  0.78135  0.21945  1.0000
  C   C385      1.0  0.26328  0.83376  0.23139  1.0000
  H   H658      1.0  0.12583  0.76016  0.21317  1.0000
  C   C386      1.0  0.13846  0.75305  0.22804  1.0000
  C   C387      1.0  0.98366  0.83357  0.18751  1.0000
  H   H659      1.0  0.77803  0.86564  0.20928  1.0000
  H   H660      1.0  0.03303  0.78493  0.18008  1.0000
  C   C388      1.0  0.19322  0.75991  0.22094  1.0000
  C   C389      1.0  0.26893  0.75807  0.22934  1.0000
  H   H661      1.0  0.96605  0.91786  0.99348  1.0000
  C   C390      1.0  0.33902  0.83120  0.23214  1.0000
  S   S111      1.0  0.87477  0.90823  0.15034  1.0000
  H   H662      1.0  0.96704  0.94428  0.18470  1.0000
  C   C391      1.0  0.43260  0.89421  0.20003  1.0000
  H   H663      1.0  0.64816  0.89566  0.21670  1.0000
  H   H664      1.0  0.69151  0.82965  0.21864  1.0000
  S   S112      1.0  0.10379  0.84586  0.23497  1.0000
  H   H665      1.0  0.40376  0.87319  0.20050  1.0000
  C   C392      1.0  0.52414  0.92851  0.19520  1.0000
  C   C393      1.0  0.41607  0.90280  0.22199  1.0000
  H   H666      1.0  0.45159  0.84780  0.19062  1.0000
  N   N27       1.0  0.48617  0.89964  0.19837  1.0000
  H   H667      1.0  0.04102  0.89343  0.22812  1.0000
  H   H668      1.0  0.45876  0.86730  0.22502  1.0000
  H   H669      1.0  0.85710  0.96762  0.07661  1.0000
  C   C394      1.0  0.58097  0.93725  0.19114  1.0000
  H   H670      1.0  0.51593  0.93729  0.17972  1.0000
  H   H671      1.0  0.98764  0.90482  0.22212  1.0000
  H   H672      1.0  0.42679  0.90319  0.18387  1.0000
  S   S113      1.0  0.97779  0.80580  0.20190  1.0000
  H   H673      1.0  0.60570  0.95817  0.19369  1.0000
  C   C395      1.0  0.49405  0.88664  0.21961  1.0000
  H   H674      1.0  0.63494  0.85814  0.23465  1.0000
  H   H675      1.0  0.37663  0.89832  0.22040  1.0000
  C   C396      1.0  0.66191  0.89807  0.23479  1.0000
  H   H676      1.0  0.11052  0.73193  0.23127  1.0000
  H   H677      1.0  0.93416  0.97387  0.08055  1.0000
  H   H678      1.0  0.59118  0.92664  0.20369  1.0000
  H   H679      1.0  0.52445  0.88285  0.21461  1.0000
  H   H680      1.0  0.44079  0.92387  0.22349  1.0000
  H   H681      1.0  0.69869  0.91689  0.23418  1.0000
  Fe  Fe56      1.0  0.14177  0.82329  0.23623  1.0000
  H   H682      1.0  0.27974  0.74459  0.23642  1.0000
  H   H683      1.0  0.88322  0.85269  0.22715  1.0000
  C   C397      1.0  0.94890  0.95135  0.19696  1.0000
  C   C398      1.0  0.87400  0.96708  0.05896  1.0000
  C   C399      1.0  0.92792  0.97197  0.06132  1.0000
  S   S114      1.0  0.87929  0.87398  0.10794  1.0000
  H   H684      1.0  0.92579  0.89895  0.23172  1.0000
  H   H685      1.0  0.92467  0.95522  0.18601  1.0000
  C   C400      1.0  0.92527  0.86322  0.22861  1.0000
  C   C401      1.0  0.94511  0.83073  0.17354  1.0000
  C   C402      1.0  0.94845  0.85256  0.16214  1.0000
  H   H686      1.0  0.93578  0.67251  0.23342  1.0000
  H   H687      1.0  0.92552  0.93544  0.21106  1.0000
  H   H688      1.0  0.92560  0.95381  0.05777  1.0000
  H   H689      1.0  0.88978  0.81210  0.22759  1.0000
  H   H690      1.0  0.91225  0.81160  0.17169  1.0000
  H   H691      1.0  0.93973  0.85623  0.21444  1.0000
  S   S115      1.0  0.92311  0.91077  0.04161  1.0000
  Fe  Fe57      1.0  0.89630  0.90707  0.08137  1.0000
  H   H692      1.0  0.91829  0.85020  0.15162  1.0000
  C   C403      1.0  0.92850  0.91479  0.99249  1.0000
  H   H693      1.0  0.93899  0.89368  0.20217  1.0000
  Fe  Fe58      1.0  0.89207  0.93840  0.12103  1.0000
  Fe  Fe59      1.0  0.93409  0.90412  0.13059  1.0000
  S   S116      1.0  0.95614  0.93690  0.10306  1.0000
  C   C404      1.0  0.89832  0.91081  0.01375  1.0000
  C   C405      1.0  0.94603  0.89188  0.22107  1.0000
  H   H694      1.0  0.88043  0.94397  0.23516  1.0000
  H   H695      1.0  0.89357  0.96520  0.01314  1.0000
  Fe  Fe60      1.0  0.07779  0.83173  0.27376  1.0000
  H   H696      1.0  0.97906  0.96657  0.25344  1.0000
  H   H697      1.0  0.61315  0.75381  0.31144  1.0000
  C   C406      1.0  0.50819  0.73370  0.25917  1.0000
  H   H698      1.0  0.48008  0.73916  0.25649  1.0000
  S   S117      1.0  0.44293  0.79360  0.28142  1.0000
  H   H699      1.0  0.83379  0.82523  0.39627  1.0000
  Fe  Fe61      1.0  0.52747  0.81562  0.27079  1.0000
  S   S118      1.0  0.58901  0.81572  0.29081  1.0000
  S   S119      1.0  0.08114  0.86043  0.29856  1.0000
  C   C407      1.0  0.89861  0.95175  0.25156  1.0000
  S   S120      1.0  0.86217  0.90477  0.33473  1.0000
  Fe  Fe62      1.0  0.88334  0.90770  0.40313  1.0000
  S   S121      1.0  0.81762  0.87299  0.38833  1.0000
  S   S122      1.0  0.90944  0.90702  0.44051  1.0000
  Fe  Fe63      1.0  0.87514  0.87899  0.35859  1.0000
  S   S123      1.0  0.87501  0.84484  0.34508  1.0000
  Fe  Fe64      1.0  0.81052  0.90191  0.36564  1.0000
  S   S124      1.0  0.73717  0.89933  0.35790  1.0000
  S   S125      1.0  0.94115  0.91169  0.37438  1.0000
  S   S126      1.0  0.87233  0.93657  0.38246  1.0000
  C   C408      1.0  0.88535  0.90632  0.47017  1.0000
  C   C409      1.0  0.84094  0.90647  0.47520  1.0000
  H   H700      1.0  0.00218  0.84193  0.42348  1.0000
  H   H701      1.0  0.20102  0.71066  0.24846  1.0000
  H   H702      1.0  0.81997  0.90707  0.46073  1.0000
  S   S127      1.0  0.03792  0.74076  0.28510  1.0000
  C   C410      1.0  0.02443  0.85530  0.31329  1.0000
  C   C411      1.0  0.97865  0.83097  0.31552  1.0000
  C   C412      1.0  0.93342  0.82786  0.32602  1.0000
  C   C413      1.0  0.93347  0.84905  0.33418  1.0000
  C   C414      1.0  0.97945  0.87325  0.33251  1.0000
  C   C415      1.0  0.02482  0.87631  0.32223  1.0000
  H   H703      1.0  0.97804  0.81457  0.30907  1.0000
  H   H704      1.0  0.89805  0.80903  0.32742  1.0000
  H   H705      1.0  0.97987  0.88980  0.33844  1.0000
  H   H706      1.0  0.06010  0.89519  0.32058  1.0000
  H   H707      1.0  0.30663  0.84238  0.28653  1.0000
  C   C416      1.0  0.62866  0.83893  0.30985  1.0000
  C   C417      1.0  0.66802  0.83725  0.31905  1.0000
  C   C418      1.0  0.70172  0.85577  0.33366  1.0000
  C   C419      1.0  0.69576  0.87590  0.33946  1.0000
  C   C420      1.0  0.65615  0.87747  0.33038  1.0000
  C   C421      1.0  0.62285  0.85915  0.31545  1.0000
  H   H708      1.0  0.67273  0.82166  0.31478  1.0000
  H   H709      1.0  0.73201  0.85437  0.34066  1.0000
  H   H710      1.0  0.65134  0.89299  0.33490  1.0000
  H   H711      1.0  0.59257  0.86057  0.30850  1.0000
  C   C422      1.0  0.90909  0.85260  0.40766  1.0000
  S   S128      1.0  0.00460  0.79525  0.26733  1.0000
  C   C423      1.0  0.95550  0.97432  0.24804  1.0000
  H   H712      1.0  0.46277  0.75650  0.34072  1.0000
  H   H713      1.0  0.05360  0.91236  0.39424  1.0000
  H   H714      1.0  0.27829  0.75755  0.27616  1.0000
  H   H715      1.0  0.49405  0.76798  0.29902  1.0000
  C   C424      1.0  0.53658  0.74388  0.28157  1.0000
  C   C425      1.0  0.04924  0.70159  0.27274  1.0000
  H   H716      1.0  0.75045  0.85629  0.24919  1.0000
  H   H717      1.0  0.41850  0.72272  0.33625  1.0000
  H   H718      1.0  0.86533  0.87024  0.26289  1.0000
  C   C426      1.0  0.93824  0.87436  0.27103  1.0000
  N   N28       1.0  0.94893  0.85444  0.42305  1.0000
  H   H719      1.0  0.53653  0.74250  0.24325  1.0000
  Fe  Fe65      1.0  0.44117  0.82418  0.25896  1.0000
  C   C427      1.0  0.88672  0.87141  0.27839  1.0000
  H   H720      1.0  0.98631  0.84526  0.37881  1.0000
  H   H721      1.0  0.91146  0.86172  0.45236  1.0000
  H   H722      1.0  0.89954  0.82478  0.28037  1.0000
  C   C428      1.0  0.32534  0.71290  0.23985  1.0000
  C   C429      1.0  0.92665  0.84928  0.44867  1.0000
  H   H723      1.0  0.95248  0.87096  0.28755  1.0000
  H   H724      1.0  0.48970  0.71247  0.25925  1.0000
  H   H725      1.0  0.49225  0.88741  0.25822  1.0000
  H   H726      1.0  0.85647  0.82682  0.26232  1.0000
  H   H727      1.0  0.60064  0.75035  0.34294  1.0000
  Fe  Fe66      1.0  0.05183  0.77742  0.26587  1.0000
  C   C430      1.0  0.02359  0.71430  0.26886  1.0000
  H   H728      1.0  0.07980  0.70923  0.28438  1.0000
  H   H729      1.0  0.02413  0.88454  0.43220  1.0000
  C   C431      1.0  0.74493  0.90264  0.27633  1.0000
  H   H730      1.0  0.28308  0.68515  0.27021  1.0000
  H   H731      1.0  0.87568  0.95761  0.26198  1.0000
  C   C432      1.0  0.97408  0.65919  0.32675  1.0000
  H   H732      1.0  0.04783  0.88217  0.39191  1.0000
  H   H733      1.0  0.98429  0.89574  0.42423  1.0000
  H   H734      1.0  0.99023  0.87402  0.46989  1.0000
  C   C433      1.0  0.89095  0.80812  0.24685  1.0000
  N   N29       1.0  0.50411  0.73609  0.30502  1.0000
  C   C434      1.0  0.53983  0.74884  0.32417  1.0000
  H   H735      1.0  0.04020  0.89846  0.25979  1.0000
  H   H736      1.0  0.94364  0.66053  0.31869  1.0000
  C   C435      1.0  0.47404  0.70710  0.31083  1.0000
  C   C436      1.0  0.58231  0.74318  0.32622  1.0000
  H   H737      1.0  0.71349  0.90613  0.27849  1.0000
  H   H738      1.0  0.56720  0.72221  0.32702  1.0000
  H   H739      1.0  0.98461  0.84377  0.46417  1.0000
  H   H740      1.0  0.55916  0.77029  0.32165  1.0000
  H   H741      1.0  0.51815  0.74291  0.34209  1.0000
  H   H742      1.0  0.56116  0.76537  0.27833  1.0000
  C   C437      1.0  0.98653  0.85805  0.25131  1.0000
  H   H743      1.0  0.89538  0.93544  0.26272  1.0000
  H   H744      1.0  0.23362  0.75669  0.29792  1.0000
  H   H745      1.0  0.49765  0.69920  0.30544  1.0000
  H   H746      1.0  0.46492  0.70234  0.33048  1.0000
  C   C438      1.0  0.42207  0.69108  0.30000  1.0000
  C   C439      1.0  0.02542  0.89115  0.39504  1.0000
  H   H747      1.0  0.73513  0.88523  0.28786  1.0000
  C   C440      1.0  0.98377  0.70422  0.25400  1.0000
  H   H748      1.0  0.21663  0.72784  0.28426  1.0000
  S   S129      1.0  0.52715  0.84841  0.25199  1.0000
  C   C441      1.0  0.96811  0.68083  0.24404  1.0000
  C   C442      1.0  0.96321  0.85315  0.46786  1.0000
  H   H749      1.0  0.56319  0.73705  0.28181  1.0000
  H   H750      1.0  0.98770  0.84638  0.23719  1.0000
  C   C443      1.0  0.26522  0.83749  0.25563  1.0000
  C   C444      1.0  0.43857  0.74283  0.32790  1.0000
  H   H751      1.0  0.98764  0.67270  0.34094  1.0000
  H   H752      1.0  0.86242  0.85402  0.29118  1.0000
  H   H753      1.0  0.23714  0.84010  0.26484  1.0000
  Fe  Fe67      1.0  0.92427  0.93735  0.35270  1.0000
  H   H754      1.0  0.41624  0.67233  0.29556  1.0000
  H   H755      1.0  0.13691  0.76276  0.24384  1.0000
  H   H756      1.0  0.76983  0.91921  0.23984  1.0000
  C   C445      1.0  0.03509  0.67885  0.26190  1.0000
  H   H757      1.0  0.06922  0.88271  0.24814  1.0000
  C   C446      1.0  0.89484  0.82943  0.26171  1.0000
  H   H758      1.0  0.41814  0.69999  0.28345  1.0000
  C   C447      1.0  0.96332  0.83512  0.41794  1.0000
  C   C448      1.0  0.96283  0.82825  0.39186  1.0000
  C   C449      1.0  0.85595  0.82710  0.41172  1.0000
  S   S130      1.0  0.12319  0.81301  0.27561  1.0000
  C   C450      1.0  0.23686  0.74916  0.28086  1.0000
  H   H759      1.0  0.05544  0.66940  0.26488  1.0000
  H   H760      1.0  0.00670  0.66618  0.31315  1.0000
  H   H761      1.0  0.83372  0.82728  0.42768  1.0000
  H   H762      1.0  0.40895  0.74713  0.32420  1.0000
  H   H763      1.0  0.00097  0.88797  0.38041  1.0000
  N   N30       1.0  0.21366  0.74820  0.23742  1.0000
  C   C451      1.0  0.24080  0.67364  0.23924  1.0000
  C   C452      1.0  0.30470  0.83880  0.26790  1.0000
  H   H764      1.0  0.89400  0.88833  0.28787  1.0000
  H   H765      1.0  0.89327  0.82900  0.45237  1.0000
  H   H766      1.0  0.77906  0.91933  0.28308  1.0000
  H   H767      1.0  0.85842  0.80981  0.41369  1.0000
  H   H768      1.0  0.97868  0.81587  0.39038  1.0000
  S   S131      1.0  0.39248  0.83909  0.27199  1.0000
  C   C453      1.0  0.99532  0.88179  0.41981  1.0000
  H   H769      1.0  0.96612  0.89506  0.26502  1.0000
  H   H770      1.0  0.69728  0.84944  0.26837  1.0000
  C   C454      1.0  0.34174  0.83565  0.25625  1.0000
  C   C455      1.0  0.75767  0.90058  0.25009  1.0000
  H   H771      1.0  0.93720  0.81632  0.42877  1.0000
  C   C456      1.0  0.47050  0.74684  0.30436  1.0000
  H   H772      1.0  0.90270  0.86844  0.41063  1.0000
  H   H773      1.0  0.92346  0.81696  0.38624  1.0000
  H   H774      1.0  0.92206  0.85552  0.38848  1.0000
  N   N31       1.0  0.71601  0.87773  0.23879  1.0000
  H   H775      1.0  0.38976  0.68594  0.31335  1.0000
  H   H776      1.0  0.65040  0.86920  0.26275  1.0000
  H   H777      1.0  0.44339  0.73890  0.29062  1.0000
  H   H778      1.0  0.98995  0.84909  0.26812  1.0000
  H   H779      1.0  0.14536  0.71178  0.25134  1.0000
  C   C457      1.0  0.21270  0.75714  0.26180  1.0000
  N   N32       1.0  0.93662  0.85687  0.25282  1.0000
  H   H780      1.0  0.17277  0.74949  0.26931  1.0000
  C   C458      1.0  0.03629  0.88496  0.24653  1.0000
  H   H781      1.0  0.67651  0.81229  0.24721  1.0000
  H   H782      1.0  0.23274  0.77866  0.26069  1.0000
  H   H783      1.0  0.85511  0.78938  0.25304  1.0000
  H   H784      1.0  0.94644  0.90547  0.48572  1.0000
  S   S132      1.0  0.51840  0.79499  0.23794  1.0000
  C   C459      1.0  0.71206  0.85361  0.24928  1.0000
  H   H785      1.0  0.55226  0.91109  0.24337  1.0000
  H   H786      1.0  0.20863  0.65596  0.24834  1.0000
  H   H787      1.0  0.06491  0.65351  0.31245  1.0000
  H   H788      1.0  0.49918  0.91562  0.24434  1.0000
  C   C460      1.0  0.66482  0.87471  0.24356  1.0000
  H   H789      1.0  0.79299  0.90010  0.24964  1.0000
  H   H790      1.0  0.92293  0.80535  0.24938  1.0000
  C   C461      1.0  0.18110  0.71897  0.23961  1.0000
  Fe  Fe68      1.0  0.43355  0.77492  0.24735  1.0000
  H   H791      1.0  0.96337  0.71375  0.25116  1.0000
  C   C462      1.0  0.99329  0.66790  0.24818  1.0000
  S   S133      1.0  0.37893  0.73182  0.25560  1.0000
  C   C463      1.0  0.28299  0.69018  0.25158  1.0000
  S   S134      1.0  0.99116  0.97159  0.33031  1.0000
  H   H792      1.0  0.63485  0.89948  0.24727  1.0000
  H   H793      1.0  0.94040  0.84439  0.48538  1.0000
  H   H794      1.0  0.63699  0.82327  0.23809  1.0000
  H   H795      1.0  0.41369  0.89165  0.23862  1.0000
  C   C464      1.0  0.67720  0.82856  0.23734  1.0000
  C   C465      1.0  0.51042  0.90154  0.24220  1.0000
  H   H796      1.0  0.29551  0.77673  0.23682  1.0000
  Fe  Fe69      1.0  0.85565  0.90388  0.58439  1.0000
  S   S135      1.0  0.86827  0.93480  0.60845  1.0000
  S   S136      1.0  0.82682  0.90488  0.54787  1.0000
  Fe  Fe70      1.0  0.86848  0.87304  0.62474  1.0000
  S   S137      1.0  0.88063  0.90113  0.65141  1.0000
  S   S138      1.0  0.87642  0.84051  0.63896  1.0000
  Fe  Fe71      1.0  0.81670  0.90214  0.63616  1.0000
  S   S139      1.0  0.75380  0.89750  0.66228  1.0000
  Fe  Fe72      1.0  0.93141  0.93134  0.62193  1.0000
  C   C466      1.0  0.68135  0.68242  0.66489  1.0000
  S   S140      1.0  0.79971  0.87119  0.61174  1.0000
  S   S141      1.0  0.92379  0.90331  0.59565  1.0000
  H   H797      1.0  0.82904  0.74233  0.65736  1.0000
  H   H798      1.0  0.11094  0.93049  0.56758  1.0000
  S   S142      1.0  0.13399  0.95008  0.70448  1.0000
  H   H799      1.0  0.63930  0.79764  0.70742  1.0000
  S   S143      1.0  0.67405  0.73730  0.68367  1.0000
  H   H800      1.0  0.91585  0.90455  0.52762  1.0000
  C   C467      1.0  0.70997  0.83510  0.73486  1.0000
  H   H801      1.0  0.78036  0.82459  0.69330  1.0000
  C   C468      1.0  0.89478  0.90504  0.51316  1.0000
  C   C469      1.0  0.72768  0.92335  0.53848  1.0000
  H   H802      1.0  0.64802  0.87652  0.57618  1.0000
  H   H803      1.0  0.65039  0.86857  0.61896  1.0000
  N   N33       1.0  0.73482  0.82156  0.72522  1.0000
  C   C470      1.0  0.82373  0.90599  0.49903  1.0000
  H   H804      1.0  0.76379  0.73159  0.65727  1.0000
  H   H805      1.0  0.89074  0.96369  0.68363  1.0000
  H   H806      1.0  0.76271  0.92634  0.60865  1.0000
  C   C471      1.0  0.74483  0.92316  0.66577  1.0000
  C   C472      1.0  0.77650  0.94727  0.65283  1.0000
  C   C473      1.0  0.77218  0.70864  0.69589  1.0000
  C   C474      1.0  0.03297  0.89511  0.62452  1.0000
  C   C475      1.0  0.69608  0.93913  0.68489  1.0000
  C   C476      1.0  0.70478  0.91920  0.68186  1.0000
  H   H807      1.0  0.80827  0.95075  0.64085  1.0000
  H   H808      1.0  0.66452  0.93578  0.69701  1.0000
  H   H809      1.0  0.68004  0.90056  0.69189  1.0000
  C   C477      1.0  0.81990  0.81227  0.65177  1.0000
  C   C478      1.0  0.77278  0.80409  0.64297  1.0000
  C   C479      1.0  0.72840  0.78095  0.65281  1.0000
  C   C480      1.0  0.73054  0.76632  0.67202  1.0000
  C   C481      1.0  0.77751  0.77480  0.68119  1.0000
  C   C482      1.0  0.82224  0.79746  0.67079  1.0000
  H   H810      1.0  0.77072  0.81526  0.62816  1.0000
  H   H811      1.0  0.69220  0.77445  0.64560  1.0000
  H   H812      1.0  0.77962  0.76370  0.69598  1.0000
  H   H813      1.0  0.85866  0.80373  0.67764  1.0000
  C   C483      1.0  0.76020  0.93015  0.58949  1.0000
  H   H814      1.0  0.73848  0.85637  0.73387  1.0000
  C   C484      1.0  0.81757  0.69604  0.66751  1.0000
  H   H815      1.0  0.71429  0.66244  0.67975  1.0000
  C   C485      1.0  0.04964  0.93489  0.68072  1.0000
  C   C486      1.0  0.02073  0.93815  0.66428  1.0000
  C   C487      1.0  0.81044  0.67351  0.68437  1.0000
  H   H816      1.0  0.64574  0.66349  0.66294  1.0000
  C   C488      1.0  0.76105  0.83395  0.70067  1.0000
  H   H817      1.0  0.98572  0.92147  0.65957  1.0000
  C   C489      1.0  0.85049  0.90532  0.51818  1.0000
  H   H818      1.0  0.03135  0.92866  0.61635  1.0000
  H   H819      1.0  0.05080  0.88453  0.61902  1.0000
  Fe  Fe73      1.0  0.66713  0.72116  0.72148  1.0000
  H   H820      1.0  0.65232  0.94159  0.62130  1.0000
  H   H821      1.0  0.77117  0.96896  0.57915  1.0000
  H   H822      1.0  0.82622  0.71976  0.62180  1.0000
  H   H823      1.0  0.75779  0.70571  0.62175  1.0000
  H   H824      1.0  0.67941  0.64921  0.72332  1.0000
  H   H825      1.0  0.78944  0.90620  0.50260  1.0000
  H   H826      1.0  0.83724  0.82801  0.71780  1.0000
  C   C490      1.0  0.09654  0.95609  0.68622  1.0000
  H   H827      1.0  0.09668  0.89121  0.58290  1.0000
  C   C491      1.0  0.76716  0.96703  0.65550  1.0000
  C   C492      1.0  0.19163  0.96159  0.62512  1.0000
  S   S144      1.0  0.63831  0.67932  0.73080  1.0000
  H   H828      1.0  0.84489  0.74675  0.69548  1.0000
  C   C493      1.0  0.79412  0.72202  0.62721  1.0000
  H   H829      1.0  0.78092  0.92260  0.57984  1.0000
  H   H830      1.0  0.79175  0.85470  0.70148  1.0000
  C   C494      1.0  0.64316  0.78334  0.71803  1.0000
  H   H831      1.0  0.73220  0.92401  0.73020  1.0000
  H   H832      1.0  0.04390  0.95437  0.58101  1.0000
  H   H833      1.0  0.81904  0.69033  0.64923  1.0000
  H   H834      1.0  0.13965  0.90468  0.60606  1.0000
  C   C495      1.0  0.03860  0.96266  0.65306  1.0000
  C   C496      1.0  0.67170  0.91707  0.60356  1.0000
  H   H835      1.0  0.99092  0.88175  0.62409  1.0000
  H   H836      1.0  0.67467  0.68951  0.68140  1.0000
  H   H837      1.0  0.78448  0.65450  0.67745  1.0000
  H   H838      1.0  0.16533  0.91061  0.57633  1.0000
  C   C497      1.0  0.81004  0.81607  0.73350  1.0000
  H   H839      1.0  0.67726  0.91057  0.62127  1.0000
  H   H840      1.0  0.49287  0.65333  0.72593  1.0000
  H   H841      1.0  0.84826  0.67607  0.68627  1.0000
  H   H842      1.0  0.74831  0.71710  0.69709  1.0000
  H   H843      1.0  0.68680  0.69579  0.64945  1.0000
  C   C498      1.0  0.68666  0.88745  0.58291  1.0000
  H   H844      1.0  0.84739  0.71973  0.70809  1.0000
  H   H845      1.0  0.71897  0.88299  0.61540  1.0000
  H   H846      1.0  0.75129  0.69101  0.70857  1.0000
  H   H847      1.0  0.03934  0.89942  0.64336  1.0000
  H   H848      1.0  0.70597  0.84234  0.68604  1.0000
  H   H849      1.0  0.67369  0.95234  0.59069  1.0000
  N   N34       1.0  0.77686  0.70216  0.67082  1.0000
  H   H850      1.0  0.67683  0.85357  0.60275  1.0000
  N   N35       1.0  0.70497  0.91564  0.58404  1.0000
  H   H851      1.0  0.71387  0.78460  0.71296  1.0000
  C   C499      1.0  0.72700  0.83301  0.68138  1.0000
  H   H852      1.0  0.63044  0.90371  0.60087  1.0000
  H   H853      1.0  0.70784  0.94518  0.55962  1.0000
  H   H854      1.0  0.03421  0.91361  0.59088  1.0000
  H   H855      1.0  0.20533  0.96056  0.64272  1.0000
  H   H856      1.0  0.67970  0.83317  0.72399  1.0000
  H   H857      1.0  0.76225  0.97040  0.71767  1.0000
  H   H858      1.0  0.71244  0.88535  0.57009  1.0000
  H   H859      1.0  0.72445  0.93348  0.52248  1.0000
  C   C500      1.0  0.68320  0.87260  0.60652  1.0000
  H   H860      1.0  0.79543  0.67295  0.70273  1.0000
  C   C501      1.0  0.68028  0.94381  0.60674  1.0000
  C   C502      1.0  0.79108  0.72535  0.65404  1.0000
  C   C503      1.0  0.82308  0.72774  0.70615  1.0000
  H   H861      1.0  0.80174  0.73984  0.61698  1.0000
  H   H862      1.0  0.71182  0.90306  0.53447  1.0000
  H   H863      1.0  0.76904  0.93277  0.54074  1.0000
  H   H864      1.0  0.73019  0.67114  0.64887  1.0000
  C   C504      1.0  0.72648  0.67867  0.66588  1.0000
  H   H865      1.0  0.81468  0.96936  0.59853  1.0000
  H   H866      1.0  0.81458  0.73121  0.72442  1.0000
  C   C505      1.0  0.13179  0.93309  0.58370  1.0000
  H   H867      1.0  0.03656  0.91568  0.68850  1.0000
  H   H868      1.0  0.12664  0.92325  0.63408  1.0000
  H   H869      1.0  0.81856  0.96380  0.69478  1.0000
  H   H870      1.0  0.75197  0.84399  0.66479  1.0000
  C   C506      1.0  0.69757  0.92494  0.56027  1.0000
  H   H871      1.0  0.85673  0.71342  0.66836  1.0000
  H   H872      1.0  0.65625  0.91365  0.55707  1.0000
  C   C507      1.0  0.05113  0.91988  0.60809  1.0000
  H   H873      1.0  0.63028  0.76666  0.70716  1.0000
  H   H874      1.0  0.70049  0.81296  0.67683  1.0000
  C   C508      1.0  0.83429  0.96016  0.71063  1.0000
  C   C509      1.0  0.72705  0.96306  0.67158  1.0000
  H   H875      1.0  0.17144  0.94950  0.57767  1.0000
  H   H876      1.0  0.71852  0.95737  0.61267  1.0000
  C   C510      1.0  0.79263  0.95986  0.58325  1.0000
  H   H877      1.0  0.09629  0.96146  0.55947  1.0000
  C   C511      1.0  0.13272  0.90838  0.58773  1.0000
  H   H878      1.0  0.81014  0.93877  0.71433  1.0000
  N   N36       1.0  0.10817  0.93957  0.60391  1.0000
  H   H879      1.0  0.11578  0.94752  0.64070  1.0000
  H   H880      1.0  0.97399  0.88598  0.72265  1.0000
  H   H881      1.0  0.61544  0.77561  0.73418  1.0000
  C   C512      1.0  0.69769  0.79274  0.72497  1.0000
  C   C513      1.0  0.91200  0.90553  0.48934  1.0000
  C   C514      1.0  0.88842  0.96652  0.70287  1.0000
  C   C515      1.0  0.13331  0.94192  0.62664  1.0000
  S   S145      1.0  0.00666  0.96657  0.62982  1.0000
  H   H882      1.0  0.89688  0.95360  0.71316  1.0000
  H   H883      1.0  0.82173  0.96505  0.56808  1.0000
  H   H884      1.0  0.78723  0.79548  0.72983  1.0000
  H   H885      1.0  0.21268  0.95721  0.61176  1.0000
  C   C516      1.0  0.77410  0.96602  0.73453  1.0000
  C   C517      1.0  0.08595  0.96664  0.57640  1.0000
  H   H886      1.0  0.10583  0.97299  0.61240  1.0000
  C   C518      1.0  0.11616  0.96563  0.59689  1.0000
  N   N37       1.0  0.82897  0.97319  0.73148  1.0000
  H   H887      1.0  0.03879  0.92721  0.73396  1.0000
  Fe  Fe74      1.0  0.86627  0.91338  0.90133  1.0000
  S   S146      1.0  0.88308  0.94806  0.87740  1.0000
  S   S147      1.0  0.83536  0.90810  0.94052  1.0000
  Fe  Fe75      1.0  0.87496  0.88631  0.85840  1.0000
  S   S148      1.0  0.89264  0.91882  0.83168  1.0000
  S   S149      1.0  0.87456  0.85170  0.84590  1.0000
  Fe  Fe76      1.0  0.94390  0.94434  0.85820  1.0000
  H   H888      1.0  0.98300  0.93692  0.78325  1.0000
  Fe  Fe77      1.0  0.83085  0.91994  0.85274  1.0000
  S   S150      1.0  0.76635  0.91983  0.83565  1.0000
  S   S151      1.0  0.93137  0.91179  0.88379  1.0000
  S   S152      1.0  0.80894  0.88525  0.87776  1.0000
  H   H889      1.0  0.92022  0.86055  0.89629  1.0000
  H   H890      1.0  0.97835  0.91995  0.74589  1.0000
  H   H891      1.0  0.99774  0.91415  0.82477  1.0000
  N   N38       1.0  0.74841  0.94457  0.90909  1.0000
  C   C519      1.0  0.78755  0.83644  0.93886  1.0000
  C   C520      1.0  0.74688  0.91961  0.91235  1.0000
  S   S153      1.0  0.65021  0.69395  0.78680  1.0000
  Fe  Fe78      1.0  0.67694  0.73460  0.77277  1.0000
  S   S154      1.0  0.68720  0.76828  0.79257  1.0000
  C   C521      1.0  0.02376  0.94276  0.78042  1.0000
  S   S155      1.0  0.51247  0.64548  0.77456  1.0000
  C   C522      1.0  0.77473  0.94794  0.82071  1.0000
  C   C523      1.0  0.73341  0.94617  0.80988  1.0000
  C   C524      1.0  0.76337  0.80383  0.89717  1.0000
  H   H892      1.0  0.66458  0.89213  0.90782  1.0000
  H   H893      1.0  0.03956  0.94838  0.79783  1.0000
  H   H894      1.0  0.69731  0.92771  0.81075  1.0000
  H   H895      1.0  0.70649  0.96640  0.78932  1.0000
  C   C525      1.0  0.82323  0.82902  0.83037  1.0000
  C   C526      1.0  0.77997  0.83026  0.82827  1.0000
  C   C527      1.0  0.73872  0.81139  0.81672  1.0000
  C   C528      1.0  0.74047  0.79130  0.80690  1.0000
  C   C529      1.0  0.78410  0.79027  0.80863  1.0000
  C   C530      1.0  0.82520  0.80900  0.82048  1.0000
  H   H896      1.0  0.77791  0.84554  0.83582  1.0000
  H   H897      1.0  0.70502  0.81226  0.81555  1.0000
  H   H898      1.0  0.78585  0.77486  0.80116  1.0000
  H   H899      1.0  0.85849  0.80786  0.82210  1.0000
  C   C531      1.0  0.77587  0.82611  0.74127  1.0000
  H   H900      1.0  0.08592  0.90230  0.74806  1.0000
  H   H901      1.0  0.78321  0.92228  0.90455  1.0000
  H   H902      1.0  0.77109  0.79021  0.94500  1.0000
  C   C532      1.0  0.92207  0.85477  0.91498  1.0000
  H   H903      1.0  0.69487  0.93481  0.74390  1.0000
  C   C533      1.0  0.81292  0.80522  0.94295  1.0000
  C   C534      1.0  0.87813  0.85193  0.93173  1.0000
  H   H904      1.0  0.12509  0.94403  0.84298  1.0000
  C   C535      1.0  0.99366  0.89756  0.79055  1.0000
  C   C536      1.0  0.86179  0.91030  0.96834  1.0000
  C   C537      1.0  0.91048  0.91455  0.96995  1.0000
  H   H905      1.0  0.98398  0.88209  0.82726  1.0000
  H   H906      1.0  0.84459  0.82266  0.89366  1.0000
  H   H907      1.0  0.93411  0.91741  0.95387  1.0000
  C   C538      1.0  0.81662  0.82604  0.90288  1.0000
  H   H908      1.0  0.00409  0.87813  0.74457  1.0000
  C   C539      1.0  0.70269  0.89592  0.90180  1.0000
  C   C540      1.0  0.75315  0.95156  0.88266  1.0000
  H   H909      1.0  0.72021  0.93608  0.87412  1.0000
  H   H910      1.0  0.95923  0.87055  0.92047  1.0000
  H   H911      1.0  0.95297  0.89185  0.79070  1.0000
  N   N39       1.0  0.02714  0.92058  0.77259  1.0000
  H   H912      1.0  0.78807  0.95337  0.87392  1.0000
  H   H913      1.0  0.87841  0.80061  0.94204  1.0000
  H   H914      1.0  0.68781  0.92728  0.93782  1.0000
  C   C541      1.0  0.83998  0.96366  0.75417  1.0000
  H   H915      1.0  0.76281  0.95485  0.95713  1.0000
  H   H916      1.0  0.73815  0.93163  0.76093  1.0000
  N   N40       1.0  0.82438  0.82954  0.92893  1.0000
  H   H917      1.0  0.79293  0.85364  0.92821  1.0000
  H   H918      1.0  0.82534  0.94268  0.75437  1.0000
  C   C542      1.0  0.09418  0.90814  0.76634  1.0000
  H   H919      1.0  0.92315  0.83711  0.91554  1.0000
  H   H920      1.0  0.38720  0.64342  0.78856  1.0000
  S   S156      1.0  0.74611  0.67641  0.76030  1.0000
  H   H921      1.0  0.76442  0.80197  0.87768  1.0000
  C   C543      1.0  0.70069  0.96463  0.92829  1.0000
  C   C544      1.0  0.12006  0.95894  0.83541  1.0000
  H   H922      1.0  0.88828  0.85118  0.95027  1.0000
  H   H923      1.0  0.10630  0.94517  0.75757  1.0000
  H   H924      1.0  0.84817  0.79398  0.91448  1.0000
  C   C545      1.0  0.82111  0.97192  0.81967  1.0000
  S   S157      1.0  0.23474  0.96222  0.74403  1.0000
  H   H925      1.0  0.75861  0.81660  0.75953  1.0000
  H   H926      1.0  0.70792  0.89768  0.88207  1.0000
  H   H927      1.0  0.83348  0.81740  0.74825  1.0000
  H   H928      1.0  0.74367  0.91349  0.93158  1.0000
  Fe  Fe79      1.0  0.69965  0.69463  0.75585  1.0000
  H   H929      1.0  0.74713  0.82056  0.93763  1.0000
  C   C546      1.0  0.68567  0.82619  0.76085  1.0000
  H   H930      1.0  0.66444  0.96283  0.92403  1.0000
  H   H931      1.0  0.69219  0.78282  0.74293  1.0000
  H   H932      1.0  0.82995  0.85757  0.96907  1.0000
  C   C547      1.0  0.84142  0.79253  0.93406  1.0000
  H   H933      1.0  0.77696  0.82465  0.97746  1.0000
  H   H934      1.0  0.05007  0.94569  0.85759  1.0000
  H   H935      1.0  0.70285  0.87850  0.90784  1.0000
  C   C548      1.0  0.08264  0.92889  0.77155  1.0000
  H   H936      1.0  0.88089  0.87075  0.92884  1.0000
  H   H937      1.0  0.82404  0.84420  0.89345  1.0000
  H   H938      1.0  0.82237  0.80909  0.96166  1.0000
  C   C549      1.0  0.07758  0.95984  0.84368  1.0000
  H   H939      1.0  0.13577  0.91656  0.76732  1.0000
  H   H940      1.0  0.80710  0.94515  0.94983  1.0000
  C   C550      1.0  0.00738  0.90109  0.81655  1.0000
  H   H941      1.0  0.73323  0.80787  0.90138  1.0000
  H   H942      1.0  0.66765  0.93005  0.90959  1.0000
  H   H943      1.0  0.07398  0.89112  0.77968  1.0000
  H   H944      1.0  0.04798  0.90792  0.81830  1.0000
  H   H945      1.0  0.71543  0.83418  0.77362  1.0000
  H   H946      1.0  0.81903  0.96524  0.76984  1.0000
  Fe  Fe80      1.0  0.59014  0.68059  0.76088  1.0000
  H   H947      1.0  0.80179  0.84714  0.74342  1.0000
  C   C551      1.0  0.69962  0.94035  0.92111  1.0000
  H   H948      1.0  0.75258  0.78492  0.90614  1.0000
  H   H949      1.0  0.09905  0.93664  0.78847  1.0000
  H   H950      1.0  0.99367  0.88029  0.78576  1.0000
  C   C552      1.0  0.05265  0.96794  0.76349  1.0000
  H   H951      1.0  0.81735  0.77140  0.93943  1.0000
  C   C553      1.0  0.73850  0.96806  0.79773  1.0000
  C   C554      1.0  0.79844  0.96025  0.94631  1.0000
  H   H952      1.0  0.70140  0.96561  0.94788  1.0000
  H   H953      1.0  0.83078  0.96719  0.90999  1.0000
  C   C555      1.0  0.73320  0.93741  0.74286  1.0000
  C   C556      1.0  0.79608  0.96504  0.91943  1.0000
  H   H954      1.0  0.89849  0.96686  0.77595  1.0000
  C   C557      1.0  0.79087  0.84229  0.96526  1.0000
  H   H955      1.0  0.76573  0.84954  0.96967  1.0000
  H   H956      1.0  0.66170  0.80483  0.76435  1.0000
  C   C558      1.0  0.72873  0.64732  0.74754  1.0000
  C   C559      1.0  0.98093  0.88660  0.74179  1.0000
  C   C560      1.0  0.00743  0.91487  0.74821  1.0000
  H   H957      1.0  0.66073  0.83366  0.76469  1.0000
  S   S158      1.0  0.73268  0.73681  0.74423  1.0000
  S   S159      1.0  0.61244  0.72097  0.74915  1.0000
  H   H958      1.0  0.04117  0.96496  0.74507  1.0000
  H   H959      1.0  0.94293  0.87414  0.75209  1.0000
  S   S160      1.0  0.20721  0.97463  0.80640  1.0000
  H   H960      1.0  0.85320  0.97354  0.82800  1.0000
