data_image0
_chemical_formula_structural       FeS2HFeHSFeSH2FeS3FeS2FeS2FeSFeS3HS2HCHCFeSHSC3HC6H6CH3FeHCH2NCH4C2HC2H2CH2CHCHC2H4C6H4CHC3H5C6H4SH2C2H5CHCH6CH4CSH2SCH4C2HCNC8H22C2H4SH2CH3NH3CH2SH2C2NS2CSC4HSC3HCH2FeHSNC8H9C2H2CH6CFeC2HCNH2SCH2C2H2NH2CHCHC2H4CH4CFeH2CH6C2HCH7CH2NC2FeCHCH3C2HSHCHCHSHCH4C2H9CHC2H3CFeS2CHFeSH2SHFeS2FeS2FeSFeS2FeSHFeSHFeHFeSHSFeS2H4FeSCSFe2S2Fe2S2CH2C2HSCHC6H4SH4C8H3C2H5SH4C6H4C6H6NC8H20CHCHCH5SCH3FeH4C2SH2CH4CH4C5H2C3HCHCHSH2SCHCH3CH3SH4NCHCHCHCH2CH2CHCH2CHSH2FeC3HFeH3C2SNH4CHSHC2HSC2H2CH2CHCNHC2H5C2H5CHCH5C2H2CH4C3FeSHFeS2FeCFeS3FeSHFeS2FeCFeSHSFeS2FeS2FeSFeS3FeSHFeS2FeSHSHFeS2FeS2FeSFeS3HCH3C3H2C6H5C6H4C2H3C2H2SH2C3H2C6H4C6H5NCHC2HCHCH2SHC2H7SH3NC2H8C3HNC8H23C6HCH2CHCNC2H2CH4C2H4CH3C2HCH5CHCHCH2CHNC8H10CH9NCHSCH4C3H2CHNH4CHFeH2CHCH3CH2CH5CH6C2HCH5CNC8H20CHCH4NC2H6NCH3CH3CHCH7C2H2SCHCH3CHCHC3HCH3CFeSFeSCS2H2FeS2HFeS3FeS2FeSFeSFeS3HCSHSNHC7H4C8H4CHCH2C6H3SC5HCH2CH8C4H2CH2SHCH2CNSH7CH2CH4CH11C2HC3H2CHFeCH6CH2CH2CH5SH2NCH2C3H3CH2C2H5CH4C3H11C2HNC8H20FeH3CN2C2H2CH3CHNH2CH4CH2C4HSHFeHSHSH3SH7CHCFeH4SFeS2FeSFeS3FeSFeS2FeSFeS3FeS2FeS2FeSFeS2FeHCFeS2FeHFeS3FeSFeSNFeHFeS3C2H3CNC2HCH2C6H5CH2SH2C6H4C6H6C6H3C6H5C3NC2H2C2H4NH2C2HCH3SHC2H2C3H2CHCSCH10CHCH2CHS2H3CSHCH4CHNH4CHCHCH2CHCHCH12CHCH5CH5CH4CH2CH6CH2NC8H20C2H2FeCH4C3H3NC2HC3HC4H2NCH2C2HSC2HCH8CH2CH2CH4CH2CH2CH2NCH3CHCSH5C4H5CHC2HCH3SNH2CHCHSHCH8CHC4SHSH4CH3SCHSHCFeSHSFeS2FeS2FeHFeHS2HFeHSFeCFeHFeS2H2CHC2S3HCHSH2CH3CH3C2HCH12C6H5CH2SC2H2SHC6H4FeH3C2H6CH8CH7CHCHCNC2HC2HC2H2CH3C2H3C3NC5H2CH4SH4CH5C2H3C2HCHNH3CH4CFeC2H5CHC2NH2C3H2CHCHCH4CH4NC2H2CHCHCH7FeCHC2HNHCH3CH2CH2FeS2FeS2FeSFeNS2C2FeS2FeSHSCH3SCHNFeCHS2H4CHFeSCH5CHC3H3C9H6C6H4C3H3C4H3C2HCH10C6H2C2H6CH2C3HC2H4CH5CH2FeHC2HCH3CSH11SC3HCHCH3CHCH2CH7CHC2H3SH5CH4C3H2SCH2NH2FeC2HC2H3NCH2C2H2NHCH2C3HCH2CH9CH2SHNH2CH7CH2CSC3H2C2FeS2FeSFeSFeS3HFeS2FeSFeCFeS3FeSCFeS2FeSFeHS2FeS2HSFeSFeSHSFeSHFeS2FeHFeS3H4C6H4NSHC6H4C6H15CHCHC6H4C3H3CH3CH2C3H3CHCH2CHCH2CHCHSH2CH3CH5C2H3C2H2CH7CH2CHC4H2C2FeCHCH2C3HCHC2H3CHCH3NH4CHSCH4NC7H17CNH2CH2CNCH2C2H6CH3C3NC8H20NCSHSH4NC3HCHC2H4SH3C2HC2H5CHNC7H22SHNHCHCHSH2C2NCH2C3H4CHSH2CH2CHCH5CH7CFeS2FeS2FeSFeS3H2SCHCSHFeHSHSH2SCFeSCFeSFeCSCH4FeS2FeHFeCSH3CH4SHFeCHCHC2HC2HFeH3CH3C3H13C6H4C6H4C6H5CH4CH3C2NH2CH2NH3FeSHCNC4NHCHCH2CH2SH3C4HC3SH4CHC2HCSH2CH2NC8H19CH3CH3C2HCH5CNHCH2C3HC4H15C2H3NH2C2HC2H6C2HCH3C3HCS2C2H5C2H4CH7CH3N2H2C3H3CHCHCHFeS2FeS2FeSFeS3FeS2FeS2FeSFeS3FeS2FeS2HFeS2FeS2HSFeSH2SHCFeH2SCH5C3SCHCHC2H3C4SH5C6H4C6H4C6H6C3HCH3C8H5CH3C5H4CHFeHCHCH6CH2NH4CH2CH2C4H7CH4C4HC2H4CH7CH2SNCH3CH5CH2CH2CHNC4H6CH5C3H5CH3C2H3CH2C2HCH4CHFeHNH7C2HC5HNHC2H3NCH2SCFeH2SFeCH7FeCHCH2CSHC2H3NHCNSHCH2SH6CHC2HCHC2FeCH7SHCH4CH3CH2NC2FeS2FeSCFe2S3FeCS2FeS2FeSHFeHS2FeS2FeS2FeSFeS3FeS2FeS2FeSFeS3H3C2H2CH2CH3CH2C6H4CHC7H7C6H4C13H4FeC3SH8CH2CHNC6H4CH4CH2NH4CFeNHC3HC2HCH21C2H2SHC2H2C2SNC8H21CFeH3C3H2NC8H22CHCHCHCHC3H3CHSC3H2CH10CH6C2HC3H2CH3CNH2C3H4CH2CHCH2CHC2SHCHNCH3CH8C2H11SH3SC2H5C3HC3H11CHC2H4CSHNSFeHSFeS2FeSFeSFeHSCNH2CSHCHFeS2FeS2FeSFeS3H2C4H2FeSHFeSCFeSFeS3C2H2CH3C3NC2HNHCSHC6H4C6H4CHC2HC3HCH7CH4C6H5C4H2CH4CH2CH6C2H2CHFeHC2HCHC2H9C3H2C3H2CH3SH2CHC2H5SCH3N2HNH2CH3CH2CHCH2CHCHC2HNH3SHSH3C3HCH2FeH2CH2CH4CH4CHCH5C2HS2H3CH4CH4NC3HCH4CHSH4C2H3C2HC2FeCH4CH7SH4CH2NHCHCHC2HCHC2H2CHCFeH2C3HFeS2FeS2FeSFeS3CHFeS2H3SHFeS2FeS2FeSFeS3HFeSHFeS2FeSFeCSHSFeSCFeSFeSCHCH3CHC6H7C2HC6H4C4HCH2C2NC3HCHC2HC3HCH2C6H4C6H5C3H10C2HCHCHSHC2H5S2H6SH3CH3FeCHCNCNH3CHCH5CH2CH6CH4CSH2SC3FeHCH2CFeC3H3NHFeHC2HCHC2H4CHCH2NH6CHNC8H10CH9CHCH2C2H2CSNH3CH7CHCH2NHC2HCH2SH7CHCHCHCHC3H3NCH2CH2C3HCSCHCH2CHCH4CH2CH5CH7CH3C5H5CSC4HSH2SH5SCH2CSCHFeS2FeS2FeSFeS3FeS2FeS2FeSFeS4H2SFeSFeSHFeSFeHSCHCHC2H2SC7H7C6H4C6H4C6H6CH5CH3CH3C2HC3HCHC2FeH2C3H9CHC2H4C2H3NSHCHCH2CHNH6SH7NC8H8NH13C2H3CH2C5H4NCH2CHC2HC2H4C2HSH3SHCHCSH3C3FeH4CHC2H5C4H5CH3CHCHC3HNC2H3CH5SH2CSH5NH5FeHNC5HC2H3CH2CSH4CHCH6C3H7C3H2C2HFeSH3FeCFeS3FeS2FeS2FeSFeS3FeCH2SH3FeSFeS2FeS2FeSFeNS2C6H4C6H4C6H4SH2C2HSH2CSC3HC6H4C4HNH2C2H2C4H3C6H7FeCHSHCHC3HCHCH5CH3C2H2CH6CHFeCHCHCFeH5NHCHSC3HCH2FeHC2H2SH4SC2HCHNH4C2H2CH4CHCH2CH2CSCHCH2CNH2SH3CSFeH6CH2CHSHNCHC3FeH2CH4FeH2SCH5CH4CH11CH2CH3NH2C2SCHSHCSH5CH3C3H2FeS2FeSCFeSFeS2CSFeHCHFeS2FeS2FeSFeS3FeS2CH2C3SFeS2FeS2FeSFeS3HCSHC3H5CH2C2H3C6H4C6H4CHCSCHCH2C6H5CHC2HC6H2CHC6H3NC8H20C2H9C2H4CHCHC2H3NCHCHNCH8NC5HSH12CHSC3HCHC2H4C2NH3CH3SCH2C4H2CSCHNHC3HC3H9C3HSHCH4CHCH4FeH2FeH3FeH2NSHSH2CH5CHCH4SH2CH9CHNCH2CH3CH3SH6FeCFeS2HFe2SHFeS2FeS2FeSFeS3CSH5FeSHS2HCNCFeS2CHFeSFeSFeSHFeS2FeSFeS4HC7H5C3H2CH3C6H2CH2C6H4CH2C6H6CHFeC4HCHCHC6H5CH4FeCHC2HC3H2FeHCHC2H2NC8H21C2HCH11CH2CH6SHSCHNCH2CSCHC3H4C2H6C2HNC8H20NC6H14NC8H14CH2C3SHSCSCH3C2H6SFeHCH4SHNH2SCSC2H3CH2CH3SHNH2CHCHCH3CHFeSCFeS2FeSFeS3FeSCFeS2FeSFeS3H6SH2NHCSHFeHCH5CH2C2H3C2HCHCHC6HCH2C6H4C6HCH6SCHCHNCH4CHCH9CNHCH4CNHNHCH2FeSHC2HCH2NH4CH2C3HCHCH3C2H7C2HC2H3C2H2CH2CHCH3CHCH3SHCHC3H2C6H6C2HCH2NC6H7CHC2H3CHCHC2H3NH2C3H6CHCH5SHCH3CH2CHCH3CNH2C2HCHCH6CHCHFeSHFeS2FeSFeS3FeSHFeS2FeSFeS3H3C4HCHSCNH2CHCH3CHNH4C7H4CH3C2HNH2C6H4C3H8C2HC5HCHC2H3CH3CHC2HCHC3HSH7C2H2CH2CH3C2H2CNH2CH2CHCHC2HCH4NHC2H5CH8CH7SCHCHCH3NC8H10CHC2HC2HSHCH5CH5CHSH7CH2C3H5CHCHCHCHCSHCHCFeHSHFeS2FeC2FeS2FeH2FeHFeS3FeS2FeH2FeHFeS3HFeS2FeS2FeSFeS3HCFeS2Fe2S3C6H4CHCSH2C2H7C9H4C6H7C6H4NCHCHCH2C3H4CH3C2HCHCH3CH5CH3CH2CH4CH3SCH2NH3CH2C5SCH3SCHSH6CH2CSHCSH2CHCH3CH5CHCH2CHCHNC4H2C2H8CH3NCH6NFeHC3SCH4CH2CH2NH7SCFeNCH2C2H4C2HC3SH2CH12C3H3CH2SH2SCH2CH2CH4CH2C2H3CH2CH3CHNH2NHC2SCH7CH4CH5CFeS2FeS2FeSFeS3FeSFeS2FeSFeS3C3H4C2HC6H7C2H2CH2CHCH2C7H6C2H5CHSHCHNCH8CHCH2CSH9C2H2CH2CHCH3C2H4C3H3CH4CH2CH2NHCHCSHCH2CH6C2H3CH6CHC3H8CNCH3SHNH2CH3C3H5CH2CH5CHCHFeHCHCH3NHCH3CHC7HCHC3HCFeS2FeS2FeSFeS3FeSCFeS2FeSFeS3HFeS2FeSHFeCFeSCSFeSHFeS2FeSFeHS2FeS2HFeS2C2H2S2H2CNH2CHC6H10CHC2NCH3FeH6C6H4C6H4C2HC2H3C6H4C2HC2HCH2CHCH2SHCHC2SHCHCHCHCHC2H4C2H6C2SH4NC5HC2HCH8CH5SCHCH3CNC8H24CH3CHCH2CHCH4CH4C2H2NC4H10CHCH10CHCNC8H20CH2CHSHC2H2CHC2HNCHC2H2CHC3H6C4H2CSHCH4C4H7CH3SCHCHC4H2NHCSH3SH2SHCH3CH2CH2NH6C2H2NHFeC2H2FeSFeS2FeCFeS3FeSHFeS2Fe2S3CSFeS2FeS2FeSFeHS2FeS2FeS2FeSFeS3HSFeS3H8C6H4C6H4CHCHC4H5CH2C6H5C6H4C6H2C2H5C2HNH3CHCNH6NC8H22CH2NH2SHCHNHCH4CH2C2H4CHFeHCHC2H2CHC2HCH3C2H4C2H2NC8H24C2H2C3HC3H2CH2NH9CHC4H2C2HSH2SH3CHCHCH2CFeH3C2HCH3CH8NH3SCH5CSCH3CH3C2H2CH3NH6CH7CHSFeS2FeS2FeSFeS3FeS2FeSHFeSFeS3HC3HC2H3C6H2C3H2C6H4CHCH3CH3C6H7C2HCH2CH3CSCH4NC4H2C2H5CH3C2H2CHC2H5CH5CH3C2HC2H5C3H6C2H3CH5CHNHCHFeSNC8H14CH5NC6HCH20C2HCH5CNCH2C2H4C2H2CH2CH2CHCH4CH6NCHCH2CSH2NC2H2CH2CSCH2CHSH2CH2C3H3SH2CH2CH2CHC2HCHCH
_chemical_formula_sum              "Fe384 S768 H4608 C2688 N192"
_cell_length_a       67.0126
_cell_length_b       67.1258
_cell_length_c       67.387
_cell_angle_alpha    77.7309
_cell_angle_beta     77.7751
_cell_angle_gamma    77.7073

_space_group_name_H-M_alt    "P 1"
_space_group_IT_number       1

loop_
  _space_group_symop_operation_xyz
  'x, y, z'

loop_
  _atom_site_type_symbol
  _atom_site_label
  _atom_site_symmetry_multiplicity
  _atom_site_fract_x
  _atom_site_fract_y
  _atom_site_fract_z
  _atom_site_occupancy
  Fe  Fe1       1.0  0.28930  0.15486  0.41674  1.0000
  S   S1        1.0  0.25702  0.14843  0.41746  1.0000
  S   S2        1.0  0.30175  0.15269  0.44601  1.0000
  H   H1        1.0  0.07418  0.20380  0.28087  1.0000
  Fe  Fe2       1.0  0.28311  0.02793  0.14951  1.0000
  H   H2        1.0  0.21965  0.05563  0.39246  1.0000
  S   S3        1.0  0.28930  0.02479  0.18192  1.0000
  Fe  Fe3       1.0  0.25919  0.01651  0.12011  1.0000
  S   S4        1.0  0.27883  0.03187  0.09191  1.0000
  H   H3        1.0  0.30528  0.05425  0.05566  1.0000
  H   H4        1.0  0.28635  0.99876  0.23095  1.0000
  Fe  Fe4       1.0  0.27636  0.05753  0.10982  1.0000
  S   S5        1.0  0.27464  0.09141  0.09445  1.0000
  S   S6        1.0  0.28662  0.99984  0.13514  1.0000
  S   S7        1.0  0.25415  0.04370  0.13687  1.0000
  Fe  Fe5       1.0  0.19813  0.12480  0.33849  1.0000
  S   S8        1.0  0.20730  0.09068  0.34824  1.0000
  S   S9        1.0  0.21995  0.14654  0.33831  1.0000
  Fe  Fe6       1.0  0.15750  0.12023  0.32626  1.0000
  S   S10       1.0  0.16381  0.08562  0.33502  1.0000
  S   S11       1.0  0.12821  0.13968  0.31530  1.0000
  Fe  Fe7       1.0  0.17386  0.09151  0.36257  1.0000
  S   S12       1.0  0.16576  0.07321  0.39404  1.0000
  Fe  Fe8       1.0  0.19681  0.08766  0.31977  1.0000
  S   S13       1.0  0.21478  0.06516  0.29887  1.0000
  S   S14       1.0  0.16531  0.12605  0.35531  1.0000
  S   S15       1.0  0.18986  0.12199  0.30856  1.0000
  H   H5        1.0  0.24490  0.99402  0.20077  1.0000
  S   S16       1.0  0.01120  0.13749  0.31134  1.0000
  S   S17       1.0  0.12417  0.13816  0.46399  1.0000
  H   H6        1.0  0.20440  0.99832  0.35103  1.0000
  C   C1        1.0  0.20099  0.16880  0.43724  1.0000
  H   H7        1.0  0.30518  0.03030  0.21662  1.0000
  C   C2        1.0  0.12224  0.00418  0.09759  1.0000
  Fe  Fe9       1.0  0.02737  0.12358  0.28350  1.0000
  S   S18       1.0  0.06001  0.10525  0.28499  1.0000
  H   H8        1.0  0.15091  0.02579  0.06603  1.0000
  S   S19       1.0  0.01904  0.15211  0.26009  1.0000
  C   C3        1.0  0.24423  0.02989  0.29773  1.0000
  C   C4        1.0  0.24539  0.05060  0.32260  1.0000
  C   C5        1.0  0.23620  0.04743  0.30702  1.0000
  H   H9        1.0  0.23985  0.06433  0.32938  1.0000
  C   C6        1.0  0.11019  0.12991  0.30563  1.0000
  C   C7        1.0  0.09312  0.14371  0.29863  1.0000
  C   C8        1.0  0.07776  0.13645  0.29205  1.0000
  C   C9        1.0  0.07946  0.11527  0.29213  1.0000
  C   C10       1.0  0.09680  0.10154  0.29866  1.0000
  C   C11       1.0  0.11200  0.10878  0.30553  1.0000
  H   H10       1.0  0.09166  0.16011  0.29843  1.0000
  H   H11       1.0  0.06459  0.14722  0.28695  1.0000
  H   H12       1.0  0.09829  0.08516  0.29872  1.0000
  H   H13       1.0  0.12504  0.09797  0.31081  1.0000
  H   H14       1.0  0.01659  0.15912  0.39199  1.0000
  H   H15       1.0  0.15766  0.00078  0.39503  1.0000
  C   C12       1.0  0.18503  0.18566  0.42685  1.0000
  H   H16       1.0  0.03822  0.14167  0.40092  1.0000
  H   H17       1.0  0.21247  0.17716  0.44009  1.0000
  H   H18       1.0  0.10317  0.18217  0.35329  1.0000
  Fe  Fe10      1.0  0.00207  0.16544  0.28828  1.0000
  H   H19       1.0  0.16497  0.22014  0.31873  1.0000
  C   C13       1.0  0.29163  0.10643  0.09886  1.0000
  H   H20       1.0  0.05929  0.18784  0.46023  1.0000
  H   H21       1.0  0.17228  0.99674  0.37044  1.0000
  N   N1        1.0  0.13576  0.98691  0.08723  1.0000
  C   C14       1.0  0.05968  0.21627  0.42465  1.0000
  H   H22       1.0  0.08507  0.09193  0.35797  1.0000
  H   H23       1.0  0.27049  0.11381  0.35098  1.0000
  H   H24       1.0  0.14868  0.21761  0.29019  1.0000
  H   H25       1.0  0.05084  0.22917  0.45333  1.0000
  C   C15       1.0  0.13883  0.22207  0.30452  1.0000
  C   C16       1.0  0.21581  0.03991  0.39458  1.0000
  H   H26       1.0  0.23678  0.00861  0.07795  1.0000
  C   C17       1.0  0.19083  0.02991  0.34014  1.0000
  C   C18       1.0  0.17724  0.18025  0.29825  1.0000
  H   H27       1.0  0.11438  0.18306  0.32682  1.0000
  H   H28       1.0  0.13139  0.01159  0.12433  1.0000
  C   C19       1.0  0.05956  0.20697  0.29114  1.0000
  H   H29       1.0  0.22662  0.03846  0.36237  1.0000
  H   H30       1.0  0.23733  0.02743  0.28551  1.0000
  C   C20       1.0  0.11429  0.18952  0.34066  1.0000
  H   H31       1.0  0.21025  0.15964  0.42544  1.0000
  C   C21       1.0  0.30927  0.06220  0.21101  1.0000
  H   H32       1.0  0.23448  0.15837  0.45976  1.0000
  C   C22       1.0  0.02357  0.20269  0.30258  1.0000
  C   C23       1.0  0.04281  0.19787  0.29006  1.0000
  H   H33       1.0  0.31850  0.07251  0.08200  1.0000
  H   H34       1.0  0.11773  0.09183  0.45539  1.0000
  H   H35       1.0  0.04449  0.18800  0.27881  1.0000
  H   H36       1.0  0.02280  0.17005  0.45271  1.0000
  C   C24       1.0  0.10705  0.10875  0.42753  1.0000
  C   C25       1.0  0.12083  0.09439  0.43873  1.0000
  C   C26       1.0  0.13866  0.08318  0.42841  1.0000
  C   C27       1.0  0.14295  0.08659  0.40686  1.0000
  C   C28       1.0  0.12923  0.10103  0.39562  1.0000
  C   C29       1.0  0.11128  0.11210  0.40596  1.0000
  H   H37       1.0  0.14930  0.07216  0.43716  1.0000
  H   H38       1.0  0.13239  0.10358  0.37897  1.0000
  H   H39       1.0  0.10097  0.12356  0.39728  1.0000
  H   H40       1.0  0.19404  0.17914  0.47331  1.0000
  C   C30       1.0  0.31304  0.04065  0.36319  1.0000
  H   H41       1.0  0.22335  0.09090  0.25643  1.0000
  C   C31       1.0  0.11940  0.22063  0.40486  1.0000
  C   C32       1.0  0.29614  0.04663  0.18780  1.0000
  C   C33       1.0  0.29404  0.06571  0.17448  1.0000
  H   H42       1.0  0.24962  0.01040  0.37388  1.0000
  H   H43       1.0  0.28797  0.06727  0.16047  1.0000
  H   H44       1.0  0.20034  0.04975  0.36863  1.0000
  H   H45       1.0  0.24626  0.99314  0.35804  1.0000
  H   H46       1.0  0.07594  0.21378  0.42716  1.0000
  C   C34       1.0  0.24845  0.14637  0.39489  1.0000
  C   C35       1.0  0.23249  0.13510  0.39677  1.0000
  C   C36       1.0  0.22398  0.13459  0.37951  1.0000
  C   C37       1.0  0.23125  0.14555  0.36014  1.0000
  C   C38       1.0  0.24762  0.15632  0.35811  1.0000
  C   C39       1.0  0.25632  0.15659  0.37536  1.0000
  H   H47       1.0  0.22666  0.12673  0.41170  1.0000
  H   H48       1.0  0.21150  0.12609  0.38129  1.0000
  H   H49       1.0  0.25350  0.16468  0.34316  1.0000
  H   H50       1.0  0.26864  0.16528  0.37364  1.0000
  S   S20       1.0  0.30260  0.18358  0.40140  1.0000
  H   H51       1.0  0.16672  0.21210  0.35722  1.0000
  H   H52       1.0  0.17605  0.17440  0.28438  1.0000
  C   C40       1.0  0.08094  0.18421  0.39972  1.0000
  C   C41       1.0  0.15950  0.01072  0.06203  1.0000
  H   H53       1.0  0.16253  0.15488  0.45008  1.0000
  H   H54       1.0  0.21847  0.99812  0.40044  1.0000
  H   H55       1.0  0.18011  0.19638  0.29337  1.0000
  H   H56       1.0  0.17020  0.18073  0.42740  1.0000
  H   H57       1.0  0.30703  0.09989  0.33404  1.0000
  C   C42       1.0  0.18405  0.01669  0.38607  1.0000
  H   H58       1.0  0.30292  0.06957  0.28775  1.0000
  C   C43       1.0  0.03678  0.16926  0.45935  1.0000
  H   H59       1.0  0.24990  0.10079  0.35240  1.0000
  H   H60       1.0  0.15787  0.18845  0.46135  1.0000
  H   H61       1.0  0.19287  0.04599  0.33937  1.0000
  H   H62       1.0  0.30527  0.22712  0.36585  1.0000
  H   H63       1.0  0.29713  0.09781  0.16929  1.0000
  H   H64       1.0  0.13891  0.16812  0.35374  1.0000
  C   C44       1.0  0.17191  0.19509  0.36012  1.0000
  H   H65       1.0  0.29581  0.17981  0.17305  1.0000
  H   H66       1.0  0.19088  0.17039  0.30444  1.0000
  H   H67       1.0  0.21568  0.98332  0.38273  1.0000
  H   H68       1.0  0.03234  0.18104  0.41748  1.0000
  C   C45       1.0  0.30369  0.04495  0.20613  1.0000
  S   S21       1.0  0.10785  0.19525  0.47426  1.0000
  H   H69       1.0  0.18660  0.18968  0.33005  1.0000
  H   H70       1.0  0.17350  0.03117  0.38067  1.0000
  S   S22       1.0  0.28997  0.00000  0.33014  1.0000
  C   C46       1.0  0.18329  0.13048  0.43685  1.0000
  H   H71       1.0  0.28355  0.13193  0.07482  1.0000
  H   H72       1.0  0.18383  0.01708  0.40254  1.0000
  H   H73       1.0  0.15790  0.16186  0.32102  1.0000
  H   H74       1.0  0.17649  0.16817  0.34603  1.0000
  C   C47       1.0  0.30748  0.05908  0.37492  1.0000
  C   C48       1.0  0.11242  0.20486  0.44752  1.0000
  H   H75       1.0  0.22899  0.02873  0.40022  1.0000
  C   C49       1.0  0.30345  0.18300  0.15670  1.0000
  N   N2        1.0  0.05626  0.13141  0.36011  1.0000
  C   C50       1.0  0.03464  0.14062  0.36934  1.0000
  C   C51       1.0  0.05508  0.12217  0.34198  1.0000
  C   C52       1.0  0.06990  0.14770  0.35265  1.0000
  C   C53       1.0  0.06557  0.11507  0.37633  1.0000
  C   C54       1.0  0.03310  0.15229  0.38719  1.0000
  C   C55       1.0  0.04305  0.10400  0.34679  1.0000
  C   C56       1.0  0.06095  0.16760  0.33871  1.0000
  C   C57       1.0  0.08653  0.10180  0.36867  1.0000
  H   H76       1.0  0.02650  0.15126  0.35727  1.0000
  H   H77       1.0  0.02502  0.12834  0.37570  1.0000
  H   H78       1.0  0.07086  0.11671  0.33381  1.0000
  H   H79       1.0  0.04763  0.13405  0.33032  1.0000
  H   H80       1.0  0.07420  0.15244  0.36582  1.0000
  H   H81       1.0  0.08495  0.14133  0.34362  1.0000
  H   H82       1.0  0.06826  0.12222  0.38877  1.0000
  H   H83       1.0  0.05463  0.10431  0.38424  1.0000
  H   H84       1.0  0.04194  0.16520  0.38267  1.0000
  H   H85       1.0  0.31502  0.06078  0.22518  1.0000
  H   H86       1.0  0.14979  0.01687  0.10090  1.0000
  H   H87       1.0  0.04943  0.09081  0.35796  1.0000
  H   H88       1.0  0.02625  0.10900  0.35220  1.0000
  H   H89       1.0  0.04435  0.09806  0.33228  1.0000
  H   H90       1.0  0.07290  0.17769  0.33324  1.0000
  H   H91       1.0  0.04718  0.17679  0.34697  1.0000
  H   H92       1.0  0.07035  0.18564  0.38871  1.0000
  H   H93       1.0  0.10803  0.20637  0.33834  1.0000
  H   H94       1.0  0.16194  0.18791  0.37392  1.0000
  H   H95       1.0  0.09860  0.11134  0.36115  1.0000
  H   H96       1.0  0.18774  0.19208  0.36397  1.0000
  H   H97       1.0  0.29596  0.05472  0.38888  1.0000
  C   C58       1.0  0.17369  0.99822  0.38612  1.0000
  C   C59       1.0  0.15718  0.17857  0.31429  1.0000
  H   H98       1.0  0.20523  0.12612  0.47523  1.0000
  H   H99       1.0  0.30921  0.15219  0.07870  1.0000
  H   H100      1.0  0.20169  0.03953  0.40658  1.0000
  H   H101      1.0  0.99512  0.22164  0.23835  1.0000
  S   S23       1.0  0.00100  0.19586  0.29830  1.0000
  H   H102      1.0  0.31039  0.17378  0.20803  1.0000
  H   H103      1.0  0.11322  0.01533  0.08654  1.0000
  C   C60       1.0  0.26099  0.01530  0.30442  1.0000
  H   H104      1.0  0.06002  0.22335  0.40810  1.0000
  H   H105      1.0  0.03403  0.20149  0.45939  1.0000
  H   H106      1.0  0.08811  0.19827  0.39648  1.0000
  N   N3        1.0  0.29933  0.07984  0.36295  1.0000
  H   H107      1.0  0.01266  0.22609  0.41620  1.0000
  H   H108      1.0  0.09226  0.09112  0.38210  1.0000
  H   H109      1.0  0.23345  0.98767  0.17338  1.0000
  C   C61       1.0  0.21088  0.13864  0.46295  1.0000
  H   H110      1.0  0.30696  0.19891  0.15246  1.0000
  H   H111      1.0  0.06358  0.20322  0.03464  1.0000
  S   S24       1.0  0.31835  0.20701  0.44482  1.0000
  H   H112      1.0  0.29821  0.13707  0.33013  1.0000
  H   H113      1.0  0.19130  0.18944  0.41012  1.0000
  C   C62       1.0  0.05727  0.22061  0.30497  1.0000
  C   C63       1.0  0.31988  0.14887  0.34211  1.0000
  N   N4        1.0  0.15363  0.19115  0.33118  1.0000
  S   S25       1.0  0.30461  0.04306  0.12364  1.0000
  S   S26       1.0  0.31621  0.13281  0.40312  1.0000
  C   C64       1.0  0.30690  0.08135  0.19775  1.0000
  S   S27       1.0  0.99983  0.10966  0.28181  1.0000
  C   C65       1.0  0.12563  0.19955  0.41222  1.0000
  C   C66       1.0  0.31865  0.11036  0.11611  1.0000
  C   C67       1.0  0.26195  0.03597  0.32940  1.0000
  C   C68       1.0  0.15003  0.21423  0.32331  1.0000
  H   H114      1.0  0.06500  0.16442  0.42420  1.0000
  S   S28       1.0  0.23573  0.99507  0.12275  1.0000
  C   C69       1.0  0.28112  0.09645  0.39482  1.0000
  C   C70       1.0  0.29328  0.12591  0.08644  1.0000
  C   C71       1.0  0.17667  0.14398  0.45380  1.0000
  H   H115      1.0  0.22162  0.99635  0.05303  1.0000
  C   C72       1.0  0.26693  0.09974  0.34746  1.0000
  H   H116      1.0  0.17454  0.02838  0.34688  1.0000
  H   H117      1.0  0.12535  0.03326  0.10514  1.0000
  Fe  Fe11      1.0  0.31800  0.17939  0.42937  1.0000
  H   H118      1.0  0.17276  0.00492  0.07033  1.0000
  S   S29       1.0  0.12476  0.23005  0.37821  1.0000
  N   N5        1.0  0.26289  0.09897  0.26186  1.0000
  C   C73       1.0  0.25737  0.08124  0.25475  1.0000
  C   C74       1.0  0.28426  0.09176  0.26738  1.0000
  C   C75       1.0  0.26299  0.11711  0.24413  1.0000
  C   C76       1.0  0.24681  0.10429  0.28018  1.0000
  C   C77       1.0  0.23741  0.08616  0.24528  1.0000
  C   C78       1.0  0.28664  0.07304  0.28511  1.0000
  C   C79       1.0  0.27740  0.13259  0.24313  1.0000
  C   C80       1.0  0.25013  0.12138  0.29052  1.0000
  H   H119      1.0  0.27024  0.07501  0.24298  1.0000
  H   H120      1.0  0.25524  0.06810  0.26771  1.0000
  H   H121      1.0  0.28995  0.10422  0.27191  1.0000
  H   H122      1.0  0.29553  0.08761  0.25353  1.0000
  H   H123      1.0  0.26812  0.11155  0.22906  1.0000
  H   H124      1.0  0.24702  0.12610  0.24373  1.0000
  H   H125      1.0  0.23114  0.10936  0.27595  1.0000
  H   H126      1.0  0.24564  0.09034  0.29232  1.0000
  H   H127      1.0  0.23833  0.09803  0.23105  1.0000
  C   C81       1.0  0.30413  0.09896  0.11397  1.0000
  C   C82       1.0  0.14491  0.99498  0.06526  1.0000
  H   H128      1.0  0.26865  0.99170  0.18310  1.0000
  H   H129      1.0  0.27684  0.07641  0.29987  1.0000
  C   C83       1.0  0.22002  0.98861  0.06895  1.0000
  H   H130      1.0  0.29381  0.12548  0.23860  1.0000
  H   H131      1.0  0.27585  0.13827  0.25770  1.0000
  H   H132      1.0  0.27398  0.14623  0.23097  1.0000
  H   H133      1.0  0.26558  0.11827  0.29511  1.0000
  H   H134      1.0  0.23846  0.12222  0.30485  1.0000
  H   H135      1.0  0.24763  0.13676  0.28053  1.0000
  C   C84       1.0  0.21226  0.03648  0.37374  1.0000
  Fe  Fe12      1.0  0.30558  0.01663  0.10807  1.0000
  C   C85       1.0  0.01370  0.20994  0.42470  1.0000
  C   C86       1.0  0.29832  0.09624  0.37558  1.0000
  H   H136      1.0  0.22210  0.01573  0.34251  1.0000
  C   C87       1.0  0.04578  0.18948  0.45240  1.0000
  N   N6        1.0  0.19290  0.15504  0.45678  1.0000
  H   H137      1.0  0.19354  0.02728  0.32397  1.0000
  H   H138      1.0  0.30290  0.08123  0.05400  1.0000
  S   S30       1.0  0.08502  0.12305  0.44052  1.0000
  C   C88       1.0  0.20653  0.01410  0.35186  1.0000
  H   H139      1.0  0.11850  0.21847  0.01549  1.0000
  H   H140      1.0  0.00124  0.20318  0.42141  1.0000
  C   C89       1.0  0.17275  0.18527  0.34117  1.0000
  C   C90       1.0  0.03840  0.22444  0.31833  1.0000
  H   H141      1.0  0.23522  0.07184  0.24084  1.0000
  H   H142      1.0  0.30872  0.15308  0.35536  1.0000
  N   N7        1.0  0.20572  0.01632  0.37384  1.0000
  H   H143      1.0  0.26768  0.07376  0.37312  1.0000
  H   H144      1.0  0.09377  0.17109  0.39669  1.0000
  C   C91       1.0  0.29919  0.08302  0.17954  1.0000
  H   H145      1.0  0.18798  0.13971  0.42147  1.0000
  C   C92       1.0  0.03494  0.19682  0.41772  1.0000
  H   H146      1.0  0.16638  0.01379  0.04539  1.0000
  C   C93       1.0  0.26976  0.01827  0.32041  1.0000
  C   C94       1.0  0.31397  0.13972  0.32780  1.0000
  H   H147      1.0  0.26691  0.00165  0.29741  1.0000
  H   H148      1.0  0.19575  0.11721  0.44051  1.0000
  H   H149      1.0  0.13324  0.19302  0.36069  1.0000
  H   H150      1.0  0.26871  0.03829  0.34175  1.0000
  C   C95       1.0  0.13563  0.18498  0.34737  1.0000
  H   H151      1.0  0.28244  0.08148  0.40562  1.0000
  H   H152      1.0  0.18203  0.19999  0.43356  1.0000
  H   H153      1.0  0.13312  0.18918  0.40153  1.0000
  H   H154      1.0  0.29961  0.03795  0.35758  1.0000
  C   C96       1.0  0.07004  0.17954  0.42239  1.0000
  Fe  Fe13      1.0  0.98986  0.13929  0.26073  1.0000
  H   H155      1.0  0.12684  0.17546  0.43876  1.0000
  H   H156      1.0  0.21937  0.13093  0.44975  1.0000
  C   C97       1.0  0.12193  0.19167  0.43341  1.0000
  H   H157      1.0  0.14404  0.18243  0.30571  1.0000
  H   H158      1.0  0.27084  0.10046  0.33049  1.0000
  H   H159      1.0  0.28254  0.10840  0.40334  1.0000
  H   H160      1.0  0.28357  0.05876  0.28143  1.0000
  H   H161      1.0  0.05693  0.16436  0.32473  1.0000
  H   H162      1.0  0.29185  0.18248  0.14731  1.0000
  C   C98       1.0  0.31329  0.08461  0.34255  1.0000
  C   C99       1.0  0.10654  0.22607  0.44020  1.0000
  H   H163      1.0  0.08226  0.17664  0.43217  1.0000
  C   C100      1.0  0.30782  0.13740  0.08860  1.0000
  H   H164      1.0  0.09991  0.20991  0.05215  1.0000
  H   H165      1.0  0.16982  0.12373  0.43588  1.0000
  H   H166      1.0  0.03958  0.20328  0.40113  1.0000
  H   H167      1.0  0.26254  0.00445  0.22129  1.0000
  H   H168      1.0  0.31322  0.09444  0.38116  1.0000
  H   H169      1.0  0.12390  0.21673  0.30667  1.0000
  H   H170      1.0  0.04842  0.15550  0.45574  1.0000
  C   C101      1.0  0.27822  0.07932  0.35880  1.0000
  H   H171      1.0  0.00983  0.21017  0.44141  1.0000
  H   H172      1.0  0.26545  0.10075  0.39062  1.0000
  N   N8        1.0  0.05208  0.19585  0.42943  1.0000
  C   C102      1.0  0.27342  0.99180  0.22896  1.0000
  C   C103      1.0  0.13322  0.01681  0.10736  1.0000
  Fe  Fe14      1.0  0.09412  0.12698  0.46943  1.0000
  C   C104      1.0  0.02159  0.21562  0.31700  1.0000
  H   H173      1.0  0.06420  0.21658  0.06251  1.0000
  C   C105      1.0  0.24325  0.99645  0.37396  1.0000
  H   H174      1.0  0.14104  0.22269  0.33583  1.0000
  H   H175      1.0  0.09139  0.19889  0.02558  1.0000
  H   H176      1.0  0.27943  0.06769  0.34889  1.0000
  C   C106      1.0  0.22002  0.99815  0.38366  1.0000
  C   C107      1.0  0.31452  0.06675  0.05319  1.0000
  H   H177      1.0  0.31834  0.19299  0.18695  1.0000
  S   S31       1.0  0.31209  0.10381  0.20394  1.0000
  H   H178      1.0  0.11048  0.99781  0.11034  1.0000
  C   C108      1.0  0.22868  0.99561  0.08307  1.0000
  H   H179      1.0  0.13253  0.00300  0.05621  1.0000
  C   C109      1.0  0.22635  0.98612  0.10384  1.0000
  H   H180      1.0  0.29660  0.11206  0.36612  1.0000
  S   S32       1.0  0.32058  0.12073  0.29403  1.0000
  H   H181      1.0  0.32154  0.05971  0.38094  1.0000
  C   C110      1.0  0.18439  0.16728  0.47409  1.0000
  H   H182      1.0  0.09557  0.99419  0.07689  1.0000
  H   H183      1.0  0.30252  0.08451  0.12422  1.0000
  H   H184      1.0  0.00674  0.21945  0.32663  1.0000
  H   H185      1.0  0.26579  0.98559  0.24470  1.0000
  C   C111      1.0  0.22747  0.14608  0.47104  1.0000
  C   C112      1.0  0.07637  0.20862  0.02270  1.0000
  H   H186      1.0  0.17129  0.13385  0.46849  1.0000
  H   H187      1.0  0.24029  0.13281  0.47376  1.0000
  H   H188      1.0  0.31654  0.15148  0.15613  1.0000
  H   H189      1.0  0.25231  0.98322  0.38312  1.0000
  H   H190      1.0  0.07389  0.20600  0.00771  1.0000
  H   H191      1.0  0.31818  0.02630  0.37388  1.0000
  H   H192      1.0  0.31351  0.07360  0.33224  1.0000
  H   H193      1.0  0.30792  0.10939  0.47326  1.0000
  H   H194      1.0  0.13402  0.21785  0.03414  1.0000
  C   C113      1.0  0.32074  0.12950  0.10332  1.0000
  H   H195      1.0  0.31850  0.22808  0.39616  1.0000
  C   C114      1.0  0.10100  0.22638  0.04544  1.0000
  C   C115      1.0  0.11994  0.22638  0.02785  1.0000
  H   H196      1.0  0.16394  0.98510  0.09950  1.0000
  H   H197      1.0  0.18188  0.98343  0.39387  1.0000
  H   H198      1.0  0.01851  0.23262  0.26840  1.0000
  C   C116      1.0  0.07623  0.23192  0.02111  1.0000
  Fe  Fe15      1.0  0.08620  0.12828  0.51540  1.0000
  S   S33       1.0  0.11531  0.14062  0.51344  1.0000
  S   S34       1.0  0.06340  0.11970  0.54425  1.0000
  C   C117      1.0  0.31561  0.09352  0.47682  1.0000
  H   H199      1.0  0.00732  0.02021  0.87522  1.0000
  Fe  Fe16      1.0  0.12982  0.11678  0.49329  1.0000
  S   S35       1.0  0.16018  0.09483  0.49439  1.0000
  H   H200      1.0  0.08791  0.06469  0.53206  1.0000
  H   H201      1.0  0.22132  0.15133  0.48605  1.0000
  S   S36       1.0  0.10121  0.10316  0.49694  1.0000
  H   H202      1.0  0.15232  0.11128  0.55566  1.0000
  Fe  Fe17      1.0  0.07861  0.06866  0.65290  1.0000
  S   S37       1.0  0.04387  0.07487  0.65749  1.0000
  S   S38       1.0  0.09922  0.08640  0.62731  1.0000
  Fe  Fe18      1.0  0.07919  0.03170  0.68806  1.0000
  S   S39       1.0  0.04456  0.03489  0.69532  1.0000
  S   S40       1.0  0.09723  0.00421  0.70574  1.0000
  Fe  Fe19      1.0  0.04706  0.04038  0.66090  1.0000
  S   S41       1.0  0.02949  0.02536  0.64490  1.0000
  Fe  Fe20      1.0  0.04502  0.06885  0.69144  1.0000
  S   S42       1.0  0.08172  0.03464  0.65403  1.0000
  S   S43       1.0  0.07980  0.06520  0.68663  1.0000
  Fe  Fe21      1.0  0.02977  0.19221  0.88608  1.0000
  S   S44       1.0  0.05634  0.17887  0.86374  1.0000
  H   H203      1.0  0.09747  0.98661  0.74827  1.0000
  Fe  Fe22      1.0  0.05794  0.20638  0.90954  1.0000
  S   S45       1.0  0.08660  0.19263  0.88940  1.0000
  H   H204      1.0  0.03667  0.04010  0.80734  1.0000
  Fe  Fe23      1.0  0.06955  0.20705  0.86306  1.0000
  H   H205      1.0  0.01553  0.10247  0.84458  1.0000
  Fe  Fe24      1.0  0.07077  0.16542  0.89184  1.0000
  S   S46       1.0  0.08793  0.13209  0.89518  1.0000
  H   H206      1.0  0.00664  0.11819  0.88168  1.0000
  S   S47       1.0  0.04333  0.17769  0.91463  1.0000
  Fe  Fe25      1.0  0.11672  0.01849  0.80470  1.0000
  S   S48       1.0  0.08247  0.03004  0.81025  1.0000
  S   S49       1.0  0.13437  0.02903  0.77335  1.0000
  H   H207      1.0  0.06666  0.98602  0.69745  1.0000
  H   H208      1.0  0.13218  0.03354  0.55464  1.0000
  H   H209      1.0  0.09185  0.03546  0.52042  1.0000
  H   H210      1.0  0.02403  0.05098  0.73813  1.0000
  Fe  Fe26      1.0  0.08818  0.03822  0.83899  1.0000
  S   S50       1.0  0.06920  0.06933  0.84508  1.0000
  C   C118      1.0  0.99971  0.22793  0.83000  1.0000
  S   S51       1.0  0.12275  0.02851  0.83231  1.0000
  Fe  Fe27      1.0  0.27980  0.07825  0.57924  1.0000
  Fe  Fe28      1.0  0.24521  0.08915  0.55309  1.0000
  S   S52       1.0  0.24838  0.05665  0.54783  1.0000
  S   S53       1.0  0.22180  0.11652  0.54211  1.0000
  Fe  Fe29      1.0  0.25005  0.04743  0.58144  1.0000
  Fe  Fe30      1.0  0.28256  0.05627  0.54362  1.0000
  S   S54       1.0  0.24507  0.08027  0.58705  1.0000
  S   S55       1.0  0.27919  0.08965  0.54558  1.0000
  C   C119      1.0  0.01534  0.19817  0.79532  1.0000
  H   H211      1.0  0.00978  0.03955  0.81506  1.0000
  H   H212      1.0  0.05202  0.07448  0.54632  1.0000
  C   C120      1.0  0.01244  0.06244  0.74525  1.0000
  C   C121      1.0  0.99648  0.13303  0.87928  1.0000
  H   H213      1.0  0.15392  0.00100  0.63731  1.0000
  S   S56       1.0  0.04162  0.22193  0.88272  1.0000
  C   C122      1.0  0.30642  0.07977  0.49332  1.0000
  H   H214      1.0  0.14449  0.12454  0.57706  1.0000
  C   C123      1.0  0.08280  0.11476  0.88102  1.0000
  C   C124      1.0  0.06564  0.11967  0.87101  1.0000
  C   C125      1.0  0.06178  0.10558  0.86010  1.0000
  C   C126      1.0  0.07505  0.08644  0.85895  1.0000
  C   C127      1.0  0.09223  0.08144  0.86894  1.0000
  C   C128      1.0  0.09602  0.09553  0.87999  1.0000
  H   H215      1.0  0.05518  0.13423  0.87189  1.0000
  H   H216      1.0  0.04840  0.10960  0.85254  1.0000
  H   H217      1.0  0.10256  0.06675  0.86821  1.0000
  H   H218      1.0  0.10929  0.09155  0.88772  1.0000
  S   S57       1.0  0.11406  0.98574  0.82008  1.0000
  H   H219      1.0  0.03196  0.16671  0.47640  1.0000
  H   H220      1.0  0.00950  0.98390  0.78637  1.0000
  H   H221      1.0  0.01779  0.14977  0.88599  1.0000
  H   H222      1.0  0.13114  0.99767  0.67315  1.0000
  C   C129      1.0  0.10725  0.01138  0.72452  1.0000
  C   C130      1.0  0.10556  0.99964  0.74440  1.0000
  C   C131      1.0  0.11388  0.00506  0.75949  1.0000
  C   C132      1.0  0.12461  0.02170  0.75444  1.0000
  C   C133      1.0  0.12680  0.03308  0.73436  1.0000
  C   C134      1.0  0.11781  0.02813  0.71946  1.0000
  C   C135      1.0  0.28845  0.12390  0.64447  1.0000
  C   C136      1.0  0.14184  0.98397  0.66792  1.0000
  H   H223      1.0  0.13499  0.04602  0.73051  1.0000
  H   H224      1.0  0.11926  0.03709  0.70402  1.0000
  H   H225      1.0  0.04126  0.04469  0.84025  1.0000
  C   C137      1.0  0.04504  0.01164  0.62593  1.0000
  C   C138      1.0  0.06507  0.00129  0.62818  1.0000
  H   H226      1.0  0.23732  0.01320  0.56112  1.0000
  H   H227      1.0  0.30510  0.15560  0.64991  1.0000
  H   H228      1.0  0.10859  0.01079  0.55932  1.0000
  H   H229      1.0  0.99649  0.22802  0.94668  1.0000
  H   H230      1.0  0.07132  0.00216  0.64127  1.0000
  S   S58       1.0  0.29733  0.09744  0.59160  1.0000
  H   H231      1.0  0.19538  0.00298  0.61843  1.0000
  H   H232      1.0  0.02928  0.04565  0.89356  1.0000
  H   H233      1.0  0.05752  0.04686  0.54988  1.0000
  H   H234      1.0  0.02868  0.06867  0.86406  1.0000
  C   C139      1.0  0.07260  0.11209  0.56785  1.0000
  C   C140      1.0  0.09085  0.11749  0.57029  1.0000
  C   C141      1.0  0.09826  0.11039  0.58902  1.0000
  C   C142      1.0  0.08812  0.09706  0.60500  1.0000
  C   C143      1.0  0.06976  0.09181  0.60261  1.0000
  C   C144      1.0  0.06184  0.09962  0.58423  1.0000
  H   H235      1.0  0.09898  0.12751  0.55796  1.0000
  H   H236      1.0  0.11172  0.11543  0.59124  1.0000
  H   H237      1.0  0.06177  0.08152  0.61474  1.0000
  H   H238      1.0  0.04758  0.09555  0.58252  1.0000
  C   C145      1.0  0.17795  0.10193  0.50609  1.0000
  C   C146      1.0  0.19707  0.08888  0.50759  1.0000
  C   C147      1.0  0.21099  0.09363  0.51803  1.0000
  C   C148      1.0  0.20581  0.11143  0.52698  1.0000
  C   C149      1.0  0.18714  0.12499  0.52458  1.0000
  C   C150      1.0  0.17318  0.12021  0.51421  1.0000
  H   H239      1.0  0.20100  0.07491  0.50096  1.0000
  H   H240      1.0  0.22569  0.08349  0.51914  1.0000
  H   H241      1.0  0.18318  0.13891  0.53130  1.0000
  H   H242      1.0  0.15865  0.13054  0.51278  1.0000
  H   H243      1.0  0.17411  0.05512  0.62639  1.0000
  H   H244      1.0  0.18792  0.99149  0.67830  1.0000
  N   N9        1.0  0.06483  0.08838  0.76263  1.0000
  C   C151      1.0  0.07151  0.08388  0.78340  1.0000
  C   C152      1.0  0.05778  0.06943  0.75976  1.0000
  C   C153      1.0  0.04709  0.10640  0.76120  1.0000
  C   C154      1.0  0.08292  0.09368  0.74621  1.0000
  C   C155      1.0  0.07683  0.10230  0.79039  1.0000
  C   C156      1.0  0.07504  0.05114  0.75477  1.0000
  C   C157      1.0  0.02791  0.10454  0.77835  1.0000
  C   C158      1.0  0.07903  0.09841  0.72374  1.0000
  H   H245      1.0  0.05950  0.07747  0.79580  1.0000
  H   H246      1.0  0.08559  0.07161  0.78362  1.0000
  H   H247      1.0  0.04848  0.07322  0.74725  1.0000
  H   H248      1.0  0.04715  0.06338  0.77374  1.0000
  H   H249      1.0  0.05221  0.12119  0.76093  1.0000
  H   H250      1.0  0.04146  0.10860  0.74631  1.0000
  H   H251      1.0  0.08781  0.10776  0.74842  1.0000
  H   H252      1.0  0.09704  0.08152  0.74745  1.0000
  H   H253      1.0  0.09055  0.10796  0.78028  1.0000
  H   H254      1.0  0.06355  0.11526  0.79171  1.0000
  H   H255      1.0  0.08099  0.09701  0.80601  1.0000
  H   H256      1.0  0.06805  0.03729  0.75575  1.0000
  H   H257      1.0  0.08355  0.05457  0.73879  1.0000
  H   H258      1.0  0.08609  0.04703  0.76568  1.0000
  H   H259      1.0  0.03132  0.10470  0.79369  1.0000
  H   H260      1.0  0.02145  0.09052  0.77892  1.0000
  H   H261      1.0  0.01550  0.11805  0.77505  1.0000
  H   H262      1.0  0.07380  0.11527  0.71879  1.0000
  H   H263      1.0  0.06733  0.09021  0.72132  1.0000
  H   H264      1.0  0.09355  0.09317  0.71331  1.0000
  C   C159      1.0  0.99490  0.09792  0.74485  1.0000
  H   H265      1.0  0.99600  0.04149  0.88823  1.0000
  C   C160      1.0  0.02599  0.04081  0.84005  1.0000
  H   H266      1.0  0.10030  0.00825  0.52672  1.0000
  C   C161      1.0  0.02246  0.04654  0.81744  1.0000
  H   H267      1.0  0.06375  0.99190  0.78590  1.0000
  H   H268      1.0  0.14365  0.99164  0.70479  1.0000
  H   H269      1.0  0.05715  0.99086  0.67430  1.0000
  H   H270      1.0  0.20385  0.04975  0.55953  1.0000
  H   H271      1.0  0.02903  0.08427  0.82851  1.0000
  S   S59       1.0  0.99678  0.19284  0.88261  1.0000
  C   C162      1.0  0.99908  0.01097  0.74606  1.0000
  H   H272      1.0  0.28779  0.13909  0.63399  1.0000
  H   H273      1.0  0.15817  0.18839  0.48772  1.0000
  H   H274      1.0  0.12337  0.05705  0.56454  1.0000
  Fe  Fe31      1.0  0.10695  0.16104  0.48408  1.0000
  H   H275      1.0  0.19806  0.08655  0.57202  1.0000
  H   H276      1.0  0.99456  0.16726  0.83100  1.0000
  H   H277      1.0  0.17780  0.08291  0.55013  1.0000
  H   H278      1.0  0.08199  0.01978  0.55823  1.0000
  C   C163      1.0  0.01468  0.08789  0.83974  1.0000
  C   C164      1.0  0.31653  0.05926  0.49816  1.0000
  S   S60       1.0  0.30662  0.04195  0.51962  1.0000
  H   H279      1.0  0.02844  0.02355  0.84370  1.0000
  H   H280      1.0  0.09938  0.21203  0.93521  1.0000
  C   C165      1.0  0.15562  0.11149  0.57107  1.0000
  H   H281      1.0  0.30978  0.09753  0.65572  1.0000
  H   H282      1.0  0.04344  0.99907  0.57991  1.0000
  H   H283      1.0  0.15078  0.16707  0.48108  1.0000
  H   H284      1.0  0.31241  0.19111  0.52183  1.0000
  C   C166      1.0  0.18849  0.05026  0.55562  1.0000
  H   H285      1.0  0.99571  0.22793  0.78931  1.0000
  H   H286      1.0  0.99742  0.99384  0.82047  1.0000
  H   H287      1.0  0.01577  0.22292  0.82221  1.0000
  H   H288      1.0  0.29152  0.08502  0.50221  1.0000
  C   C167      1.0  0.00963  0.08310  0.73524  1.0000
  C   C168      1.0  0.03716  0.01054  0.60861  1.0000
  C   C169      1.0  0.99350  0.99272  0.78964  1.0000
  C   C170      1.0  0.18968  0.08897  0.60407  1.0000
  C   C171      1.0  0.11884  0.23221  0.87284  1.0000
  H   H289      1.0  0.13008  0.99244  0.63917  1.0000
  H   H290      1.0  0.17139  0.11497  0.56942  1.0000
  C   C172      1.0  0.32121  0.14691  0.64673  1.0000
  C   C173      1.0  0.22458  0.00617  0.57056  1.0000
  C   C174      1.0  0.12069  0.04824  0.55334  1.0000
  H   H291      1.0  0.99538  0.00910  0.78537  1.0000
  C   C175      1.0  0.01365  0.07068  0.85886  1.0000
  H   H292      1.0  0.10030  0.02517  0.61134  1.0000
  C   C176      1.0  0.02913  0.03245  0.88608  1.0000
  H   H293      1.0  0.01774  0.18925  0.81068  1.0000
  S   S61       1.0  0.08285  0.00727  0.85754  1.0000
  H   H294      1.0  0.00944  0.21786  0.92334  1.0000
  H   H295      1.0  0.99350  0.16728  0.80420  1.0000
  S   S62       1.0  0.28499  0.04441  0.57702  1.0000
  C   C177      1.0  0.16454  0.05380  0.59749  1.0000
  H   H296      1.0  0.02736  0.20819  0.79012  1.0000
  C   C178      1.0  0.10734  0.02613  0.59478  1.0000
  H   H297      1.0  0.12046  0.07814  0.53235  1.0000
  H   H298      1.0  0.99141  0.02243  0.84380  1.0000
  H   H299      1.0  0.00363  0.04107  0.77289  1.0000
  C   C179      1.0  0.00936  0.03588  0.87657  1.0000
  H   H300      1.0  0.18270  0.03565  0.56294  1.0000
  H   H301      1.0  0.15997  0.01819  0.69206  1.0000
  H   H302      1.0  0.04345  0.03016  0.87451  1.0000
  S   S63       1.0  0.07635  0.15097  0.48804  1.0000
  H   H303      1.0  0.12265  0.05692  0.51912  1.0000
  H   H304      1.0  0.01351  0.00968  0.75222  1.0000
  H   H305      1.0  0.13805  0.08681  0.58355  1.0000
  H   H306      1.0  0.00186  0.07694  0.87137  1.0000
  N   N10       1.0  0.09876  0.04383  0.55869  1.0000
  C   C180      1.0  0.31086  0.11336  0.64680  1.0000
  H   H307      1.0  0.19272  0.10494  0.59768  1.0000
  C   C181      1.0  0.10249  0.02349  0.52907  1.0000
  H   H308      1.0  0.11022  0.01027  0.59135  1.0000
  C   C182      1.0  0.00080  0.05682  0.76488  1.0000
  H   H309      1.0  0.12374  0.22245  0.95271  1.0000
  C   C183      1.0  0.07700  0.98949  0.61358  1.0000
  H   H310      1.0  0.08590  0.07634  0.55357  1.0000
  H   H311      1.0  0.05469  0.06030  0.57133  1.0000
  C   C184      1.0  0.08412  0.06189  0.54914  1.0000
  H   H312      1.0  0.18523  0.15698  0.48930  1.0000
  H   H313      1.0  0.15070  0.04978  0.59361  1.0000
  C   C185      1.0  0.20100  0.00027  0.60283  1.0000
  H   H314      1.0  0.19085  0.05089  0.53869  1.0000
  C   C186      1.0  0.21748  0.00971  0.59080  1.0000
  H   H315      1.0  0.14704  0.06681  0.62511  1.0000
  H   H316      1.0  0.22130  0.99039  0.54697  1.0000
  C   C187      1.0  0.99347  0.21153  0.79466  1.0000
  H   H317      1.0  0.17528  0.08972  0.61560  1.0000
  S   S64       1.0  0.08742  0.22293  0.83396  1.0000
  H   H318      1.0  0.07706  0.03574  0.58688  1.0000
  H   H319      1.0  0.02949  0.01842  0.89829  1.0000
  Fe  Fe32      1.0  0.11709  0.99663  0.84839  1.0000
  C   C188      1.0  0.16304  0.01759  0.67534  1.0000
  C   C189      1.0  0.15256  0.09094  0.58581  1.0000
  C   C190      1.0  0.09217  0.04132  0.58184  1.0000
  H   H320      1.0  0.11886  0.02480  0.52253  1.0000
  Fe  Fe33      1.0  0.08007  0.99826  0.82810  1.0000
  H   H321      1.0  0.99272  0.11395  0.73723  1.0000
  H   H322      1.0  0.12231  0.03140  0.59292  1.0000
  H   H323      1.0  0.28169  0.11395  0.63735  1.0000
  C   C191      1.0  0.19053  0.07729  0.58632  1.0000
  C   C192      1.0  0.17385  0.99585  0.67091  1.0000
  S   S65       1.0  0.05537  0.22868  0.93217  1.0000
  N   N11       1.0  0.17026  0.07307  0.58319  1.0000
  H   H324      1.0  0.14426  0.06034  0.52873  1.0000
  H   H325      1.0  0.27841  0.12568  0.65954  1.0000
  H   H326      1.0  0.17358  0.02881  0.66783  1.0000
  H   H327      1.0  0.00373  0.01260  0.72904  1.0000
  C   C193      1.0  0.09764  0.02394  0.55232  1.0000
  H   H328      1.0  0.01917  0.06341  0.81188  1.0000
  S   S66       1.0  0.02544  0.09134  0.71170  1.0000
  H   H329      1.0  0.02164  0.01847  0.60677  1.0000
  C   C194      1.0  0.17275  0.06946  0.56134  1.0000
  C   C195      1.0  0.00282  0.15091  0.88176  1.0000
  H   H330      1.0  0.08967  0.05652  0.58696  1.0000
  S   S67       1.0  0.22874  0.02568  0.60165  1.0000
  C   C196      1.0  0.15996  0.05430  0.62076  1.0000
  C   C197      1.0  0.21548  0.99317  0.56257  1.0000
  H   H331      1.0  0.20241  0.08116  0.61274  1.0000
  H   H332      1.0  0.15500  0.03956  0.62911  1.0000
  C   C198      1.0  0.12713  0.06154  0.53212  1.0000
  H   H333      1.0  0.20174  0.06258  0.58876  1.0000
  H   H334      1.0  0.14874  0.09440  0.60164  1.0000
  C   C199      1.0  0.19909  0.98364  0.57463  1.0000
  H   H335      1.0  0.17728  0.04036  0.59558  1.0000
  C   C200      1.0  0.04947  0.99952  0.59347  1.0000
  N   N12       1.0  0.00940  0.05034  0.85606  1.0000
  H   H336      1.0  0.15764  0.06820  0.55778  1.0000
  C   C201      1.0  0.06086  0.06043  0.55469  1.0000
  C   C202      1.0  0.09428  0.22512  0.94317  1.0000
  H   H337      1.0  0.32090  0.14405  0.61458  1.0000
  H   H338      1.0  0.99587  0.19628  0.83885  1.0000
  H   H339      1.0  0.31674  0.19946  0.55187  1.0000
  H   H340      1.0  0.00431  0.98622  0.70680  1.0000
  H   H341      1.0  0.14850  0.02319  0.66897  1.0000
  C   C203      1.0  0.01862  0.98329  0.69527  1.0000
  C   C204      1.0  0.14541  0.98805  0.64424  1.0000
  H   H342      1.0  0.17423  0.99607  0.91478  1.0000
  H   H343      1.0  0.01865  0.18702  0.78449  1.0000
  H   H344      1.0  0.00081  0.09115  0.83238  1.0000
  H   H345      1.0  0.31110  0.10704  0.68652  1.0000
  H   H346      1.0  0.09477  0.98832  0.66774  1.0000
  C   C205      1.0  0.19173  0.98743  0.59477  1.0000
  H   H347      1.0  0.11213  0.99627  0.77498  1.0000
  C   C206      1.0  0.99672  0.21670  0.93681  1.0000
  H   H348      1.0  0.10616  0.22713  0.86813  1.0000
  H   H349      1.0  0.00063  0.20105  0.94606  1.0000
  H   H350      1.0  0.02407  0.99830  0.68944  1.0000
  H   H351      1.0  0.31940  0.11079  0.63133  1.0000
  H   H352      1.0  0.31848  0.22598  0.51883  1.0000
  C   C207      1.0  0.31283  0.12323  0.67915  1.0000
  C   C208      1.0  0.06940  0.98890  0.59598  1.0000
  H   H353      1.0  0.31197  0.11700  0.53642  1.0000
  H   H354      1.0  0.12611  0.21904  0.88356  1.0000
  C   C209      1.0  0.10810  0.23111  0.95311  1.0000
  H   H355      1.0  0.29678  0.13228  0.68086  1.0000
  H   H356      1.0  0.17978  0.99785  0.65409  1.0000
  H   H357      1.0  0.00089  0.23056  0.84542  1.0000
  H   H358      1.0  0.31572  0.12959  0.70866  1.0000
  C   C210      1.0  0.98917  0.99139  0.75433  1.0000
  C   C211      1.0  0.98960  0.17008  0.87928  1.0000
  C   C212      1.0  0.16156  0.17837  0.47581  1.0000
  Fe  Fe34      1.0  0.16196  0.45369  0.30857  1.0000
  S   S68       1.0  0.13974  0.44319  0.33698  1.0000
  H   H359      1.0  0.29000  0.26688  0.98622  1.0000
  Fe  Fe35      1.0  0.13610  0.44278  0.28014  1.0000
  S   S69       1.0  0.11181  0.43273  0.30662  1.0000
  S   S70       1.0  0.13013  0.44519  0.24779  1.0000
  Fe  Fe36      1.0  0.11493  0.46025  0.31884  1.0000
  C   C213      1.0  0.02485  0.33748  0.22758  1.0000
  Fe  Fe37      1.0  0.13888  0.41633  0.32185  1.0000
  S   S71       1.0  0.14052  0.38294  0.33875  1.0000
  S   S72       1.0  0.13693  0.47190  0.29107  1.0000
  S   S73       1.0  0.16347  0.42523  0.29468  1.0000
  Fe  Fe38      1.0  0.09840  0.25103  0.36431  1.0000
  S   S74       1.0  0.10321  0.26490  0.33058  1.0000
  H   H360      1.0  0.30571  0.36924  0.00139  1.0000
  Fe  Fe39      1.0  0.05219  0.26546  0.36975  1.0000
  S   S75       1.0  0.05288  0.28019  0.33651  1.0000
  S   S76       1.0  0.02423  0.26438  0.39485  1.0000
  Fe  Fe40      1.0  0.07544  0.25152  0.32985  1.0000
  C   C214      1.0  0.01523  0.36770  0.31292  1.0000
  Fe  Fe41      1.0  0.08050  0.29250  0.34015  1.0000
  S   S77       1.0  0.08156  0.32587  0.32429  1.0000
  H   H361      1.0  0.08291  0.48026  0.17382  1.0000
  S   S78       1.0  0.07805  0.27973  0.37409  1.0000
  Fe  Fe42      1.0  0.10284  0.36965  0.19060  1.0000
  S   S79       1.0  0.06942  0.37791  0.20425  1.0000
  S   S80       1.0  0.12672  0.36679  0.21076  1.0000
  Fe  Fe43      1.0  0.09266  0.36252  0.15024  1.0000
  S   S81       1.0  0.05839  0.37013  0.16117  1.0000
  S   S82       1.0  0.10844  0.35734  0.11787  1.0000
  Fe  Fe44      1.0  0.06608  0.39606  0.17284  1.0000
  S   S83       1.0  0.04586  0.42736  0.16896  1.0000
  Fe  Fe45      1.0  0.06503  0.35121  0.19157  1.0000
  S   S84       1.0  0.04689  0.32714  0.21112  1.0000
  S   S85       1.0  0.10002  0.38998  0.15988  1.0000
  S   S86       1.0  0.09895  0.34140  0.17987  1.0000
  Fe  Fe46      1.0  0.12032  0.28332  0.98950  1.0000
  S   S87       1.0  0.09279  0.30848  0.99431  1.0000
  H   H362      1.0  0.10455  0.40791  0.06136  1.0000
  Fe  Fe47      1.0  0.14893  0.30847  0.00125  1.0000
  S   S88       1.0  0.12326  0.33565  0.00548  1.0000
  S   S89       1.0  0.18129  0.31222  0.00342  1.0000
  Fe  Fe48      1.0  0.10449  0.31129  0.02256  1.0000
  S   S90       1.0  0.08338  0.31361  0.05357  1.0000
  H   H363      1.0  0.09006  0.44487  0.09611  1.0000
  S   S91       1.0  0.13055  0.28413  0.01940  1.0000
  H   H364      1.0  0.32220  0.25045  0.37711  1.0000
  Fe  Fe49      1.0  0.27329  0.33827  0.10640  1.0000
  S   S92       1.0  0.26578  0.37293  0.09817  1.0000
  S   S93       1.0  0.29968  0.31989  0.12266  1.0000
  Fe  Fe50      1.0  0.23787  0.33185  0.08630  1.0000
  S   S94       1.0  0.22862  0.36591  0.07596  1.0000
  S   S95       1.0  0.21912  0.30856  0.08294  1.0000
  Fe  Fe51      1.0  0.26276  0.36644  0.06773  1.0000
  S   S96       1.0  0.27922  0.38213  0.03795  1.0000
  Fe  Fe52      1.0  0.23239  0.36887  0.10741  1.0000
  S   S97       1.0  0.20496  0.38674  0.12576  1.0000
  S   S98       1.0  0.27186  0.33198  0.07531  1.0000
  S   S99       1.0  0.24009  0.33464  0.11839  1.0000
  H   H365      1.0  0.04506  0.37238  0.31858  1.0000
  C   C215      1.0  0.05344  0.40051  0.11141  1.0000
  H   H366      1.0  0.16231  0.45517  0.11235  1.0000
  H   H367      1.0  0.30088  0.25997  0.09560  1.0000
  H   H368      1.0  0.01991  0.33172  0.37884  1.0000
  C   C216      1.0  0.20131  0.41370  0.11835  1.0000
  C   C217      1.0  0.21828  0.42389  0.11125  1.0000
  C   C218      1.0  0.18112  0.42510  0.11922  1.0000
  H   H369      1.0  0.23388  0.41516  0.11084  1.0000
  H   H370      1.0  0.16797  0.41721  0.12466  1.0000
  C   C219      1.0  0.18822  0.31398  0.02688  1.0000
  C   C220      1.0  0.20188  0.32733  0.02654  1.0000
  C   C221      1.0  0.21031  0.32688  0.04413  1.0000
  C   C222      1.0  0.20570  0.31251  0.06202  1.0000
  C   C223      1.0  0.19149  0.29963  0.06262  1.0000
  C   C224      1.0  0.18260  0.30050  0.04520  1.0000
  H   H371      1.0  0.20646  0.33760  0.01237  1.0000
  H   H372      1.0  0.22123  0.33686  0.04347  1.0000
  H   H373      1.0  0.18783  0.28845  0.07639  1.0000
  H   H374      1.0  0.17227  0.28998  0.04561  1.0000
  H   H375      1.0  0.07381  0.43958  0.05851  1.0000
  C   C225      1.0  0.10115  0.34456  0.10072  1.0000
  C   C226      1.0  0.11475  0.34188  0.08212  1.0000
  C   C227      1.0  0.10952  0.33238  0.06765  1.0000
  C   C228      1.0  0.09053  0.32549  0.07159  1.0000
  C   C229      1.0  0.07693  0.32813  0.09023  1.0000
  C   C230      1.0  0.08219  0.33762  0.10476  1.0000
  H   H376      1.0  0.12943  0.34722  0.07878  1.0000
  H   H377      1.0  0.12021  0.33036  0.05346  1.0000
  H   H378      1.0  0.06222  0.32284  0.09343  1.0000
  H   H379      1.0  0.07155  0.33961  0.11899  1.0000
  C   C231      1.0  0.05764  0.44637  0.15127  1.0000
  C   C232      1.0  0.04536  0.46187  0.13948  1.0000
  H   H380      1.0  0.15982  0.41543  0.39100  1.0000
  H   H381      1.0  0.25745  0.44417  0.06222  1.0000
  H   H382      1.0  0.01792  0.30762  0.24226  1.0000
  C   C233      1.0  0.06113  0.27575  0.03102  1.0000
  C   C234      1.0  0.99751  0.28207  0.36768  1.0000
  H   H383      1.0  0.02770  0.36937  0.21581  1.0000
  H   H384      1.0  0.12637  0.43191  0.09719  1.0000
  S   S100      1.0  0.07773  0.23365  0.30435  1.0000
  H   H385      1.0  0.09928  0.23641  0.45102  1.0000
  H   H386      1.0  0.18708  0.41645  0.38524  1.0000
  C   C235      1.0  0.01910  0.35884  0.22704  1.0000
  C   C236      1.0  0.99056  0.35323  0.25547  1.0000
  C   C237      1.0  0.24368  0.28400  0.00483  1.0000
  H   H387      1.0  0.25317  0.43531  0.01270  1.0000
  H   H388      1.0  0.19381  0.47955  0.04185  1.0000
  C   C238      1.0  0.12434  0.36700  0.33435  1.0000
  C   C239      1.0  0.11144  0.37393  0.31952  1.0000
  C   C240      1.0  0.09852  0.36112  0.31663  1.0000
  C   C241      1.0  0.09841  0.34117  0.32841  1.0000
  C   C242      1.0  0.11156  0.33403  0.34300  1.0000
  C   C243      1.0  0.12443  0.34691  0.34596  1.0000
  H   H389      1.0  0.11136  0.38916  0.31023  1.0000
  H   H390      1.0  0.08855  0.36680  0.30520  1.0000
  H   H391      1.0  0.11166  0.31869  0.35216  1.0000
  H   H392      1.0  0.13437  0.34133  0.35742  1.0000
  C   C244      1.0  0.12728  0.42285  0.23944  1.0000
  C   C245      1.0  0.13749  0.40316  0.24712  1.0000
  C   C246      1.0  0.13701  0.38600  0.23840  1.0000
  C   C247      1.0  0.12599  0.38833  0.22226  1.0000
  C   C248      1.0  0.11519  0.40789  0.21506  1.0000
  C   C249      1.0  0.11604  0.42511  0.22347  1.0000
  H   H393      1.0  0.14628  0.40126  0.25935  1.0000
  H   H394      1.0  0.14537  0.37091  0.24407  1.0000
  H   H395      1.0  0.10660  0.40986  0.20266  1.0000
  H   H396      1.0  0.10809  0.44027  0.21744  1.0000
  H   H397      1.0  0.22821  0.45330  0.09914  1.0000
  N   N13       1.0  0.16924  0.46348  0.18062  1.0000
  C   C250      1.0  0.00218  0.36666  0.24115  1.0000
  H   H398      1.0  0.08423  0.39939  0.11580  1.0000
  C   C251      1.0  0.07908  0.44581  0.14814  1.0000
  C   C252      1.0  0.01884  0.34787  0.34736  1.0000
  H   H399      1.0  0.28071  0.29203  0.00499  1.0000
  C   C253      1.0  0.08828  0.46041  0.13274  1.0000
  H   H400      1.0  0.12281  0.24222  0.02098  1.0000
  C   C254      1.0  0.03655  0.25562  0.25091  1.0000
  H   H401      1.0  0.14556  0.43039  0.18541  1.0000
  H   H402      1.0  0.10507  0.25026  0.41333  1.0000
  S   S101      1.0  0.18931  0.47015  0.30709  1.0000
  H   H403      1.0  0.00803  0.28121  0.22969  1.0000
  C   C255      1.0  0.29042  0.36591  0.00227  1.0000
  C   C256      1.0  0.05457  0.47613  0.12384  1.0000
  H   H404      1.0  0.13538  0.23926  0.30186  1.0000
  H   H405      1.0  0.02160  0.23493  0.24145  1.0000
  H   H406      1.0  0.17420  0.42424  0.05721  1.0000
  H   H407      1.0  0.21723  0.41043  0.02591  1.0000
  H   H408      1.0  0.04821  0.27371  0.04413  1.0000
  H   H409      1.0  0.02299  0.31466  0.36110  1.0000
  H   H410      1.0  0.23813  0.40622  0.03929  1.0000
  S   S102      1.0  0.07234  0.23571  0.36278  1.0000
  H   H411      1.0  0.30648  0.36269  0.11474  1.0000
  H   H412      1.0  0.09077  0.37755  0.05956  1.0000
  H   H413      1.0  0.02878  0.46236  0.14194  1.0000
  N   N14       1.0  0.99691  0.25765  0.25434  1.0000
  C   C257      1.0  0.25477  0.36684  0.01964  1.0000
  C   C258      1.0  0.08163  0.26101  0.03467  1.0000
  H   H414      1.0  0.03648  0.23490  0.32907  1.0000
  H   H415      1.0  0.26079  0.24052  0.01784  1.0000
  H   H416      1.0  0.20040  0.38168  0.39475  1.0000
  H   H417      1.0  0.05653  0.27435  0.01658  1.0000
  H   H418      1.0  0.19048  0.46593  0.19967  1.0000
  H   H419      1.0  0.16956  0.43323  0.36928  1.0000
  H   H420      1.0  0.03931  0.26502  0.23525  1.0000
  H   H421      1.0  0.23351  0.28219  0.04511  1.0000
  C   C259      1.0  0.01437  0.32973  0.36508  1.0000
  C   C260      1.0  0.18750  0.41255  0.06197  1.0000
  C   C261      1.0  0.28064  0.25441  0.99126  1.0000
  H   H422      1.0  0.06343  0.29197  0.02928  1.0000
  N   N15       1.0  0.16568  0.34032  0.12882  1.0000
  C   C262      1.0  0.16523  0.35818  0.11084  1.0000
  C   C263      1.0  0.15207  0.34830  0.14741  1.0000
  C   C264      1.0  0.15743  0.32313  0.12352  1.0000
  C   C265      1.0  0.18783  0.33307  0.13190  1.0000
  C   C266      1.0  0.17518  0.35280  0.08934  1.0000
  C   C267      1.0  0.15893  0.36591  0.15432  1.0000
  C   C268      1.0  0.14712  0.30825  0.14158  1.0000
  C   C269      1.0  0.19189  0.31560  0.15028  1.0000
  H   H423      1.0  0.14901  0.36608  0.10985  1.0000
  H   H424      1.0  0.17337  0.37021  0.11291  1.0000
  H   H425      1.0  0.15053  0.33594  0.16115  1.0000
  H   H426      1.0  0.13598  0.35403  0.14447  1.0000
  H   H427      1.0  0.14541  0.32956  0.11365  1.0000
  H   H428      1.0  0.16992  0.31351  0.11403  1.0000
  H   H429      1.0  0.19740  0.32708  0.11813  1.0000
  H   H430      1.0  0.19520  0.34610  0.13281  1.0000
  H   H431      1.0  0.16762  0.34168  0.08482  1.0000
  H   H432      1.0  0.17356  0.36712  0.07758  1.0000
  H   H433      1.0  0.19194  0.34672  0.08835  1.0000
  H   H434      1.0  0.15843  0.38022  0.14255  1.0000
  H   H435      1.0  0.14797  0.37007  0.16825  1.0000
  H   H436      1.0  0.17453  0.36114  0.15868  1.0000
  H   H437      1.0  0.13199  0.31624  0.14901  1.0000
  H   H438      1.0  0.15707  0.30113  0.15326  1.0000
  H   H439      1.0  0.14371  0.29548  0.13542  1.0000
  H   H440      1.0  0.19322  0.30020  0.14605  1.0000
  H   H441      1.0  0.18018  0.31712  0.16437  1.0000
  H   H442      1.0  0.20669  0.31642  0.15478  1.0000
  H   H443      1.0  0.23595  0.45743  0.03479  1.0000
  H   H444      1.0  0.22145  0.45657  0.05995  1.0000
  H   H445      1.0  0.05825  0.38340  0.11340  1.0000
  C   C270      1.0  0.16824  0.44953  0.16611  1.0000
  C   C271      1.0  0.99255  0.27144  0.27028  1.0000
  C   C272      1.0  0.19487  0.45678  0.10500  1.0000
  C   C273      1.0  0.27021  0.25305  0.01410  1.0000
  C   C274      1.0  0.09330  0.40201  0.07493  1.0000
  C   C275      1.0  0.03831  0.36970  0.30589  1.0000
  H   H446      1.0  0.26047  0.42525  0.04633  1.0000
  C   C276      1.0  0.17948  0.43743  0.21310  1.0000
  H   H447      1.0  0.30657  0.31646  0.04534  1.0000
  H   H448      1.0  0.21334  0.27400  0.01307  1.0000
  C   C277      1.0  0.01325  0.32405  0.24188  1.0000
  H   H449      1.0  0.09306  0.26443  0.02036  1.0000
  C   C278      1.0  0.05313  0.45185  0.08399  1.0000
  N   N16       1.0  0.25758  0.27299  0.02016  1.0000
  C   C279      1.0  0.21505  0.44544  0.10471  1.0000
  C   C280      1.0  0.19587  0.48129  0.15231  1.0000
  H   H450      1.0  0.19975  0.44619  0.18446  1.0000
  H   H451      1.0  0.11165  0.41385  0.11379  1.0000
  C   C281      1.0  0.27450  0.37116  0.01847  1.0000
  H   H452      1.0  0.30393  0.29684  0.08993  1.0000
  H   H453      1.0  0.25024  0.41390  0.00262  1.0000
  H   H454      1.0  0.18541  0.35447  0.98346  1.0000
  H   H455      1.0  0.06838  0.42334  0.11789  1.0000
  C   C282      1.0  0.25091  0.35726  0.00474  1.0000
  C   C283      1.0  0.14797  0.46923  0.19304  1.0000
  H   H456      1.0  0.10489  0.45967  0.12998  1.0000
  H   H457      1.0  0.20832  0.45782  0.01778  1.0000
  H   H458      1.0  0.00166  0.32953  0.29712  1.0000
  H   H459      1.0  0.16514  0.43163  0.21368  1.0000
  C   C284      1.0  0.06357  0.23359  0.05771  1.0000
  H   H460      1.0  0.01676  0.31510  0.32933  1.0000
  H   H461      1.0  0.31495  0.23958  0.46777  1.0000
  H   H462      1.0  0.23197  0.43733  0.99908  1.0000
  C   C285      1.0  0.28672  0.35553  0.98771  1.0000
  C   C286      1.0  0.20557  0.42271  0.06349  1.0000
  H   H463      1.0  0.08745  0.26594  0.04686  1.0000
  C   C287      1.0  0.09746  0.43224  0.08727  1.0000
  H   H464      1.0  0.03601  0.34671  0.34421  1.0000
  H   H465      1.0  0.00214  0.28376  0.26554  1.0000
  H   H466      1.0  0.02638  0.31331  0.29311  1.0000
  H   H467      1.0  0.14161  0.45554  0.20208  1.0000
  H   H468      1.0  0.17270  0.41802  0.18446  1.0000
  C   C288      1.0  0.11633  0.42063  0.09738  1.0000
  H   H469      1.0  0.26910  0.25677  0.98098  1.0000
  C   C289      1.0  0.26696  0.35101  0.98917  1.0000
  H   H470      1.0  0.24487  0.42231  0.07175  1.0000
  C   C290      1.0  0.08025  0.39045  0.06645  1.0000
  H   H471      1.0  0.30695  0.28695  0.06683  1.0000
  H   H472      1.0  0.15772  0.45779  0.15507  1.0000
  C   C291      1.0  0.24146  0.42714  0.01015  1.0000
  H   H473      1.0  0.00052  0.26184  0.22086  1.0000
  N   N17       1.0  0.19676  0.39773  0.35047  1.0000
  C   C292      1.0  0.20013  0.41864  0.33791  1.0000
  C   C293      1.0  0.17613  0.40085  0.36471  1.0000
  C   C294      1.0  0.19566  0.38419  0.33562  1.0000
  C   C295      1.0  0.21469  0.38877  0.36192  1.0000
  C   C296      1.0  0.21945  0.41861  0.32069  1.0000
  C   C297      1.0  0.17324  0.41743  0.37831  1.0000
  C   C298      1.0  0.19198  0.36199  0.34498  1.0000
  C   C299      1.0  0.21035  0.37361  0.38244  1.0000
  H   H474      1.0  0.18641  0.42641  0.33055  1.0000
  H   H475      1.0  0.20176  0.42925  0.34790  1.0000
  H   H476      1.0  0.17292  0.38628  0.37513  1.0000
  H   H477      1.0  0.16325  0.40532  0.35570  1.0000
  H   H478      1.0  0.18318  0.39167  0.32643  1.0000
  H   H479      1.0  0.21025  0.38228  0.32420  1.0000
  H   H480      1.0  0.22790  0.38058  0.35188  1.0000
  H   H481      1.0  0.22099  0.40128  0.36581  1.0000
  H   H482      1.0  0.21671  0.41356  0.30698  1.0000
  H   H483      1.0  0.22255  0.43469  0.31543  1.0000
  C   C300      1.0  0.00099  0.27900  0.38791  1.0000
  H   H484      1.0  0.23389  0.25727  0.04050  1.0000
  H   H485      1.0  0.19954  0.43292  0.07509  1.0000
  H   H486      1.0  0.17916  0.46864  0.35228  1.0000
  H   H487      1.0  0.20603  0.35216  0.35031  1.0000
  H   H488      1.0  0.18881  0.35493  0.33273  1.0000
  H   H489      1.0  0.17827  0.36137  0.35744  1.0000
  H   H490      1.0  0.20916  0.47329  0.16005  1.0000
  H   H491      1.0  0.22527  0.36664  0.38786  1.0000
  H   H492      1.0  0.20320  0.36070  0.38104  1.0000
  N   N18       1.0  0.01096  0.34829  0.32789  1.0000
  C   C301      1.0  0.02185  0.32914  0.31914  1.0000
  H   H493      1.0  0.23380  0.25494  0.00270  1.0000
  S   S103      1.0  0.11970  0.25403  0.97705  1.0000
  C   C302      1.0  0.01828  0.32841  0.29747  1.0000
  H   H494      1.0  0.18181  0.40412  0.07754  1.0000
  H   H495      1.0  0.04800  0.23957  0.05331  1.0000
  H   H496      1.0  0.03887  0.32667  0.31871  1.0000
  H   H497      1.0  0.07824  0.23484  0.08382  1.0000
  C   C303      1.0  0.22791  0.41860  0.03042  1.0000
  C   C304      1.0  0.19823  0.48152  0.32467  1.0000
  C   C305      1.0  0.20034  0.44910  0.03212  1.0000
  H   H498      1.0  0.31886  0.32556  0.07627  1.0000
  H   H499      1.0  0.26590  0.26831  0.06159  1.0000
  C   C306      1.0  0.31945  0.35273  0.12100  1.0000
  H   H500      1.0  0.19240  0.40101  0.05154  1.0000
  N   N19       1.0  0.21599  0.43424  0.04363  1.0000
  H   H501      1.0  0.17140  0.47102  0.03764  1.0000
  H   H502      1.0  0.21693  0.41023  0.07076  1.0000
  H   H503      1.0  0.99802  0.38320  0.24087  1.0000
  H   H504      1.0  0.03491  0.26545  0.26264  1.0000
  C   C307      1.0  0.24424  0.26808  0.04093  1.0000
  H   H505      1.0  0.99042  0.27178  0.30282  1.0000
  Fe  Fe53      1.0  0.11445  0.33011  0.97699  1.0000
  H   H506      1.0  0.03093  0.23627  0.43726  1.0000
  H   H507      1.0  0.18371  0.44532  0.15661  1.0000
  C   C308      1.0  0.06393  0.24183  0.07735  1.0000
  H   H508      1.0  0.08796  0.47351  0.29214  1.0000
  C   C309      1.0  0.22788  0.27173  0.00164  1.0000
  H   H509      1.0  0.04075  0.45967  0.07488  1.0000
  H   H510      1.0  0.32095  0.26345  0.10748  1.0000
  H   H511      1.0  0.23416  0.29839  0.00970  1.0000
  C   C310      1.0  0.24919  0.43358  0.05772  1.0000
  H   H512      1.0  0.24241  0.37086  0.03201  1.0000
  H   H513      1.0  0.28454  0.27832  0.02987  1.0000
  C   C311      1.0  0.25603  0.25814  0.05895  1.0000
  H   H514      1.0  0.23358  0.40900  0.32599  1.0000
  H   H515      1.0  0.01266  0.36261  0.35336  1.0000
  H   H516      1.0  0.19056  0.44090  0.02630  1.0000
  H   H517      1.0  0.12600  0.40848  0.08888  1.0000
  H   H518      1.0  0.08853  0.43418  0.15760  1.0000
  C   C312      1.0  0.18617  0.46594  0.04374  1.0000
  H   H519      1.0  0.04279  0.40425  0.12572  1.0000
  H   H520      1.0  0.05475  0.35097  0.24524  1.0000
  H   H521      1.0  0.01255  0.25460  0.29273  1.0000
  H   H522      1.0  0.26563  0.24289  0.05667  1.0000
  H   H523      1.0  0.03960  0.38337  0.29337  1.0000
  H   H524      1.0  0.29133  0.23962  0.98912  1.0000
  C   C313      1.0  0.27235  0.28686  0.02078  1.0000
  C   C314      1.0  0.26266  0.30667  0.02985  1.0000
  H   H525      1.0  0.05355  0.24787  0.43025  1.0000
  C   C315      1.0  0.17789  0.44660  0.11239  1.0000
  H   H526      1.0  0.22414  0.27720  0.98588  1.0000
  H   H527      1.0  0.27493  0.31593  0.02850  1.0000
  H   H528      1.0  0.25081  0.31656  0.02123  1.0000
  H   H529      1.0  0.25589  0.30331  0.04644  1.0000
  H   H530      1.0  0.09010  0.47567  0.22766  1.0000
  C   C316      1.0  0.23016  0.44647  0.04864  1.0000
  N   N20       1.0  0.09832  0.31730  0.25911  1.0000
  C   C317      1.0  0.11437  0.30259  0.24739  1.0000
  C   C318      1.0  0.08528  0.30459  0.27611  1.0000
  C   C319      1.0  0.10827  0.33031  0.26854  1.0000
  C   C320      1.0  0.08539  0.33163  0.24437  1.0000
  C   C321      1.0  0.13048  0.31248  0.23035  1.0000
  C   C322      1.0  0.06988  0.29441  0.26923  1.0000
  C   C323      1.0  0.12440  0.31825  0.28200  1.0000
  C   C324      1.0  0.06772  0.34747  0.25396  1.0000
  H   H531      1.0  0.12301  0.29052  0.25808  1.0000
  H   H532      1.0  0.10678  0.29391  0.23966  1.0000
  H   H533      1.0  0.07623  0.31386  0.28791  1.0000
  H   H534      1.0  0.09529  0.29183  0.28488  1.0000
  H   H535      1.0  0.11577  0.34190  0.25649  1.0000
  H   H536      1.0  0.09627  0.33983  0.27851  1.0000
  H   H537      1.0  0.09517  0.34108  0.23217  1.0000
  H   H538      1.0  0.07902  0.32299  0.23548  1.0000
  H   H539      1.0  0.14227  0.29997  0.22409  1.0000
  H   H540      1.0  0.12329  0.32191  0.21722  1.0000
  H   H541      1.0  0.13892  0.32200  0.23608  1.0000
  H   H542      1.0  0.06221  0.28454  0.28290  1.0000
  H   H543      1.0  0.05743  0.30611  0.26275  1.0000
  H   H544      1.0  0.07771  0.28417  0.25793  1.0000
  H   H545      1.0  0.13838  0.31029  0.27282  1.0000
  H   H546      1.0  0.11776  0.30696  0.29490  1.0000
  H   H547      1.0  0.12960  0.32940  0.28902  1.0000
  H   H548      1.0  0.07325  0.36207  0.25354  1.0000
  H   H549      1.0  0.06100  0.34163  0.26999  1.0000
  H   H550      1.0  0.15747  0.47750  0.21940  1.0000
  C   C325      1.0  0.04779  0.23314  0.43725  1.0000
  H   H551      1.0  0.10276  0.39004  0.08488  1.0000
  C   C326      1.0  0.07250  0.41107  0.10816  1.0000
  H   H552      1.0  0.07268  0.40046  0.05381  1.0000
  H   H553      1.0  0.02458  0.34067  0.28550  1.0000
  H   H554      1.0  0.06209  0.25895  0.07476  1.0000
  H   H555      1.0  0.10362  0.44013  0.07154  1.0000
  N   N21       1.0  0.08061  0.23822  0.03973  1.0000
  C   C327      1.0  0.06604  0.43330  0.07425  1.0000
  C   C328      1.0  0.19104  0.47804  0.34599  1.0000
  H   H556      1.0  0.06873  0.38327  0.07856  1.0000
  H   H557      1.0  0.04394  0.40565  0.09916  1.0000
  H   H558      1.0  0.31914  0.28231  0.01626  1.0000
  H   H559      1.0  0.00905  0.27503  0.35617  1.0000
  H   H560      1.0  0.04789  0.35610  0.29968  1.0000
  H   H561      1.0  0.05472  0.42482  0.07146  1.0000
  N   N22       1.0  0.08184  0.41935  0.08631  1.0000
  C   C329      1.0  0.16117  0.42867  0.17578  1.0000
  H   H562      1.0  0.08739  0.23683  0.00708  1.0000
  H   H563      1.0  0.17800  0.44364  0.22748  1.0000
  H   H564      1.0  0.06264  0.46364  0.08353  1.0000
  C   C330      1.0  0.18553  0.45371  0.19388  1.0000
  H   H565      1.0  0.18150  0.46048  0.06044  1.0000
  H   H566      1.0  0.23560  0.35400  0.00569  1.0000
  H   H567      1.0  0.19209  0.42368  0.21384  1.0000
  C   C331      1.0  0.99592  0.26048  0.29213  1.0000
  H   H568      1.0  0.24455  0.25550  0.07337  1.0000
  C   C332      1.0  0.07602  0.47528  0.12031  1.0000
  H   H569      1.0  0.04533  0.44699  0.10002  1.0000
  H   H570      1.0  0.00821  0.36946  0.29891  1.0000
  H   H571      1.0  0.06075  0.24003  0.01761  1.0000
  H   H572      1.0  0.16012  0.42081  0.16319  1.0000
  H   H573      1.0  0.31510  0.34067  0.04101  1.0000
  H   H574      1.0  0.00767  0.38169  0.31977  1.0000
  H   H575      1.0  0.99763  0.32907  0.36978  1.0000
  C   C333      1.0  0.31641  0.26451  0.09233  1.0000
  C   C334      1.0  0.31988  0.33135  0.12623  1.0000
  H   H576      1.0  0.13662  0.47678  0.18259  1.0000
  H   H577      1.0  0.19527  0.47349  0.13960  1.0000
  S   S104      1.0  0.31890  0.24379  0.04458  1.0000
  C   C335      1.0  0.31492  0.28675  0.07979  1.0000
  H   H578      1.0  0.28286  0.24696  0.02332  1.0000
  C   C336      1.0  0.32028  0.32360  0.04419  1.0000
  H   H579      1.0  0.05068  0.23752  0.08939  1.0000
  H   H580      1.0  0.05782  0.47914  0.21664  1.0000
  H   H581      1.0  0.10511  0.23274  0.05771  1.0000
  C   C337      1.0  0.99591  0.33188  0.25563  1.0000
  H   H582      1.0  0.25269  0.28985  0.98957  1.0000
  C   C338      1.0  0.01807  0.24423  0.25398  1.0000
  H   H583      1.0  0.05084  0.24387  0.25251  1.0000
  C   C339      1.0  0.99609  0.27112  0.23349  1.0000
  C   C340      1.0  0.10972  0.23391  0.41888  1.0000
  C   C341      1.0  0.06757  0.25261  0.95464  1.0000
  H   H584      1.0  0.01816  0.35255  0.74505  1.0000
  C   C342      1.0  0.99704  0.25941  0.90107  1.0000
  H   H585      1.0  0.08105  0.29958  0.87819  1.0000
  H   H586      1.0  0.22607  0.33694  0.78869  1.0000
  H   H587      1.0  0.26237  0.32382  0.82740  1.0000
  C   C343      1.0  0.05031  0.31398  0.72387  1.0000
  Fe  Fe54      1.0  0.00757  0.34932  0.82531  1.0000
  S   S105      1.0  0.10537  0.35241  0.94895  1.0000
  Fe  Fe55      1.0  0.28717  0.30736  0.91072  1.0000
  S   S106      1.0  0.26375  0.30125  0.89436  1.0000
  C   C344      1.0  0.09390  0.29265  0.83802  1.0000
  S   S107      1.0  0.28836  0.29380  0.94378  1.0000
  S   S108      1.0  0.00560  0.38259  0.81026  1.0000
  H   H588      1.0  0.04280  0.26926  0.87411  1.0000
  H   H589      1.0  0.02705  0.28472  0.77071  1.0000
  Fe  Fe56      1.0  0.03967  0.33502  0.79093  1.0000
  S   S109      1.0  0.04231  0.34284  0.82095  1.0000
  S   S110      1.0  0.05947  0.30821  0.77724  1.0000
  H   H590      1.0  0.16505  0.34458  0.92388  1.0000
  Fe  Fe57      1.0  0.04048  0.37552  0.80348  1.0000
  S   S111      1.0  0.05643  0.39982  0.80974  1.0000
  S   S112      1.0  0.20080  0.47540  0.81351  1.0000
  S   S113      1.0  0.04049  0.36724  0.77277  1.0000
  Fe  Fe58      1.0  0.17438  0.41735  0.86971  1.0000
  S   S114      1.0  0.18322  0.38867  0.85566  1.0000
  S   S115      1.0  0.16464  0.41614  0.90397  1.0000
  Fe  Fe59      1.0  0.18958  0.44530  0.82971  1.0000
  S   S116      1.0  0.19834  0.41882  0.81214  1.0000
  Fe  Fe60      1.0  0.16843  0.40860  0.82931  1.0000
  S   S117      1.0  0.15200  0.39017  0.81500  1.0000
  Fe  Fe61      1.0  0.21189  0.40122  0.83958  1.0000
  S   S118      1.0  0.24538  0.38649  0.83553  1.0000
  S   S119      1.0  0.15792  0.43703  0.84442  1.0000
  S   S120      1.0  0.20462  0.42786  0.85623  1.0000
  H   H591      1.0  0.00703  0.25178  0.91263  1.0000
  C   C345      1.0  0.11085  0.25116  0.88369  1.0000
  S   S121      1.0  0.28344  0.34010  0.91525  1.0000
  H   H592      1.0  0.29441  0.34643  0.59365  1.0000
  S   S122      1.0  0.30873  0.42771  0.64332  1.0000
  N   N23       1.0  0.09573  0.26834  0.87351  1.0000
  H   H593      1.0  0.24914  0.41347  0.86604  1.0000
  C   C346      1.0  0.28043  0.45001  0.85538  1.0000
  C   C347      1.0  0.08329  0.39724  0.80993  1.0000
  C   C348      1.0  0.09704  0.37872  0.80764  1.0000
  C   C349      1.0  0.11807  0.37698  0.80896  1.0000
  C   C350      1.0  0.12554  0.39362  0.81279  1.0000
  C   C351      1.0  0.11183  0.41223  0.81489  1.0000
  C   C352      1.0  0.09080  0.41400  0.81350  1.0000
  H   H594      1.0  0.09148  0.36572  0.80490  1.0000
  H   H595      1.0  0.12861  0.36259  0.80715  1.0000
  H   H596      1.0  0.11742  0.42523  0.81760  1.0000
  H   H597      1.0  0.08026  0.42841  0.81525  1.0000
  C   C353      1.0  0.10191  0.24806  0.96364  1.0000
  C   C354      1.0  0.27849  0.32174  0.81885  1.0000
  C   C355      1.0  0.25894  0.32355  0.87599  1.0000
  C   C356      1.0  0.23988  0.32962  0.86910  1.0000
  C   C357      1.0  0.23550  0.34898  0.85642  1.0000
  C   C358      1.0  0.25039  0.36191  0.85043  1.0000
  C   C359      1.0  0.26982  0.35517  0.85626  1.0000
  C   C360      1.0  0.27400  0.33613  0.86915  1.0000
  H   H598      1.0  0.22834  0.31969  0.87408  1.0000
  H   H599      1.0  0.22061  0.35396  0.85149  1.0000
  H   H600      1.0  0.28161  0.36477  0.85102  1.0000
  H   H601      1.0  0.28890  0.33116  0.87395  1.0000
  C   C361      1.0  0.05553  0.27681  0.87550  1.0000
  H   H602      1.0  0.31755  0.47695  0.76628  1.0000
  C   C362      1.0  0.28730  0.41596  0.87730  1.0000
  H   H603      1.0  0.10751  0.29318  0.88056  1.0000
  H   H604      1.0  0.05835  0.28418  0.74446  1.0000
  C   C363      1.0  0.12307  0.36899  0.93682  1.0000
  C   C364      1.0  0.12776  0.37300  0.91527  1.0000
  C   C365      1.0  0.14042  0.38755  0.90504  1.0000
  C   C366      1.0  0.14865  0.39796  0.91643  1.0000
  C   C367      1.0  0.14438  0.39359  0.93804  1.0000
  C   C368      1.0  0.13169  0.37901  0.94826  1.0000
  H   H605      1.0  0.12172  0.36461  0.90657  1.0000
  H   H606      1.0  0.14386  0.39069  0.88838  1.0000
  H   H607      1.0  0.15079  0.40158  0.94689  1.0000
  S   S123      1.0  0.00502  0.33860  0.79672  1.0000
  C   C369      1.0  0.22639  0.31616  0.95408  1.0000
  C   C370      1.0  0.26402  0.45222  0.76484  1.0000
  C   C371      1.0  0.05329  0.27859  0.81265  1.0000
  C   C372      1.0  0.06602  0.28472  0.79384  1.0000
  C   C373      1.0  0.02413  0.35510  0.72825  1.0000
  H   H608      1.0  0.01623  0.37075  0.72188  1.0000
  C   C374      1.0  0.08153  0.25889  0.96419  1.0000
  H   H609      1.0  0.30441  0.41434  0.87238  1.0000
  H   H610      1.0  0.17660  0.33476  0.90079  1.0000
  C   C375      1.0  0.27452  0.38740  0.78502  1.0000
  H   H611      1.0  0.27046  0.46015  0.84461  1.0000
  H   H612      1.0  0.23415  0.34666  0.94337  1.0000
  H   H613      1.0  0.04573  0.37848  0.91455  1.0000
  H   H614      1.0  0.26450  0.43720  0.76015  1.0000
  H   H615      1.0  0.29082  0.38699  0.89904  1.0000
  H   H616      1.0  0.29366  0.45597  0.74549  1.0000
  H   H617      1.0  0.13089  0.23550  0.85907  1.0000
  H   H618      1.0  0.24752  0.45982  0.76731  1.0000
  C   C376      1.0  0.10549  0.27391  0.85116  1.0000
  C   C377      1.0  0.27762  0.33315  0.77227  1.0000
  C   C378      1.0  0.30082  0.30564  0.58842  1.0000
  C   C379      1.0  0.27914  0.36857  0.77394  1.0000
  H   H619      1.0  0.20891  0.47053  0.85540  1.0000
  H   H620      1.0  0.99014  0.30081  0.72775  1.0000
  C   C380      1.0  0.24292  0.43554  0.88672  1.0000
  H   H621      1.0  0.00206  0.34205  0.71891  1.0000
  H   H622      1.0  0.03891  0.28857  0.81747  1.0000
  S   S124      1.0  0.30227  0.47773  0.54281  1.0000
  H   H623      1.0  0.21844  0.30500  0.95020  1.0000
  C   C381      1.0  0.01817  0.28814  0.75781  1.0000
  H   H624      1.0  0.00530  0.30635  0.83464  1.0000
  H   H625      1.0  0.22584  0.43678  0.88857  1.0000
  C   C382      1.0  0.27722  0.31351  0.59041  1.0000
  N   N24       1.0  0.27165  0.34910  0.78622  1.0000
  S   S125      1.0  0.14168  0.30497  0.97111  1.0000
  H   H626      1.0  0.24536  0.36234  0.80693  1.0000
  H   H627      1.0  0.27952  0.44476  0.81635  1.0000
  H   H628      1.0  0.28018  0.40197  0.84459  1.0000
  H   H629      1.0  0.05078  0.28274  0.89025  1.0000
  H   H630      1.0  0.28363  0.42432  0.89060  1.0000
  H   H631      1.0  0.23707  0.33206  0.92384  1.0000
  H   H632      1.0  0.28064  0.40051  0.77416  1.0000
  C   C383      1.0  0.24856  0.35419  0.79359  1.0000
  H   H633      1.0  0.12811  0.37594  0.96493  1.0000
  H   H634      1.0  0.19685  0.31927  0.92847  1.0000
  C   C384      1.0  0.09290  0.28670  0.88405  1.0000
  H   H635      1.0  0.24106  0.36544  0.78144  1.0000
  H   H636      1.0  0.23656  0.36202  0.90061  1.0000
  H   H637      1.0  0.26974  0.44860  0.77966  1.0000
  H   H638      1.0  0.25875  0.42975  0.82348  1.0000
  C   C385      1.0  0.30956  0.33292  0.55823  1.0000
  H   H639      1.0  0.29433  0.34355  0.55974  1.0000
  H   H640      1.0  0.27240  0.32064  0.57537  1.0000
  H   H641      1.0  0.27192  0.46600  0.73321  1.0000
  H   H642      1.0  0.28239  0.38459  0.79850  1.0000
  H   H643      1.0  0.29913  0.35081  0.97560  1.0000
  H   H644      1.0  0.26634  0.39291  0.89078  1.0000
  H   H645      1.0  0.24267  0.30843  0.95467  1.0000
  H   H646      1.0  0.28307  0.42000  0.80906  1.0000
  H   H647      1.0  0.99997  0.31814  0.74959  1.0000
  H   H648      1.0  0.07394  0.27309  0.91273  1.0000
  H   H649      1.0  0.10500  0.24298  0.79518  1.0000
  C   C386      1.0  0.22062  0.37094  0.90045  1.0000
  C   C387      1.0  0.28416  0.41772  0.84140  1.0000
  H   H650      1.0  0.07926  0.29271  0.72629  1.0000
  C   C388      1.0  0.18927  0.34833  0.95225  1.0000
  C   C389      1.0  0.05919  0.25929  0.82511  1.0000
  C   C390      1.0  0.20701  0.36893  0.92202  1.0000
  H   H651      1.0  0.18797  0.37704  0.96364  1.0000
  H   H652      1.0  0.99137  0.32049  0.70467  1.0000
  C   C391      1.0  0.23633  0.33599  0.79996  1.0000
  H   H653      1.0  0.05734  0.32103  0.70811  1.0000
  Fe  Fe62      1.0  0.00563  0.37146  0.78100  1.0000
  C   C392      1.0  0.30377  0.47152  0.77656  1.0000
  H   H654      1.0  0.17400  0.35648  0.94829  1.0000
  H   H655      1.0  0.25060  0.34406  0.75612  1.0000
  H   H656      1.0  0.22191  0.38747  0.89462  1.0000
  H   H657      1.0  0.21347  0.37710  0.93130  1.0000
  H   H658      1.0  0.04936  0.25443  0.83951  1.0000
  H   H659      1.0  0.19142  0.37829  0.92049  1.0000
  C   C393      1.0  0.07801  0.24650  0.81886  1.0000
  H   H660      1.0  0.24574  0.32033  0.80207  1.0000
  H   H661      1.0  0.02537  0.34310  0.70077  1.0000
  C   C394      1.0  0.22634  0.33627  0.93797  1.0000
  H   H662      1.0  0.28020  0.35359  0.81406  1.0000
  H   H663      1.0  0.30439  0.41072  0.68629  1.0000
  C   C395      1.0  0.25320  0.42878  0.86585  1.0000
  H   H664      1.0  0.30647  0.32917  0.52786  1.0000
  H   H665      1.0  0.30402  0.45520  0.77563  1.0000
  H   H666      1.0  0.02553  0.27697  0.74744  1.0000
  H   H667      1.0  0.27616  0.45704  0.86957  1.0000
  H   H668      1.0  0.04093  0.35569  0.72531  1.0000
  S   S126      1.0  0.31970  0.47528  0.59614  1.0000
  H   H669      1.0  0.32162  0.33581  0.82723  1.0000
  H   H670      1.0  0.28862  0.31806  0.83072  1.0000
  N   N25       1.0  0.02711  0.31647  0.72561  1.0000
  C   C396      1.0  0.08442  0.27163  0.78755  1.0000
  H   H671      1.0  0.02881  0.28735  0.71523  1.0000
  H   H672      1.0  0.32020  0.36449  0.59839  1.0000
  C   C397      1.0  0.06257  0.29178  0.72828  1.0000
  C   C398      1.0  0.99880  0.30505  0.71198  1.0000
  C   C399      1.0  0.31043  0.33738  0.59315  1.0000
  H   H673      1.0  0.27166  0.32457  0.60132  1.0000
  H   H674      1.0  0.12475  0.25705  0.88512  1.0000
  H   H675      1.0  0.08115  0.29709  0.91364  1.0000
  C   C400      1.0  0.99051  0.30346  0.84368  1.0000
  H   H676      1.0  0.24509  0.43973  0.85400  1.0000
  H   H677      1.0  0.07960  0.28911  0.83493  1.0000
  C   C401      1.0  0.26756  0.33856  0.75275  1.0000
  C   C402      1.0  0.07382  0.23574  0.94399  1.0000
  H   H678      1.0  0.05181  0.26097  0.95544  1.0000
  H   H679      1.0  0.28962  0.38352  0.87395  1.0000
  H   H680      1.0  0.05638  0.29000  0.86259  1.0000
  H   H681      1.0  0.28191  0.30811  0.81112  1.0000
  H   H682      1.0  0.10003  0.27389  0.91523  1.0000
  C   C403      1.0  0.27574  0.42899  0.82159  1.0000
  H   H683      1.0  0.07672  0.25188  0.86275  1.0000
  H   H684      1.0  0.24583  0.45091  0.88762  1.0000
  H   H685      1.0  0.27192  0.37428  0.75992  1.0000
  H   H686      1.0  0.21341  0.36612  0.88932  1.0000
  C   C404      1.0  0.01920  0.33898  0.71755  1.0000
  C   C405      1.0  0.30305  0.45274  0.84626  1.0000
  C   C406      1.0  0.09050  0.25279  0.80010  1.0000
  H   H687      1.0  0.09424  0.27620  0.77302  1.0000
  H   H688      1.0  0.02946  0.30893  0.69543  1.0000
  H   H689      1.0  0.00736  0.26182  0.88584  1.0000
  H   H690      1.0  0.21145  0.33207  0.90636  1.0000
  H   H691      1.0  0.27409  0.31783  0.78038  1.0000
  H   H692      1.0  0.09060  0.30702  0.84458  1.0000
  H   H693      1.0  0.17908  0.36026  0.90229  1.0000
  H   H694      1.0  0.00239  0.28471  0.76461  1.0000
  H   H695      1.0  0.29478  0.33024  0.76709  1.0000
  H   H696      1.0  0.25764  0.39262  0.78974  1.0000
  H   H697      1.0  0.10380  0.29588  0.82264  1.0000
  C   C407      1.0  0.19900  0.33493  0.91976  1.0000
  C   C408      1.0  0.31188  0.42405  0.68362  1.0000
  H   H698      1.0  0.27008  0.32446  0.74575  1.0000
  N   N26       1.0  0.07917  0.38538  0.88036  1.0000
  C   C409      1.0  0.09925  0.39217  0.86895  1.0000
  C   C410      1.0  0.08255  0.36212  0.88243  1.0000
  C   C411      1.0  0.07446  0.39163  0.90138  1.0000
  C   C412      1.0  0.06242  0.39617  0.86798  1.0000
  C   C413      1.0  0.10060  0.41510  0.86772  1.0000
  C   C414      1.0  0.08751  0.35369  0.86199  1.0000
  C   C415      1.0  0.06058  0.37925  0.91874  1.0000
  C   C416      1.0  0.04089  0.38982  0.87524  1.0000
  H   H699      1.0  0.11267  0.38270  0.87583  1.0000
  H   H700      1.0  0.10245  0.38952  0.85281  1.0000
  H   H701      1.0  0.06896  0.35557  0.89172  1.0000
  H   H702      1.0  0.09543  0.35482  0.89116  1.0000
  H   H703      1.0  0.08900  0.39019  0.90745  1.0000
  H   H704      1.0  0.06720  0.40829  0.90038  1.0000
  H   H705      1.0  0.05967  0.41318  0.86756  1.0000
  H   H706      1.0  0.06736  0.39487  0.85144  1.0000
  H   H707      1.0  0.09932  0.41911  0.88313  1.0000
  H   H708      1.0  0.11610  0.41783  0.85897  1.0000
  H   H709      1.0  0.08897  0.42581  0.85922  1.0000
  H   H710      1.0  0.08837  0.33665  0.86554  1.0000
  H   H711      1.0  0.07528  0.36010  0.85239  1.0000
  H   H712      1.0  0.10282  0.35651  0.85290  1.0000
  H   H713      1.0  0.29622  0.36537  0.76832  1.0000
  H   H714      1.0  0.05685  0.38686  0.93253  1.0000
  H   H715      1.0  0.06893  0.36335  0.92365  1.0000
  H   H716      1.0  0.03122  0.39901  0.88686  1.0000
  H   H717      1.0  0.04140  0.37314  0.88133  1.0000
  H   H718      1.0  0.03295  0.39279  0.86170  1.0000
  Fe  Fe63      1.0  0.28716  0.32630  0.94768  1.0000
  H   H719      1.0  0.27493  0.35026  0.74087  1.0000
  H   H720      1.0  0.99320  0.24299  0.82137  1.0000
  H   H721      1.0  0.30027  0.33921  0.79834  1.0000
  C   C417      1.0  0.01673  0.31130  0.74777  1.0000
  N   N27       1.0  0.31435  0.32173  0.57906  1.0000
  N   N28       1.0  0.20538  0.34715  0.93300  1.0000
  C   C418      1.0  0.28323  0.34172  0.80409  1.0000
  C   C419      1.0  0.30962  0.31909  0.54263  1.0000
  H   H722      1.0  0.24790  0.42407  0.89998  1.0000
  H   H723      1.0  0.22579  0.33751  0.81492  1.0000
  C   C420      1.0  0.08661  0.28226  0.90775  1.0000
  H   H724      1.0  0.05414  0.32243  0.73470  1.0000
  H   H725      1.0  0.02295  0.31880  0.75779  1.0000
  H   H726      1.0  0.18605  0.33277  0.96035  1.0000
  C   C421      1.0  0.28300  0.39371  0.88553  1.0000
  H   H727      1.0  0.30135  0.41523  0.83770  1.0000
  N   N29       1.0  0.27629  0.42811  0.86000  1.0000
  H   H728      1.0  0.26907  0.30012  0.59675  1.0000
  H   H729      1.0  0.07291  0.24898  0.88973  1.0000
  C   C422      1.0  0.17876  0.34448  0.91135  1.0000
  H   H730      1.0  0.06149  0.28198  0.71738  1.0000
  H   H731      1.0  0.30358  0.29841  0.60428  1.0000
  H   H732      1.0  0.99706  0.29381  0.70277  1.0000
  H   H733      1.0  0.32104  0.34314  0.55055  1.0000
  C   C423      1.0  0.27767  0.46517  0.74775  1.0000
  H   H734      1.0  0.12145  0.27696  0.85006  1.0000
  H   H735      1.0  0.29751  0.30925  0.54779  1.0000
  C   C424      1.0  0.31572  0.43552  0.66371  1.0000
  C   C425      1.0  0.07571  0.26055  0.87536  1.0000
  C   C426      1.0  0.19357  0.36015  0.96780  1.0000
  C   C427      1.0  0.02212  0.30396  0.71173  1.0000
  H   H736      1.0  0.31126  0.32956  0.60934  1.0000
  S   S127      1.0  0.26176  0.33655  0.97277  1.0000
  H   H737      1.0  0.10732  0.26076  0.84285  1.0000
  Fe  Fe64      1.0  0.31814  0.33520  0.90802  1.0000
  H   H738      1.0  0.10376  0.24503  0.89974  1.0000
  S   S128      1.0  0.32129  0.42900  0.58502  1.0000
  H   H739      1.0  0.30492  0.29254  0.57967  1.0000
  S   S129      1.0  0.32179  0.30317  0.90111  1.0000
  H   H740      1.0  0.30392  0.46947  0.84382  1.0000
  H   H741      1.0  0.30845  0.44789  0.83101  1.0000
  H   H742      1.0  0.07640  0.27187  0.97229  1.0000
  S   S130      1.0  0.32173  0.32457  0.94140  1.0000
  H   H743      1.0  0.98976  0.23307  0.89234  1.0000
  H   H744      1.0  0.31389  0.44449  0.85689  1.0000
  H   H745      1.0  0.21017  0.35749  0.96905  1.0000
  H   H746      1.0  0.31015  0.23711  0.54163  1.0000
  H   H747      1.0  0.31513  0.42059  0.71537  1.0000
  H   H748      1.0  0.99205  0.27519  0.83277  1.0000
  H   H749      1.0  0.21939  0.31943  0.96978  1.0000
  C   C428      1.0  0.31799  0.42960  0.70005  1.0000
  H   H750      1.0  0.30545  0.47174  0.79256  1.0000
  C   C429      1.0  0.21915  0.48018  0.84512  1.0000
  Fe  Fe65      1.0  0.32057  0.46180  0.56812  1.0000
  H   H751      1.0  0.98958  0.27506  0.90426  1.0000
  H   H752      1.0  0.27061  0.48150  0.78466  1.0000
  H   H753      1.0  0.27693  0.48131  0.58299  1.0000
  H   H754      1.0  0.07672  0.55699  0.30247  1.0000
  S   S131      1.0  0.27306  0.53168  0.38159  1.0000
  Fe  Fe66      1.0  0.24557  0.57842  0.34692  1.0000
  S   S132      1.0  0.22895  0.56158  0.37561  1.0000
  S   S133      1.0  0.22653  0.60550  0.32979  1.0000
  Fe  Fe67      1.0  0.25601  0.56236  0.38978  1.0000
  S   S134      1.0  0.25041  0.57609  0.41870  1.0000
  Fe  Fe68      1.0  0.24683  0.53256  0.36443  1.0000
  S   S135      1.0  0.08730  0.49152  0.09895  1.0000
  S   S136      1.0  0.27113  0.58157  0.36188  1.0000
  S   S137      1.0  0.26234  0.54974  0.33462  1.0000
  Fe  Fe69      1.0  0.02126  0.61042  0.23963  1.0000
  S   S138      1.0  0.04568  0.62703  0.24386  1.0000
  Fe  Fe70      1.0  0.04577  0.56799  0.25394  1.0000
  S   S139      1.0  0.07235  0.58080  0.25855  1.0000
  S   S140      1.0  0.04772  0.53395  0.25546  1.0000
  Fe  Fe71      1.0  0.04786  0.60422  0.27371  1.0000
  S   S141      1.0  0.05049  0.60708  0.30644  1.0000
  Fe  Fe72      1.0  0.06807  0.60227  0.22881  1.0000
  S   S142      1.0  0.09250  0.60787  0.20074  1.0000
  S   S143      1.0  0.02115  0.58976  0.27075  1.0000
  S   S144      1.0  0.04370  0.58733  0.22292  1.0000
  Fe  Fe73      1.0  0.10424  0.62904  0.42113  1.0000
  S   S145      1.0  0.11813  0.65078  0.43279  1.0000
  S   S146      1.0  0.10066  0.59860  0.44162  1.0000
  Fe  Fe74      1.0  0.09922  0.65746  0.38030  1.0000
  S   S147      1.0  0.11277  0.68212  0.38882  1.0000
  S   S148      1.0  0.09070  0.66284  0.34815  1.0000
  Fe  Fe75      1.0  0.13624  0.65540  0.40065  1.0000
  S   S149      1.0  0.17037  0.65390  0.39850  1.0000
  Fe  Fe76      1.0  0.09354  0.67552  0.42049  1.0000
  S   S150      1.0  0.12438  0.63148  0.38996  1.0000
  S   S151      1.0  0.07788  0.65315  0.41101  1.0000
  Fe  Fe77      1.0  0.11296  0.50467  0.10513  1.0000
  H   H755      1.0  0.15999  0.66856  0.03986  1.0000
  C   C430      1.0  0.16320  0.63645  0.47192  1.0000
  Fe  Fe78      1.0  0.13212  0.54317  0.09134  1.0000
  S   S152      1.0  0.15547  0.53220  0.11257  1.0000
  S   S153      1.0  0.12950  0.57282  0.06830  1.0000
  Fe  Fe79      1.0  0.15920  0.50149  0.10268  1.0000
  H   H756      1.0  0.08746  0.50663  0.16836  1.0000
  Fe  Fe80      1.0  0.12884  0.52167  0.13583  1.0000
  S   S154      1.0  0.12421  0.52218  0.16970  1.0000
  S   S155      1.0  0.13830  0.51343  0.07925  1.0000
  S   S156      1.0  0.10498  0.53533  0.11562  1.0000
  Fe  Fe81      1.0  0.05671  0.70588  0.04668  1.0000
  S   S157      1.0  0.05534  0.69843  0.08098  1.0000
  Fe  Fe82      1.0  0.01822  0.68826  0.04914  1.0000
  S   S158      1.0  0.01279  0.67976  0.08359  1.0000
  N   N30       1.0  0.20048  0.64202  0.45507  1.0000
  Fe  Fe83      1.0  0.02139  0.71035  0.08254  1.0000
  H   H757      1.0  0.02677  0.63213  0.18843  1.0000
  Fe  Fe84      1.0  0.04704  0.66830  0.07949  1.0000
  S   S159      1.0  0.05737  0.64039  0.10235  1.0000
  S   S160      1.0  0.02311  0.72032  0.04839  1.0000
  S   S161      1.0  0.05200  0.67414  0.04491  1.0000
  C   C431      1.0  0.08284  0.71225  0.45567  1.0000
  C   C432      1.0  0.12424  0.58709  0.44995  1.0000
  H   H758      1.0  0.99430  0.62596  0.14126  1.0000
  H   H759      1.0  0.11537  0.54683  0.32311  1.0000
  H   H760      1.0  0.07878  0.56049  0.32719  1.0000
  C   C433      1.0  0.20790  0.60235  0.45669  1.0000
  N   N31       1.0  0.12887  0.66175  0.04594  1.0000
  C   C434      1.0  0.07831  0.48846  0.29325  1.0000
  C   C435      1.0  0.14696  0.62468  0.04006  1.0000
  H   H761      1.0  0.02890  0.60364  0.17314  1.0000
  C   C436      1.0  0.18475  0.63913  0.47461  1.0000
  H   H762      1.0  0.19993  0.68262  0.41250  1.0000
  H   H763      1.0  0.05808  0.65693  0.45732  1.0000
  C   C437      1.0  0.10876  0.59097  0.07775  1.0000
  C   C438      1.0  0.10313  0.59084  0.09896  1.0000
  C   C439      1.0  0.08707  0.60592  0.10643  1.0000
  C   C440      1.0  0.07667  0.62117  0.09269  1.0000
  C   C441      1.0  0.08187  0.62099  0.07153  1.0000
  C   C442      1.0  0.09800  0.60593  0.06403  1.0000
  H   H764      1.0  0.11150  0.57941  0.10958  1.0000
  H   H765      1.0  0.08299  0.60585  0.12284  1.0000
  H   H766      1.0  0.07343  0.63236  0.06096  1.0000
  H   H767      1.0  0.10210  0.60576  0.04765  1.0000
  H   H768      1.0  0.07094  0.67230  0.13129  1.0000
  C   C443      1.0  0.15428  0.53031  0.30882  1.0000
  H   H769      1.0  0.20896  0.52872  0.42942  1.0000
  H   H770      1.0  0.10203  0.65919  0.00704  1.0000
  S   S162      1.0  0.13429  0.48999  0.12768  1.0000
  H   H771      1.0  0.29791  0.51364  0.43700  1.0000
  H   H772      1.0  0.06575  0.62910  0.45946  1.0000
  C   C444      1.0  0.10193  0.58430  0.19171  1.0000
  C   C445      1.0  0.10241  0.56566  0.20572  1.0000
  C   C446      1.0  0.10987  0.54678  0.19877  1.0000
  C   C447      1.0  0.11613  0.54634  0.17767  1.0000
  C   C448      1.0  0.11540  0.56494  0.16350  1.0000
  C   C449      1.0  0.10857  0.58396  0.17056  1.0000
  H   H773      1.0  0.09730  0.56576  0.22200  1.0000
  H   H774      1.0  0.11045  0.53245  0.20978  1.0000
  H   H775      1.0  0.12027  0.56467  0.14718  1.0000
  H   H776      1.0  0.10820  0.59834  0.15964  1.0000
  C   C450      1.0  0.06273  0.62230  0.31733  1.0000
  C   C451      1.0  0.07068  0.63974  0.30583  1.0000
  C   C452      1.0  0.07935  0.65180  0.31547  1.0000
  C   C453      1.0  0.08050  0.64646  0.33663  1.0000
  C   C454      1.0  0.07284  0.62885  0.34807  1.0000
  C   C455      1.0  0.06393  0.61696  0.33849  1.0000
  H   H777      1.0  0.06983  0.64413  0.28959  1.0000
  H   H778      1.0  0.08517  0.66539  0.30645  1.0000
  H   H779      1.0  0.07348  0.62456  0.36436  1.0000
  H   H780      1.0  0.05776  0.60357  0.34757  1.0000
  H   H781      1.0  0.14111  0.56920  0.24877  1.0000
  H   H782      1.0  0.16283  0.49159  0.15833  1.0000
  C   C456      1.0  0.07524  0.49677  0.31124  1.0000
  C   C457      1.0  0.06282  0.51624  0.31244  1.0000
  C   C458      1.0  0.05412  0.52771  0.29536  1.0000
  C   C459      1.0  0.05743  0.51945  0.27731  1.0000
  C   C460      1.0  0.06923  0.49968  0.27640  1.0000
  C   C461      1.0  0.14640  0.67129  0.03192  1.0000
  H   H783      1.0  0.06046  0.52273  0.32632  1.0000
  H   H784      1.0  0.04491  0.54296  0.29614  1.0000
  H   H785      1.0  0.11015  0.52006  0.25193  1.0000
  C   C462      1.0  0.21094  0.61971  0.34829  1.0000
  C   C463      1.0  0.21808  0.61954  0.36638  1.0000
  C   C464      1.0  0.20560  0.63026  0.38156  1.0000
  C   C465      1.0  0.18568  0.64084  0.37900  1.0000
  C   C466      1.0  0.17832  0.64080  0.36105  1.0000
  C   C467      1.0  0.19108  0.63046  0.34555  1.0000
  H   H786      1.0  0.23325  0.61115  0.36875  1.0000
  H   H787      1.0  0.21127  0.62986  0.39548  1.0000
  H   H788      1.0  0.16296  0.64900  0.35895  1.0000
  H   H789      1.0  0.18543  0.63051  0.33164  1.0000
  H   H790      1.0  0.11317  0.56979  0.27414  1.0000
  C   C468      1.0  0.30067  0.64121  0.29572  1.0000
  C   C469      1.0  0.27241  0.57675  0.42877  1.0000
  C   C470      1.0  0.27066  0.58964  0.44316  1.0000
  N   N32       1.0  0.12118  0.53953  0.29225  1.0000
  C   C471      1.0  0.03890  0.61480  0.16393  1.0000
  C   C472      1.0  0.29118  0.56356  0.42374  1.0000
  H   H791      1.0  0.03154  0.62342  0.15065  1.0000
  H   H792      1.0  0.22913  0.50052  0.45014  1.0000
  C   C473      1.0  0.16109  0.58604  0.44756  1.0000
  C   C474      1.0  0.14223  0.59532  0.44101  1.0000
  H   H793      1.0  0.29274  0.55370  0.41251  1.0000
  H   H794      1.0  0.17496  0.59231  0.44039  1.0000
  H   H795      1.0  0.14174  0.60868  0.42882  1.0000
  H   H796      1.0  0.00240  0.62868  0.06741  1.0000
  N   N33       1.0  0.05371  0.51110  0.20068  1.0000
  H   H797      1.0  0.00118  0.56931  0.08134  1.0000
  H   H798      1.0  0.09956  0.67700  0.03617  1.0000
  C   C475      1.0  0.05318  0.66006  0.18246  1.0000
  C   C476      1.0  0.28022  0.60835  0.28658  1.0000
  H   H799      1.0  0.11145  0.65082  0.09080  1.0000
  C   C477      1.0  0.04576  0.70733  0.39816  1.0000
  H   H800      1.0  0.10155  0.52794  0.32062  1.0000
  H   H801      1.0  0.09170  0.57543  0.30511  1.0000
  H   H802      1.0  0.11119  0.56342  0.47279  1.0000
  S   S163      1.0  0.08265  0.72005  0.02486  1.0000
  H   H803      1.0  0.12107  0.54280  0.24768  1.0000
  C   C478      1.0  0.01734  0.50194  0.21669  1.0000
  C   C479      1.0  0.22091  0.64289  0.46059  1.0000
  H   H804      1.0  0.06327  0.53517  0.21146  1.0000
  H   H805      1.0  0.08166  0.52471  0.19202  1.0000
  C   C480      1.0  0.12007  0.52774  0.25813  1.0000
  C   C481      1.0  0.24079  0.53849  0.47027  1.0000
  C   C482      1.0  0.08591  0.48990  0.21638  1.0000
  H   H806      1.0  0.08515  0.65956  0.47037  1.0000
  H   H807      1.0  0.00280  0.67976  0.15644  1.0000
  C   C483      1.0  0.11628  0.66085  0.01204  1.0000
  H   H808      1.0  0.09165  0.66184  0.07496  1.0000
  C   C484      1.0  0.05432  0.64174  0.46578  1.0000
  S   S164      1.0  0.00527  0.73030  0.10573  1.0000
  C   C485      1.0  0.12510  0.56974  0.46572  1.0000
  H   H809      1.0  0.15336  0.54430  0.25988  1.0000
  H   H810      1.0  0.21315  0.65675  0.41190  1.0000
  H   H811      1.0  0.00525  0.59905  0.14448  1.0000
  H   H812      1.0  0.21779  0.67667  0.45983  1.0000
  H   H813      1.0  0.03308  0.67914  0.41356  1.0000
  H   H814      1.0  0.09671  0.62423  0.47405  1.0000
  H   H815      1.0  0.05260  0.61995  0.18810  1.0000
  H   H816      1.0  0.05979  0.67415  0.17476  1.0000
  H   H817      1.0  0.04687  0.56198  0.12747  1.0000
  H   H818      1.0  0.09458  0.65403  0.13017  1.0000
  C   C486      1.0  0.20369  0.62421  0.44367  1.0000
  H   H819      1.0  0.03771  0.67900  0.14985  1.0000
  C   C487      1.0  0.31401  0.65566  0.29987  1.0000
  H   H820      1.0  0.28082  0.62271  0.27495  1.0000
  H   H821      1.0  0.08714  0.66811  0.15089  1.0000
  C   C488      1.0  0.14576  0.55977  0.26329  1.0000
  H   H822      1.0  0.03102  0.69755  0.42970  1.0000
  S   S165      1.0  0.07355  0.69816  0.44092  1.0000
  S   S166      1.0  0.99858  0.68288  0.02847  1.0000
  H   H823      1.0  0.28711  0.63263  0.35792  1.0000
  H   H824      1.0  0.00131  0.50954  0.22235  1.0000
  H   H825      1.0  0.25627  0.60002  0.44693  1.0000
  C   C489      1.0  0.28406  0.63277  0.34231  1.0000
  S   S167      1.0  0.22615  0.50781  0.36921  1.0000
  H   H826      1.0  0.12827  0.64738  0.00856  1.0000
  C   C490      1.0  0.06480  0.52926  0.19685  1.0000
  H   H827      1.0  0.09429  0.54047  0.27858  1.0000
  H   H828      1.0  0.14951  0.51775  0.28377  1.0000
  H   H829      1.0  0.13409  0.67520  0.07062  1.0000
  H   H830      1.0  0.05299  0.67657  0.37532  1.0000
  C   C491      1.0  0.04167  0.62919  0.17786  1.0000
  H   H831      1.0  0.17633  0.49430  0.17731  1.0000
  N   N34       1.0  0.04921  0.64894  0.16682  1.0000
  H   H832      1.0  0.05943  0.54325  0.16523  1.0000
  H   H833      1.0  0.06795  0.55947  0.17836  1.0000
  H   H834      1.0  0.14916  0.63967  0.06457  1.0000
  H   H835      1.0  0.23851  0.55173  0.45747  1.0000
  C   C492      1.0  0.06985  0.64278  0.15344  1.0000
  H   H836      1.0  0.28323  0.59558  0.31802  1.0000
  C   C493      1.0  0.22285  0.53180  0.43394  1.0000
  H   H837      1.0  0.15496  0.65074  0.46338  1.0000
  C   C494      1.0  0.19263  0.66177  0.44141  1.0000
  H   H838      1.0  0.02339  0.68042  0.19055  1.0000
  H   H839      1.0  0.03974  0.67423  0.20944  1.0000
  C   C495      1.0  0.28605  0.51121  0.45116  1.0000
  H   H840      1.0  0.07767  0.69825  0.36650  1.0000
  C   C496      1.0  0.28319  0.61105  0.30789  1.0000
  H   H841      1.0  0.01635  0.49392  0.20424  1.0000
  C   C497      1.0  0.10961  0.53070  0.28022  1.0000
  H   H842      1.0  0.14867  0.49960  0.20073  1.0000
  H   H843      1.0  0.11365  0.68996  0.05771  1.0000
  H   H844      1.0  0.00114  0.63070  0.10429  1.0000
  H   H845      1.0  0.11644  0.56619  0.38807  1.0000
  H   H846      1.0  0.12938  0.56906  0.29193  1.0000
  H   H847      1.0  0.12488  0.63236  0.06600  1.0000
  H   H848      1.0  0.16865  0.51846  0.30908  1.0000
  H   H849      1.0  0.15907  0.54526  0.30112  1.0000
  H   H850      1.0  0.23385  0.51192  0.32384  1.0000
  H   H851      1.0  0.15763  0.56715  0.26686  1.0000
  H   H852      1.0  0.02519  0.63772  0.06923  1.0000
  H   H853      1.0  0.30993  0.67680  0.36501  1.0000
  C   C498      1.0  0.99128  0.59705  0.09623  1.0000
  H   H854      1.0  0.17853  0.66031  0.43602  1.0000
  C   C499      1.0  0.28744  0.58901  0.45289  1.0000
  H   H855      1.0  0.21714  0.62499  0.43080  1.0000
  H   H856      1.0  0.15228  0.66390  0.01807  1.0000
  H   H857      1.0  0.22160  0.59986  0.46420  1.0000
  H   H858      1.0  0.13455  0.50942  0.30751  1.0000
  H   H859      1.0  0.26869  0.62111  0.31399  1.0000
  C   C500      1.0  0.01101  0.66388  0.16166  1.0000
  H   H860      1.0  0.26377  0.50704  0.43487  1.0000
  H   H861      1.0  0.07484  0.49866  0.15206  1.0000
  H   H862      1.0  0.05534  0.49769  0.23270  1.0000
  H   H863      1.0  0.13544  0.51754  0.25744  1.0000
  H   H864      1.0  0.09499  0.48740  0.20113  1.0000
  C   C501      1.0  0.12101  0.67380  0.06345  1.0000
  H   H865      1.0  0.18753  0.67484  0.45015  1.0000
  H   H866      1.0  0.23571  0.53008  0.42070  1.0000
  H   H867      1.0  0.99708  0.59366  0.06356  1.0000
  H   H868      1.0  0.16393  0.62322  0.46421  1.0000
  C   C502      1.0  0.04058  0.68984  0.37112  1.0000
  H   H869      1.0  0.05297  0.69232  0.33760  1.0000
  H   H870      1.0  0.14725  0.53098  0.32516  1.0000
  C   C503      1.0  0.10700  0.54265  0.31246  1.0000
  H   H871      1.0  0.10635  0.51531  0.28870  1.0000
  H   H872      1.0  0.15398  0.60980  0.04887  1.0000
  H   H873      1.0  0.13495  0.62080  0.03319  1.0000
  H   H874      1.0  0.19895  0.49705  0.14490  1.0000
  H   H875      1.0  0.10213  0.64992  0.04308  1.0000
  H   H876      1.0  0.14139  0.70368  0.03636  1.0000
  C   C504      1.0  0.22136  0.66170  0.47021  1.0000
  H   H877      1.0  0.15955  0.63017  0.02797  1.0000
  H   H878      1.0  0.02617  0.68528  0.38080  1.0000
  N   N35       1.0  0.16270  0.56072  0.38508  1.0000
  C   C505      1.0  0.17373  0.56599  0.40015  1.0000
  C   C506      1.0  0.15379  0.54149  0.39541  1.0000
  C   C507      1.0  0.14544  0.57871  0.38045  1.0000
  C   C508      1.0  0.17847  0.55732  0.36590  1.0000
  C   C509      1.0  0.18018  0.58757  0.39451  1.0000
  C   C510      1.0  0.16956  0.52220  0.40234  1.0000
  C   C511      1.0  0.12617  0.57399  0.37438  1.0000
  C   C512      1.0  0.17149  0.54900  0.34940  1.0000
  H   H879      1.0  0.16389  0.56509  0.41575  1.0000
  H   H880      1.0  0.18815  0.55453  0.40218  1.0000
  H   H881      1.0  0.14523  0.53676  0.38528  1.0000
  H   H882      1.0  0.14208  0.54469  0.40935  1.0000
  H   H883      1.0  0.13891  0.58609  0.39435  1.0000
  H   H884      1.0  0.15149  0.59108  0.36822  1.0000
  H   H885      1.0  0.18409  0.57190  0.35791  1.0000
  H   H886      1.0  0.19250  0.54628  0.37002  1.0000
  H   H887      1.0  0.18864  0.59071  0.37854  1.0000
  H   H888      1.0  0.16668  0.60021  0.39667  1.0000
  H   H889      1.0  0.19077  0.58843  0.40483  1.0000
  H   H890      1.0  0.16130  0.50889  0.40859  1.0000
  H   H891      1.0  0.18170  0.51773  0.38933  1.0000
  H   H892      1.0  0.17682  0.52432  0.41490  1.0000
  H   H893      1.0  0.12986  0.56448  0.36217  1.0000
  H   H894      1.0  0.16634  0.53388  0.35542  1.0000
  H   H895      1.0  0.18502  0.54623  0.33690  1.0000
  H   H896      1.0  0.15946  0.56044  0.34216  1.0000
  H   H897      1.0  0.11641  0.58885  0.36865  1.0000
  H   H898      1.0  0.11521  0.70374  0.44342  1.0000
  C   C513      1.0  0.12664  0.56011  0.28089  1.0000
  C   C514      1.0  0.08762  0.55986  0.31133  1.0000
  H   H899      1.0  0.21279  0.51836  0.46528  1.0000
  H   H900      1.0  0.07195  0.49324  0.26249  1.0000
  Fe  Fe85      1.0  0.28695  0.55142  0.35245  1.0000
  C   C515      1.0  0.10460  0.66502  0.08097  1.0000
  H   H901      1.0  0.03731  0.65775  0.13823  1.0000
  H   H902      1.0  0.09791  0.67661  0.09124  1.0000
  H   H903      1.0  0.04490  0.51384  0.17072  1.0000
  H   H904      1.0  0.12694  0.72516  0.46315  1.0000
  C   C516      1.0  0.20796  0.66871  0.42182  1.0000
  C   C517      1.0  0.21516  0.49861  0.35152  1.0000
  C   C518      1.0  0.13975  0.52355  0.29751  1.0000
  H   H905      1.0  0.23355  0.64248  0.44689  1.0000
  H   H906      1.0  0.12113  0.67515  0.00239  1.0000
  H   H907      1.0  0.21918  0.54809  0.43636  1.0000
  N   N36       1.0  0.04489  0.70952  0.37553  1.0000
  C   C519      1.0  0.14128  0.69486  0.02419  1.0000
  C   C520      1.0  0.11103  0.66242  0.03517  1.0000
  H   H908      1.0  0.02611  0.65510  0.20720  1.0000
  C   C521      1.0  0.26432  0.51791  0.44510  1.0000
  C   C522      1.0  0.02974  0.69600  0.41393  1.0000
  C   C523      1.0  0.03454  0.66286  0.15340  1.0000
  H   H909      1.0  0.22580  0.62893  0.47186  1.0000
  C   C524      1.0  0.30782  0.56261  0.43377  1.0000
  C   C525      1.0  0.14390  0.56075  0.47262  1.0000
  C   C526      1.0  0.13727  0.63979  0.05518  1.0000
  C   C527      1.0  0.00926  0.61589  0.11231  1.0000
  H   H910      1.0  0.06493  0.64997  0.19144  1.0000
  H   H911      1.0  0.12603  0.69961  0.01910  1.0000
  N   N37       1.0  0.01222  0.59890  0.09997  1.0000
  C   C528      1.0  0.02153  0.57833  0.11145  1.0000
  H   H912      1.0  0.19430  0.59887  0.46855  1.0000
  H   H913      1.0  0.01047  0.57296  0.12544  1.0000
  C   C529      1.0  0.02678  0.60424  0.08007  1.0000
  C   C530      1.0  0.04235  0.57753  0.11827  1.0000
  H   H914      1.0  0.28159  0.64909  0.33438  1.0000
  S   S168      1.0  0.18559  0.55739  0.47160  1.0000
  C   C531      1.0  0.01943  0.62465  0.06592  1.0000
  C   C532      1.0  0.16196  0.56874  0.46334  1.0000
  H   H915      1.0  0.03109  0.59140  0.07102  1.0000
  C   C533      1.0  0.06851  0.72381  0.46934  1.0000
  H   H916      1.0  0.26401  0.53335  0.43500  1.0000
  H   H917      1.0  0.02438  0.61930  0.11351  1.0000
  H   H918      1.0  0.26459  0.60439  0.28819  1.0000
  H   H919      1.0  0.04188  0.60600  0.08322  1.0000
  H   H920      1.0  0.28430  0.64953  0.29810  1.0000
  H   H921      1.0  0.28877  0.52028  0.46190  1.0000
  H   H922      1.0  0.02439  0.56609  0.10183  1.0000
  H   H923      1.0  0.04509  0.48761  0.11423  1.0000
  C   C534      1.0  0.22188  0.50261  0.33015  1.0000
  H   H924      1.0  0.08087  0.63208  0.16285  1.0000
  H   H925      1.0  0.02983  0.52694  0.22204  1.0000
  C   C535      1.0  0.08097  0.66061  0.14090  1.0000
  H   H926      1.0  0.04138  0.58901  0.12821  1.0000
  H   H927      1.0  0.22167  0.67305  0.42540  1.0000
  C   C536      1.0  0.05465  0.50290  0.18124  1.0000
  H   H928      1.0  0.99820  0.58458  0.22014  1.0000
  H   H929      1.0  0.15330  0.69953  0.01087  1.0000
  H   H930      1.0  0.06810  0.63400  0.14190  1.0000
  H   H931      1.0  0.04173  0.55570  0.18537  1.0000
  C   C537      1.0  0.30595  0.57522  0.44844  1.0000
  H   H932      1.0  0.31534  0.65667  0.35024  1.0000
  H   H933      1.0  0.05513  0.57946  0.10492  1.0000
  C   C538      1.0  0.22731  0.51634  0.45374  1.0000
  H   H934      1.0  0.00468  0.65353  0.15469  1.0000
  H   H935      1.0  0.03904  0.64077  0.46247  1.0000
  C   C539      1.0  0.98931  0.59412  0.20880  1.0000
  H   H936      1.0  0.09078  0.50265  0.22129  1.0000
  H   H937      1.0  0.02533  0.62316  0.04951  1.0000
  N   N38       1.0  0.24576  0.51828  0.46236  1.0000
  C   C540      1.0  0.10398  0.71249  0.45387  1.0000
  H   H938      1.0  0.19018  0.62502  0.43612  1.0000
  H   H939      1.0  0.05405  0.60553  0.15821  1.0000
  H   H940      1.0  0.21940  0.49680  0.30049  1.0000
  C   C541      1.0  0.03428  0.66770  0.19813  1.0000
  H   H941      1.0  0.26948  0.62656  0.34477  1.0000
  C   C542      1.0  0.21363  0.49396  0.31691  1.0000
  S   S169      1.0  0.99427  0.62788  0.22367  1.0000
  H   H942      1.0  0.31679  0.62381  0.33299  1.0000
  H   H943      1.0  0.00651  0.66058  0.17861  1.0000
  H   H944      1.0  0.21108  0.59070  0.44640  1.0000
  H   H945      1.0  0.04437  0.72276  0.40247  1.0000
  H   H946      1.0  0.02366  0.53019  0.19704  1.0000
  C   C543      1.0  0.05778  0.54781  0.18045  1.0000
  C   C544      1.0  0.11060  0.72466  0.46510  1.0000
  C   C545      1.0  0.99163  0.58499  0.07904  1.0000
  C   C546      1.0  0.06225  0.49413  0.21699  1.0000
  H   H947      1.0  0.06115  0.69860  0.40148  1.0000
  H   H948      1.0  0.01357  0.70243  0.41190  1.0000
  H   H949      1.0  0.28591  0.59882  0.46415  1.0000
  H   H950      1.0  0.30397  0.66828  0.30755  1.0000
  H   H951      1.0  0.31507  0.57444  0.37069  1.0000
  C   C547      1.0  0.07627  0.49670  0.16851  1.0000
  H   H952      1.0  0.02247  0.49042  0.22989  1.0000
  C   C548      1.0  0.03119  0.51869  0.20895  1.0000
  C   C549      1.0  0.99684  0.61183  0.13433  1.0000
  H   H953      1.0  0.13066  0.48536  0.21787  1.0000
  C   C550      1.0  0.19960  0.48633  0.35928  1.0000
  H   H954      1.0  0.03525  0.67495  0.34753  1.0000
  H   H955      1.0  0.23725  0.66061  0.47327  1.0000
  H   H956      1.0  0.29152  0.59524  0.28091  1.0000
  S   S170      1.0  0.31624  0.63223  0.46669  1.0000
  N   N39       1.0  0.30215  0.61968  0.30839  1.0000
  H   H957      1.0  0.30346  0.60310  0.33935  1.0000
  H   H958      1.0  0.26902  0.55049  0.46953  1.0000
  C   C551      1.0  0.30263  0.61925  0.33077  1.0000
  H   H959      1.0  0.28903  0.49446  0.45776  1.0000
  C   C552      1.0  0.03847  0.69021  0.34866  1.0000
  H   H960      1.0  0.30472  0.64039  0.27897  1.0000
  S   S171      1.0  0.32110  0.54974  0.33812  1.0000
  H   H961      1.0  0.00217  0.71217  0.37926  1.0000
  C   C553      1.0  0.06608  0.71258  0.36344  1.0000
  H   H962      1.0  0.04752  0.48872  0.18488  1.0000
  H   H963      1.0  0.07715  0.72814  0.38395  1.0000
  H   H964      1.0  0.05212  0.72375  0.47090  1.0000
  H   H965      1.0  0.25315  0.48526  0.47277  1.0000
  H   H966      1.0  0.09063  0.73065  0.35805  1.0000
  H   H967      1.0  0.31928  0.71787  0.44296  1.0000
  H   H968      1.0  0.06621  0.71553  0.34654  1.0000
  H   H969      1.0  0.02539  0.70214  0.34380  1.0000
  C   C554      1.0  0.07498  0.73039  0.36769  1.0000
  H   H970      1.0  0.32061  0.67404  0.40127  1.0000
  C   C555      1.0  0.00631  0.72764  0.37723  1.0000
  C   C556      1.0  0.02945  0.72829  0.36869  1.0000
  C   C557      1.0  0.17510  0.48335  0.16753  1.0000
  C   C558      1.0  0.14648  0.48375  0.20849  1.0000
  S   S172      1.0  0.08898  0.48403  0.33111  1.0000
  H   H971      1.0  0.32085  0.58914  0.30816  1.0000
  S   S173      1.0  0.19140  0.48337  0.09498  1.0000
  H   H972      1.0  0.19426  0.48302  0.37574  1.0000
  H   H973      1.0  0.32236  0.71015  0.39135  1.0000
  H   H974      1.0  0.32185  0.66348  0.28491  1.0000
  H   H975      1.0  0.32056  0.60468  0.28328  1.0000
  C   C559      1.0  0.32091  0.60529  0.29955  1.0000
  H   H976      1.0  0.32218  0.55204  0.43016  1.0000
  H   H977      1.0  0.03145  0.73231  0.35155  1.0000
  H   H978      1.0  0.22207  0.57140  0.59791  1.0000
  S   S174      1.0  0.00978  0.63127  0.59124  1.0000
  C   C560      1.0  0.26622  0.56199  0.53281  1.0000
  H   H979      1.0  0.24534  0.62458  0.86811  1.0000
  S   S175      1.0  0.01669  0.67915  0.58428  1.0000
  H   H980      1.0  0.04882  0.55387  0.60918  1.0000
  C   C561      1.0  0.26601  0.50340  0.53531  1.0000
  Fe  Fe86      1.0  0.03170  0.64828  0.59893  1.0000
  S   S176      1.0  0.06653  0.64294  0.59241  1.0000
  H   H981      1.0  0.31076  0.60833  0.67685  1.0000
  S   S177      1.0  0.01396  0.65119  0.63070  1.0000
  Fe  Fe87      1.0  0.14908  0.56670  0.54142  1.0000
  S   S178      1.0  0.17110  0.53889  0.53160  1.0000
  S   S179      1.0  0.11489  0.56653  0.55164  1.0000
  Fe  Fe88      1.0  0.18241  0.59384  0.52927  1.0000
  S   S180      1.0  0.20725  0.56870  0.51791  1.0000
  S   S181      1.0  0.18564  0.62639  0.52945  1.0000
  Fe  Fe89      1.0  0.18223  0.56169  0.50419  1.0000
  H   H982      1.0  0.07144  0.60786  0.63713  1.0000
  Fe  Fe90      1.0  0.19386  0.54833  0.54649  1.0000
  H   H983      1.0  0.09559  0.59843  0.51763  1.0000
  S   S182      1.0  0.15870  0.58879  0.51287  1.0000
  S   S183      1.0  0.17063  0.57419  0.55891  1.0000
  H   H984      1.0  0.25824  0.52523  0.76548  1.0000
  Fe  Fe91      1.0  0.30312  0.63406  0.49991  1.0000
  H   H985      1.0  0.24292  0.59658  0.89623  1.0000
  S   S184      1.0  0.27309  0.65403  0.51084  1.0000
  Fe  Fe92      1.0  0.99716  0.68093  0.61521  1.0000
  C   C562      1.0  0.24502  0.50631  0.81897  1.0000
  Fe  Fe93      1.0  0.30653  0.54378  0.78586  1.0000
  H   H986      1.0  0.27556  0.50990  0.71002  1.0000
  Fe  Fe94      1.0  0.28753  0.52829  0.82980  1.0000
  S   S185      1.0  0.31178  0.53761  0.84303  1.0000
  S   S186      1.0  0.26307  0.51112  0.85075  1.0000
  H   H987      1.0  0.04131  0.65382  0.49341  1.0000
  H   H988      1.0  0.24131  0.55739  0.91042  1.0000
  C   C563      1.0  0.22886  0.56922  0.90433  1.0000
  H   H989      1.0  0.08618  0.71637  0.55601  1.0000
  C   C564      1.0  0.21661  0.57944  0.58339  1.0000
  C   C565      1.0  0.21819  0.48508  0.82405  1.0000
  S   S187      1.0  0.30657  0.60024  0.82379  1.0000
  S   S188      1.0  0.31046  0.51265  0.80613  1.0000
  S   S189      1.0  0.28155  0.55886  0.80860  1.0000
  H   H990      1.0  0.10449  0.69112  0.58762  1.0000
  C   C566      1.0  0.23722  0.51369  0.56184  1.0000
  H   H991      1.0  0.27847  0.54502  0.89001  1.0000
  S   S190      1.0  0.31025  0.59991  0.51103  1.0000
  H   H992      1.0  0.02284  0.55005  0.67093  1.0000
  H   H993      1.0  0.29634  0.51069  0.73778  1.0000
  C   C567      1.0  0.26373  0.56874  0.58232  1.0000
  H   H994      1.0  0.27991  0.57119  0.58097  1.0000
  H   H995      1.0  0.25483  0.51650  0.80882  1.0000
  H   H996      1.0  0.25057  0.54810  0.87684  1.0000
  C   C568      1.0  0.24589  0.50142  0.84006  1.0000
  H   H997      1.0  0.26570  0.62984  0.56587  1.0000
  H   H998      1.0  0.04667  0.61964  0.64899  1.0000
  H   H999      1.0  0.32097  0.50650  0.50535  1.0000
  C   C569      1.0  0.27725  0.49141  0.55042  1.0000
  C   C570      1.0  0.06789  0.63534  0.52008  1.0000
  H   H1000     1.0  0.25114  0.63105  0.84060  1.0000
  C   C571      1.0  0.24608  0.51468  0.54099  1.0000
  H   H1001     1.0  0.04514  0.62629  0.49694  1.0000
  H   H1002     1.0  0.27751  0.59217  0.87880  1.0000
  H   H1003     1.0  0.28902  0.65491  0.64342  1.0000
  H   H1004     1.0  0.02702  0.73106  0.52910  1.0000
  H   H1005     1.0  0.24112  0.60665  0.58156  1.0000
  H   H1006     1.0  0.05711  0.59372  0.65972  1.0000
  H   H1007     1.0  0.08454  0.69836  0.51798  1.0000
  H   H1008     1.0  0.28507  0.57622  0.54611  1.0000
  H   H1009     1.0  0.20318  0.57257  0.58262  1.0000
  H   H1010     1.0  0.31473  0.53097  0.56801  1.0000
  H   H1011     1.0  0.29765  0.55876  0.89206  1.0000
  H   H1012     1.0  0.32195  0.66312  0.63243  1.0000
  C   C572      1.0  0.21052  0.63276  0.52428  1.0000
  C   C573      1.0  0.21259  0.65112  0.52960  1.0000
  C   C574      1.0  0.23191  0.65730  0.52535  1.0000
  C   C575      1.0  0.24936  0.64529  0.51554  1.0000
  C   C576      1.0  0.24739  0.62701  0.50979  1.0000
  C   C577      1.0  0.22795  0.62058  0.51440  1.0000
  H   H1013     1.0  0.19918  0.66066  0.53708  1.0000
  H   H1014     1.0  0.23333  0.67152  0.52964  1.0000
  H   H1015     1.0  0.26077  0.61799  0.50168  1.0000
  H   H1016     1.0  0.22636  0.60657  0.50988  1.0000
  H   H1017     1.0  0.14766  0.66259  0.52538  1.0000
  C   C578      1.0  0.24928  0.49984  0.47928  1.0000
  H   H1018     1.0  0.27901  0.56085  0.51935  1.0000
  H   H1019     1.0  0.23758  0.52411  0.52935  1.0000
  S   S191      1.0  0.21240  0.52760  0.56973  1.0000
  C   C579      1.0  0.23079  0.56296  0.85472  1.0000
  C   C580      1.0  0.25474  0.52273  0.75091  1.0000
  H   H1020     1.0  0.07921  0.60779  0.48798  1.0000
  H   H1021     1.0  0.26400  0.55613  0.85210  1.0000
  S   S192      1.0  0.99302  0.71166  0.62487  1.0000
  H   H1022     1.0  0.31371  0.61135  0.62176  1.0000
  C   C581      1.0  0.07966  0.62326  0.57866  1.0000
  C   C582      1.0  0.10136  0.61921  0.57528  1.0000
  C   C583      1.0  0.11229  0.60224  0.56619  1.0000
  C   C584      1.0  0.10153  0.58909  0.56080  1.0000
  C   C585      1.0  0.07985  0.59362  0.56339  1.0000
  C   C586      1.0  0.06891  0.61087  0.57210  1.0000
  H   H1023     1.0  0.10975  0.62879  0.58029  1.0000
  H   H1024     1.0  0.12902  0.59894  0.56405  1.0000
  H   H1025     1.0  0.07154  0.58358  0.55892  1.0000
  H   H1026     1.0  0.05219  0.61419  0.57431  1.0000
  Fe  Fe95      1.0  0.30783  0.56702  0.81985  1.0000
  H   H1027     1.0  0.23297  0.57039  0.83821  1.0000
  H   H1028     1.0  0.07607  0.68611  0.54443  1.0000
  H   H1029     1.0  0.08343  0.55118  0.59801  1.0000
  C   C587      1.0  0.25689  0.54337  0.48098  1.0000
  C   C588      1.0  0.03548  0.70591  0.61691  1.0000
  H   H1030     1.0  0.25106  0.49838  0.73622  1.0000
  H   H1031     1.0  0.06180  0.62061  0.52641  1.0000
  H   H1032     1.0  0.03516  0.68977  0.62339  1.0000
  H   H1033     1.0  0.04709  0.60740  0.61554  1.0000
  H   H1034     1.0  0.27282  0.50391  0.51923  1.0000
  H   H1035     1.0  0.07972  0.58502  0.60745  1.0000
  C   C589      1.0  0.26860  0.57888  0.54411  1.0000
  H   H1036     1.0  0.06405  0.71151  0.53445  1.0000
  H   H1037     1.0  0.08274  0.53810  0.62469  1.0000
  H   H1038     1.0  0.01518  0.57429  0.65552  1.0000
  H   H1039     1.0  0.22673  0.58597  0.55053  1.0000
  H   H1040     1.0  0.23577  0.60114  0.84734  1.0000
  H   H1041     1.0  0.26664  0.59334  0.53256  1.0000
  H   H1042     1.0  0.29081  0.48445  0.70729  1.0000
  H   H1043     1.0  0.21896  0.56146  0.89827  1.0000
  C   C590      1.0  0.28081  0.56028  0.89202  1.0000
  H   H1044     1.0  0.01403  0.71310  0.54817  1.0000
  H   H1045     1.0  0.26253  0.59359  0.83763  1.0000
  H   H1046     1.0  0.24162  0.50079  0.59307  1.0000
  H   H1047     1.0  0.23844  0.53045  0.75021  1.0000
  H   H1048     1.0  0.10066  0.66510  0.59056  1.0000
  H   H1049     1.0  0.22296  0.59700  0.88261  1.0000
  H   H1050     1.0  0.06884  0.70156  0.61010  1.0000
  C   C591      1.0  0.27037  0.61326  0.56432  1.0000
  H   H1051     1.0  0.25152  0.56613  0.52661  1.0000
  C   C592      1.0  0.24845  0.50165  0.57691  1.0000
  H   H1052     1.0  0.08276  0.68558  0.57895  1.0000
  C   C593      1.0  0.10083  0.66016  0.49445  1.0000
  N   N40       1.0  0.05283  0.57468  0.62813  1.0000
  C   C594      1.0  0.07600  0.57237  0.62051  1.0000
  C   C595      1.0  0.04510  0.59695  0.63077  1.0000
  H   H1053     1.0  0.28501  0.50161  0.77371  1.0000
  C   C596      1.0  0.04890  0.55953  0.64801  1.0000
  C   C597      1.0  0.08684  0.55178  0.61329  1.0000
  H   H1054     1.0  0.01369  0.56072  0.62832  1.0000
  C   C598      1.0  0.02816  0.56473  0.66282  1.0000
  C   C599      1.0  0.29412  0.49576  0.73472  1.0000
  H   H1055     1.0  0.08421  0.57394  0.63268  1.0000
  H   H1056     1.0  0.02821  0.60017  0.63663  1.0000
  C   C600      1.0  0.01937  0.57267  0.61553  1.0000
  H   H1057     1.0  0.04991  0.54372  0.64474  1.0000
  H   H1058     1.0  0.06128  0.55811  0.65722  1.0000
  H   H1059     1.0  0.05144  0.64958  0.54651  1.0000
  C   C601      1.0  0.05457  0.71255  0.60925  1.0000
  C   C602      1.0  0.31658  0.63091  0.83910  1.0000
  H   H1060     1.0  0.31358  0.58215  0.75917  1.0000
  H   H1061     1.0  0.11512  0.59671  0.49530  1.0000
  H   H1062     1.0  0.14445  0.54750  0.48499  1.0000
  C   C603      1.0  0.27480  0.57798  0.87451  1.0000
  C   C604      1.0  0.05582  0.60471  0.64507  1.0000
  C   C605      1.0  0.31934  0.65256  0.62293  1.0000
  N   N41       1.0  0.11519  0.69777  0.54403  1.0000
  C   C606      1.0  0.09434  0.71092  0.54142  1.0000
  C   C607      1.0  0.12701  0.70992  0.55250  1.0000
  C   C608      1.0  0.11283  0.67785  0.55890  1.0000
  C   C609      1.0  0.12640  0.69260  0.52341  1.0000
  C   C610      1.0  0.26847  0.49065  0.57124  1.0000
  H   H1063     1.0  0.22533  0.51163  0.50429  1.0000
  H   H1064     1.0  0.24515  0.49354  0.76333  1.0000
  C   C611      1.0  0.14835  0.67934  0.52317  1.0000
  H   H1065     1.0  0.28838  0.66670  0.61681  1.0000
  H   H1066     1.0  0.10495  0.67551  0.48696  1.0000
  H   H1067     1.0  0.10393  0.55077  0.61109  1.0000
  H   H1068     1.0  0.23478  0.56014  0.56221  1.0000
  S   S193      1.0  0.30506  0.54378  0.75290  1.0000
  H   H1069     1.0  0.12826  0.66897  0.56190  1.0000
  H   H1070     1.0  0.11755  0.68361  0.51752  1.0000
  H   H1071     1.0  0.12712  0.70676  0.51130  1.0000
  H   H1072     1.0  0.29699  0.61956  0.65612  1.0000
  C   C612      1.0  0.23095  0.49846  0.81112  1.0000
  H   H1073     1.0  0.10632  0.66732  0.55224  1.0000
  H   H1074     1.0  0.27272  0.56394  0.90729  1.0000
  H   H1075     1.0  0.27474  0.53825  0.57265  1.0000
  H   H1076     1.0  0.30443  0.52189  0.52359  1.0000
  H   H1077     1.0  0.06917  0.67187  0.49027  1.0000
  C   C613      1.0  0.07917  0.70077  0.53416  1.0000
  C   C614      1.0  0.31620  0.60961  0.84201  1.0000
  H   H1078     1.0  0.27190  0.53780  0.59949  1.0000
  H   H1079     1.0  0.15631  0.68154  0.53515  1.0000
  H   H1080     1.0  0.15838  0.68382  0.50816  1.0000
  C   C615      1.0  0.01150  0.72720  0.53636  1.0000
  C   C616      1.0  0.26479  0.54516  0.58563  1.0000
  H   H1081     1.0  0.11679  0.71754  0.56511  1.0000
  C   C617      1.0  0.01695  0.72014  0.61638  1.0000
  H   H1082     1.0  0.26462  0.53078  0.73760  1.0000
  N   N42       1.0  0.07272  0.63834  0.49680  1.0000
  H   H1083     1.0  0.28646  0.57538  0.86043  1.0000
  H   H1084     1.0  0.28039  0.61297  0.54897  1.0000
  H   H1085     1.0  0.19073  0.62563  0.48586  1.0000
  C   C618      1.0  0.23330  0.57641  0.56411  1.0000
  H   H1086     1.0  0.21895  0.57585  0.91764  1.0000
  H   H1087     1.0  0.21688  0.57165  0.86329  1.0000
  H   H1088     1.0  0.27953  0.60546  0.57658  1.0000
  H   H1089     1.0  0.26695  0.54651  0.54255  1.0000
  C   C619      1.0  0.29029  0.49927  0.71235  1.0000
  Fe  Fe96      1.0  0.99043  0.63680  0.62196  1.0000
  C   C620      1.0  0.25514  0.61927  0.85412  1.0000
  C   C621      1.0  0.04316  0.57011  0.61167  1.0000
  H   H1090     1.0  0.24920  0.54086  0.58869  1.0000
  H   H1091     1.0  0.21068  0.59609  0.58395  1.0000
  H   H1092     1.0  0.22976  0.50292  0.79500  1.0000
  H   H1093     1.0  0.05658  0.66815  0.52382  1.0000
  H   H1094     1.0  0.22778  0.54716  0.85533  1.0000
  C   C622      1.0  0.25061  0.60404  0.56635  1.0000
  H   H1095     1.0  0.30987  0.54469  0.54324  1.0000
  C   C623      1.0  0.09940  0.68035  0.58012  1.0000
  C   C624      1.0  0.10343  0.60780  0.50372  1.0000
  N   N43       1.0  0.25410  0.58152  0.56429  1.0000
  H   H1096     1.0  0.11416  0.64834  0.48943  1.0000
  H   H1097     1.0  0.13974  0.69964  0.55992  1.0000
  C   C625      1.0  0.23701  0.58692  0.88798  1.0000
  C   C626      1.0  0.25148  0.59807  0.85151  1.0000
  C   C627      1.0  0.25053  0.56132  0.86377  1.0000
  H   H1098     1.0  0.26422  0.52985  0.49102  1.0000
  H   H1099     1.0  0.09852  0.65943  0.51133  1.0000
  C   C628      1.0  0.05263  0.63996  0.48930  1.0000
  H   H1100     1.0  0.01158  0.58837  0.61819  1.0000
  C   C629      1.0  0.29570  0.65322  0.62718  1.0000
  H   H1101     1.0  0.27167  0.61913  0.85430  1.0000
  C   C630      1.0  0.31788  0.56283  0.73630  1.0000
  H   H1102     1.0  0.01447  0.57038  0.60154  1.0000
  H   H1103     1.0  0.23618  0.48484  0.50977  1.0000
  H   H1104     1.0  0.25527  0.57381  0.59700  1.0000
  H   H1105     1.0  0.24156  0.61389  0.55460  1.0000
  C   C631      1.0  0.05210  0.65271  0.52953  1.0000
  H   H1106     1.0  0.03052  0.57219  0.67517  1.0000
  H   H1107     1.0  0.04779  0.58008  0.59665  1.0000
  H   H1108     1.0  0.08203  0.63351  0.52684  1.0000
  H   H1109     1.0  0.03613  0.65315  0.52712  1.0000
  N   N44       1.0  0.25318  0.58082  0.86993  1.0000
  C   C632      1.0  0.08115  0.65801  0.48744  1.0000
  C   C633      1.0  0.25673  0.49952  0.75024  1.0000
  H   H1110     1.0  0.21787  0.49301  0.49265  1.0000
  H   H1111     1.0  0.22554  0.54025  0.48072  1.0000
  C   C634      1.0  0.08768  0.61977  0.48971  1.0000
  H   H1112     1.0  0.26289  0.49981  0.48618  1.0000
  C   C635      1.0  0.28337  0.48593  0.77198  1.0000
  H   H1113     1.0  0.29113  0.63964  0.62370  1.0000
  C   C636      1.0  0.32025  0.58011  0.74349  1.0000
  H   H1114     1.0  0.31688  0.63706  0.58904  1.0000
  H   H1115     1.0  0.30295  0.50656  0.70189  1.0000
  H   H1116     1.0  0.30511  0.53040  0.49658  1.0000
  H   H1117     1.0  0.09627  0.72530  0.53006  1.0000
  H   H1118     1.0  0.24897  0.55447  0.49145  1.0000
  H   H1119     1.0  0.11199  0.61779  0.50856  1.0000
  H   H1120     1.0  0.31563  0.59566  0.65521  1.0000
  Fe  Fe97      1.0  0.99304  0.66277  0.57915  1.0000
  C   C637      1.0  0.31217  0.61116  0.65978  1.0000
  H   H1121     1.0  0.31113  0.64114  0.82586  1.0000
  C   C638      1.0  0.23273  0.48853  0.85309  1.0000
  C   C639      1.0  0.23096  0.49747  0.49737  1.0000
  H   H1122     1.0  0.00474  0.72372  0.52410  1.0000
  N   N45       1.0  0.27797  0.48658  0.75119  1.0000
  H   H1123     1.0  0.15352  0.63331  0.48741  1.0000
  C   C640      1.0  0.31482  0.52245  0.50841  1.0000
  H   H1124     1.0  0.21077  0.66189  0.48522  1.0000
  H   H1125     1.0  0.18189  0.65261  0.48261  1.0000
  H   H1126     1.0  0.14999  0.72077  0.52587  1.0000
  C   C641      1.0  0.13657  0.72720  0.53684  1.0000
  H   H1127     1.0  0.23294  0.48508  0.86947  1.0000
  H   H1128     1.0  0.30945  0.48559  0.73493  1.0000
  C   C642      1.0  0.32229  0.53743  0.55232  1.0000
  H   H1129     1.0  0.04633  0.88847  0.00331  1.0000
  H   H1130     1.0  0.30613  0.97344  0.08945  1.0000
  Fe  Fe98      1.0  0.18395  0.89024  0.07439  1.0000
  S   S194      1.0  0.19927  0.90869  0.04576  1.0000
  S   S195      1.0  0.20049  0.86138  0.09186  1.0000
  Fe  Fe99      1.0  0.14188  0.91787  0.07304  1.0000
  S   S196      1.0  0.15410  0.93887  0.04422  1.0000
  S   S197      1.0  0.10907  0.92182  0.09127  1.0000
  Fe  Fe100     1.0  0.17046  0.90906  0.03342  1.0000
  S   S198      1.0  0.17448  0.90007  0.00202  1.0000
  Fe  Fe101     1.0  0.18183  0.93655  0.05953  1.0000
  N   N46       1.0  0.06967  0.86186  0.14360  1.0000
  S   S199      1.0  0.15650  0.88843  0.06122  1.0000
  S   S200      1.0  0.16819  0.91783  0.08913  1.0000
  C   C643      1.0  0.25884  0.82103  0.11623  1.0000
  C   C644      1.0  0.29283  0.82856  0.12010  1.0000
  Fe  Fe102     1.0  0.02311  0.83598  0.08783  1.0000
  S   S201      1.0  0.01128  0.85703  0.06068  1.0000
  S   S202      1.0  0.04841  0.80878  0.08365  1.0000
  Fe  Fe103     1.0  0.01587  0.88247  0.07533  1.0000
  S   S203      1.0  0.03432  0.90622  0.05524  1.0000
  H   H1131     1.0  0.03587  0.78686  0.01356  1.0000
  S   S204      1.0  0.02989  0.86106  0.10084  1.0000
  C   C645      1.0  0.20975  0.84892  0.99332  1.0000
  H   H1132     1.0  0.03916  0.74172  0.07408  1.0000
  H   H1133     1.0  0.28340  0.86408  0.99750  1.0000
  H   H1134     1.0  0.00142  0.73354  0.39204  1.0000
  S   S205      1.0  0.29516  0.94233  0.32218  1.0000
  C   C646      1.0  0.05655  0.75774  0.01889  1.0000
  H   H1135     1.0  0.29622  0.86143  0.08782  1.0000
  N   N47       1.0  0.22174  0.82993  0.98477  1.0000
  Fe  Fe104     1.0  0.99744  0.86257  0.11848  1.0000
  C   C647      1.0  0.20924  0.97181  0.07524  1.0000
  H   H1136     1.0  0.19512  0.85489  0.98707  1.0000
  S   S206      1.0  0.99305  0.85996  0.15301  1.0000
  S   S207      1.0  0.28031  0.93130  0.27298  1.0000
  H   H1137     1.0  0.32012  0.92682  0.06269  1.0000
  H   H1138     1.0  0.06279  0.86822  0.99118  1.0000
  H   H1139     1.0  0.10054  0.90340  0.00155  1.0000
  H   H1140     1.0  0.23713  0.81082  0.00952  1.0000
  C   C648      1.0  0.06426  0.86612  0.02417  1.0000
  H   H1141     1.0  0.26816  0.86533  0.09426  1.0000
  Fe  Fe105     1.0  0.29823  0.81316  0.02665  1.0000
  S   S208      1.0  0.26683  0.80401  0.03740  1.0000
  C   C649      1.0  0.03729  0.78640  0.09075  1.0000
  H   H1142     1.0  0.27131  0.83280  0.07724  1.0000
  H   H1143     1.0  0.08097  0.83870  0.09934  1.0000
  H   H1144     1.0  0.01636  0.79631  0.11720  1.0000
  H   H1145     1.0  0.27590  0.81365  0.40849  1.0000
  H   H1146     1.0  0.05237  0.86859  0.03813  1.0000
  C   C650      1.0  0.08746  0.87372  0.13752  1.0000
  H   H1147     1.0  0.06544  0.74575  0.36337  1.0000
  C   C651      1.0  0.01776  0.75173  0.10029  1.0000
  C   C652      1.0  0.03415  0.75347  0.08362  1.0000
  C   C653      1.0  0.08185  0.85128  0.10736  1.0000
  H   H1148     1.0  0.09483  0.96776  0.07677  1.0000
  H   H1149     1.0  0.03507  0.84831  0.17291  1.0000
  H   H1150     1.0  0.01309  0.80100  0.98793  1.0000
  C   C654      1.0  0.14613  0.96416  0.12080  1.0000
  C   C655      1.0  0.24072  0.82193  0.99498  1.0000
  C   C656      1.0  0.31937  0.91494  0.07700  1.0000
  C   C657      1.0  0.21845  0.84612  0.07567  1.0000
  C   C658      1.0  0.21934  0.82467  0.07991  1.0000
  C   C659      1.0  0.23397  0.81200  0.06773  1.0000
  C   C660      1.0  0.24829  0.82060  0.05169  1.0000
  C   C661      1.0  0.24754  0.84208  0.04738  1.0000
  C   C662      1.0  0.23245  0.85487  0.05928  1.0000
  H   H1151     1.0  0.20857  0.81786  0.09256  1.0000
  H   H1152     1.0  0.23444  0.79542  0.07100  1.0000
  H   H1153     1.0  0.25844  0.84883  0.03484  1.0000
  H   H1154     1.0  0.23197  0.87143  0.05607  1.0000
  H   H1155     1.0  0.25774  0.97467  0.16259  1.0000
  H   H1156     1.0  0.19914  0.94908  0.10108  1.0000
  C   C663      1.0  0.08863  0.91747  0.08075  1.0000
  C   C664      1.0  0.09100  0.91598  0.05994  1.0000
  C   C665      1.0  0.07418  0.91293  0.05209  1.0000
  C   C666      1.0  0.05522  0.91041  0.06517  1.0000
  C   C667      1.0  0.05290  0.91188  0.08594  1.0000
  C   C668      1.0  0.06941  0.91578  0.09359  1.0000
  H   H1157     1.0  0.10566  0.91753  0.04983  1.0000
  H   H1158     1.0  0.07597  0.91223  0.03591  1.0000
  H   H1159     1.0  0.03812  0.91066  0.09594  1.0000
  H   H1160     1.0  0.06726  0.91752  0.10952  1.0000
  C   C669      1.0  0.30970  0.81533  0.37563  1.0000
  C   C670      1.0  0.13288  0.90075  0.00295  1.0000
  C   C671      1.0  0.15333  0.89478  0.99342  1.0000
  H   H1161     1.0  0.30262  0.88996  0.11190  1.0000
  H   H1162     1.0  0.13437  0.97441  0.13004  1.0000
  H   H1163     1.0  0.12982  0.90798  0.01644  1.0000
  C   C672      1.0  0.28190  0.85820  0.08427  1.0000
  C   C673      1.0  0.08716  0.89070  0.14982  1.0000
  C   C674      1.0  0.04408  0.77064  0.07901  1.0000
  C   C675      1.0  0.25686  0.98268  0.19284  1.0000
  H   H1164     1.0  0.19246  0.82095  0.98501  1.0000
  H   H1165     1.0  0.05669  0.77187  0.06608  1.0000
  H   H1166     1.0  0.17747  0.94644  0.98773  1.0000
  C   C676      1.0  0.09497  0.84332  0.00946  1.0000
  C   C677      1.0  0.06359  0.82919  0.02866  1.0000
  H   H1167     1.0  0.08309  0.84089  0.16841  1.0000
  C   C678      1.0  0.29345  0.91769  0.25314  1.0000
  H   H1168     1.0  0.03908  0.86357  0.00890  1.0000
  H   H1169     1.0  0.30253  0.91471  0.08251  1.0000
  H   H1170     1.0  0.05744  0.83148  0.01409  1.0000
  H   H1171     1.0  0.20396  0.94037  0.99070  1.0000
  H   H1172     1.0  0.09829  0.85344  0.10395  1.0000
  H   H1173     1.0  0.26848  0.94023  0.19256  1.0000
  H   H1174     1.0  0.05056  0.83235  0.19077  1.0000
  H   H1175     1.0  0.27199  0.80386  0.99236  1.0000
  H   H1176     1.0  0.23221  0.83753  0.13442  1.0000
  H   H1177     1.0  0.31292  0.84741  0.27009  1.0000
  C   C679      1.0  0.20321  0.84593  0.01706  1.0000
  C   C680      1.0  0.31566  0.94037  0.09928  1.0000
  C   C681      1.0  0.21557  0.96932  0.11013  1.0000
  C   C682      1.0  0.24685  0.97559  0.17740  1.0000
  C   C683      1.0  0.08859  0.75392  0.99443  1.0000
  C   C684      1.0  0.99758  0.79708  0.98877  1.0000
  H   H1178     1.0  0.32065  0.93188  0.24657  1.0000
  H   H1179     1.0  0.23021  0.78537  0.98631  1.0000
  C   C685      1.0  0.10526  0.97936  0.07341  1.0000
  C   C686      1.0  0.31687  0.96032  0.08310  1.0000
  H   H1180     1.0  0.20406  0.80883  0.00680  1.0000
  H   H1181     1.0  0.28839  0.79891  0.07250  1.0000
  H   H1182     1.0  0.19054  0.83675  0.02249  1.0000
  H   H1183     1.0  0.21624  0.83872  0.02539  1.0000
  H   H1184     1.0  0.19709  0.86130  0.02169  1.0000
  H   H1185     1.0  0.29841  0.82960  0.07614  1.0000
  C   C687      1.0  0.07541  0.74561  0.01196  1.0000
  H   H1186     1.0  0.28689  0.84491  0.12185  1.0000
  H   H1187     1.0  0.11174  0.98082  0.05668  1.0000
  C   C688      1.0  0.12253  0.97147  0.08660  1.0000
  C   C689      1.0  0.28352  0.90409  0.24730  1.0000
  C   C690      1.0  0.29317  0.89380  0.23083  1.0000
  H   H1188     1.0  0.03787  0.86582  0.13930  1.0000
  C   C691      1.0  0.20771  0.81404  0.98982  1.0000
  C   C692      1.0  0.05049  0.77764  0.00797  1.0000
  H   H1189     1.0  0.25899  0.94893  0.23911  1.0000
  H   H1190     1.0  0.07447  0.90397  0.14713  1.0000
  H   H1191     1.0  0.25069  0.81687  0.10534  1.0000
  H   H1192     1.0  0.11260  0.85621  0.03604  1.0000
  C   C693      1.0  0.31494  0.79796  0.43322  1.0000
  H   H1193     1.0  0.26830  0.90152  0.25554  1.0000
  H   H1194     1.0  0.10245  0.86280  0.13843  1.0000
  H   H1195     1.0  0.10330  0.74471  0.98906  1.0000
  H   H1196     1.0  0.06086  0.83732  0.13245  1.0000
  H   H1197     1.0  0.28913  0.78858  0.11919  1.0000
  C   C694      1.0  0.06821  0.85143  0.16589  1.0000
  H   H1198     1.0  0.07220  0.86559  0.10055  1.0000
  H   H1199     1.0  0.29175  0.96186  0.22573  1.0000
  Fe  Fe106     1.0  0.30145  0.94267  0.28801  1.0000
  H   H1200     1.0  0.10505  0.85173  0.06341  1.0000
  C   C695      1.0  0.11377  0.82561  0.01225  1.0000
  C   C696      1.0  0.29746  0.95091  0.18214  1.0000
  H   H1201     1.0  0.29729  0.90997  0.12766  1.0000
  C   C697      1.0  0.27852  0.94725  0.19915  1.0000
  H   H1202     1.0  0.26792  0.78938  0.09210  1.0000
  H   H1203     1.0  0.24952  0.87208  0.98588  1.0000
  H   H1204     1.0  0.30053  0.82357  0.15070  1.0000
  C   C698      1.0  0.20727  0.96206  0.09593  1.0000
  S   S209      1.0  0.31275  0.81752  0.99333  1.0000
  H   H1205     1.0  0.10126  0.85799  0.00500  1.0000
  H   H1206     1.0  0.31165  0.88500  0.13586  1.0000
  H   H1207     1.0  0.27679  0.81545  0.15075  1.0000
  H   H1208     1.0  0.10174  0.89710  0.14398  1.0000
  H   H1209     1.0  0.08463  0.80183  0.01848  1.0000
  H   H1210     1.0  0.08698  0.83218  0.13629  1.0000
  H   H1211     1.0  0.31977  0.87162  0.26906  1.0000
  H   H1212     1.0  0.21362  0.96185  0.12613  1.0000
  H   H1213     1.0  0.11458  0.96557  0.10236  1.0000
  H   H1214     1.0  0.99887  0.76579  0.12548  1.0000
  H   H1215     1.0  0.15360  0.98186  0.05741  1.0000
  S   S210      1.0  0.30868  0.97486  0.27890  1.0000
  C   C699      1.0  0.06341  0.78580  0.99024  1.0000
  C   C700      1.0  0.01549  0.75028  0.99788  1.0000
  C   C701      1.0  0.29168  0.79950  0.10435  1.0000
  H   H1216     1.0  0.04983  0.83138  0.04107  1.0000
  C   C702      1.0  0.11634  0.89814  0.99448  1.0000
  H   H1217     1.0  0.25709  0.80843  0.12986  1.0000
  C   C703      1.0  0.04954  0.87546  0.13912  1.0000
  H   H1218     1.0  0.23935  0.85141  0.10882  1.0000
  H   H1219     1.0  0.11619  0.81588  0.00022  1.0000
  H   H1220     1.0  0.25865  0.85007  0.40253  1.0000
  C   C704      1.0  0.01136  0.76719  0.11243  1.0000
  H   H1221     1.0  0.31700  0.81293  0.43616  1.0000
  C   C705      1.0  0.05259  0.87158  0.00574  1.0000
  H   H1222     1.0  0.15984  0.95904  0.12864  1.0000
  H   H1223     1.0  0.29843  0.80084  0.35526  1.0000
  C   C706      1.0  0.29275  0.81597  0.14209  1.0000
  H   H1224     1.0  0.29899  0.93887  0.10326  1.0000
  H   H1225     1.0  0.08089  0.80123  0.04619  1.0000
  H   H1226     1.0  0.22326  0.95897  0.21458  1.0000
  H   H1227     1.0  0.30017  0.79400  0.44280  1.0000
  H   H1228     1.0  0.05172  0.88429  0.12319  1.0000
  H   H1229     1.0  0.07393  0.87829  0.02181  1.0000
  H   H1230     1.0  0.08854  0.88176  0.12118  1.0000
  C   C707      1.0  0.07458  0.84483  0.13080  1.0000
  H   H1231     1.0  0.29370  0.98098  0.20297  1.0000
  C   C708      1.0  0.31269  0.89725  0.21989  1.0000
  C   C709      1.0  0.23461  0.94816  0.22337  1.0000
  H   H1232     1.0  0.29373  0.96460  0.17023  1.0000
  H   H1233     1.0  0.06612  0.86252  0.17646  1.0000
  H   H1234     1.0  0.28422  0.93482  0.21141  1.0000
  S   S211      1.0  0.19755  0.96453  0.05693  1.0000
  H   H1235     1.0  0.09067  0.87271  0.04845  1.0000
  H   H1236     1.0  0.30172  0.80006  0.14198  1.0000
  H   H1237     1.0  0.05273  0.82524  0.16628  1.0000
  H   H1238     1.0  0.02238  0.88901  0.15953  1.0000
  H   H1239     1.0  0.30693  0.83045  0.36507  1.0000
  C   C710      1.0  0.27481  0.84599  0.39441  1.0000
  H   H1240     1.0  0.06110  0.79689  0.03493  1.0000
  H   H1241     1.0  0.22560  0.94253  0.23865  1.0000
  H   H1242     1.0  0.04669  0.75194  0.03283  1.0000
  H   H1243     1.0  0.08687  0.88483  0.16650  1.0000
  C   C711      1.0  0.31310  0.92106  0.24236  1.0000
  C   C712      1.0  0.28550  0.82581  0.40658  1.0000
  C   C713      1.0  0.26058  0.81147  0.98207  1.0000
  H   H1244     1.0  0.29327  0.77419  0.08821  1.0000
  H   H1245     1.0  0.14009  0.94998  0.12079  1.0000
  S   S212      1.0  0.30710  0.84126  0.03285  1.0000
  C   C714      1.0  0.08263  0.77401  0.98359  1.0000
  H   H1246     1.0  0.30280  0.93714  0.17443  1.0000
  H   H1247     1.0  0.24141  0.93431  0.21616  1.0000
  N   N48       1.0  0.07729  0.84471  0.02743  1.0000
  H   H1248     1.0  0.31072  0.95260  0.18875  1.0000
  H   H1249     1.0  0.27867  0.80856  0.37567  1.0000
  Fe  Fe107     1.0  0.30512  0.97346  0.31313  1.0000
  C   C715      1.0  0.07358  0.80614  0.03228  1.0000
  C   C716      1.0  0.08436  0.84199  0.04784  1.0000
  H   H1250     1.0  0.11251  0.81503  0.02722  1.0000
  C   C717      1.0  0.28221  0.87201  0.98194  1.0000
  C   C718      1.0  0.25104  0.95935  0.22683  1.0000
  H   H1251     1.0  0.07068  0.84429  0.06038  1.0000
  H   H1252     1.0  0.09221  0.82606  0.05291  1.0000
  H   H1253     1.0  0.08919  0.84197  0.99559  1.0000
  N   N49       1.0  0.26686  0.96594  0.20834  1.0000
  C   C719      1.0  0.28318  0.83473  0.08561  1.0000
  H   H1254     1.0  0.31783  0.84787  0.38479  1.0000
  H   H1255     1.0  0.01285  0.75836  0.01118  1.0000
  C   C720      1.0  0.02111  0.78456  0.10762  1.0000
  C   C721      1.0  0.09900  0.85658  0.04868  1.0000
  H   H1256     1.0  0.28539  0.88325  0.22644  1.0000
  H   H1257     1.0  0.30883  0.79846  0.09983  1.0000
  N   N50       1.0  0.28129  0.82139  0.10676  1.0000
  H   H1258     1.0  0.32057  0.89119  0.05904  1.0000
  C   C722      1.0  0.19333  0.94850  0.97973  1.0000
  H   H1259     1.0  0.12813  0.83220  0.00998  1.0000
  H   H1260     1.0  0.16285  0.96311  0.09001  1.0000
  C   C723      1.0  0.30896  0.89705  0.12210  1.0000
  C   C724      1.0  0.24556  0.84129  0.12225  1.0000
  C   C725      1.0  0.05058  0.83868  0.17413  1.0000
  H   H1261     1.0  0.31143  0.85813  0.31419  1.0000
  C   C726      1.0  0.03872  0.89119  0.15355  1.0000
  H   H1262     1.0  0.03244  0.74224  0.37320  1.0000
  H   H1263     1.0  0.30931  0.82834  0.11246  1.0000
  C   C727      1.0  0.15303  0.97519  0.09861  1.0000
  H   H1264     1.0  0.27384  0.84432  0.37864  1.0000
  H   H1265     1.0  0.24208  0.97293  0.23376  1.0000
  H   H1266     1.0  0.13235  0.95755  0.08085  1.0000
  H   H1267     1.0  0.31563  0.84129  0.41179  1.0000
  H   H1268     1.0  0.25372  0.85003  0.12914  1.0000
  H   H1269     1.0  0.04588  0.89026  0.16708  1.0000
  H   H1270     1.0  0.28084  0.86607  0.06816  1.0000
  H   H1271     1.0  0.03809  0.90724  0.14470  1.0000
  H   H1272     1.0  0.03046  0.73934  0.99830  1.0000
  C   C728      1.0  0.28466  0.79026  0.08837  1.0000
  H   H1273     1.0  0.31586  0.89179  0.32059  1.0000
  H   H1274     1.0  0.31200  0.95931  0.06868  1.0000
  S   S213      1.0  0.99175  0.83538  0.10744  1.0000
  H   H1275     1.0  0.19457  0.96512  0.97673  1.0000
  N   N51       1.0  0.30772  0.81836  0.39755  1.0000
  H   H1276     1.0  0.28433  0.82872  0.42249  1.0000
  H   H1277     1.0  0.28270  0.85920  0.39346  1.0000
  C   C729      1.0  0.29531  0.80180  0.37193  1.0000
  H   H1278     1.0  0.21872  0.86183  0.98846  1.0000
  H   H1279     1.0  0.00334  0.74071  0.99997  1.0000
  H   H1280     1.0  0.29828  0.78569  0.38036  1.0000
  H   H1281     1.0  0.30564  0.78622  0.41029  1.0000
  H   H1282     1.0  0.24100  0.96088  0.18286  1.0000
  H   H1283     1.0  0.99688  0.73762  0.36592  1.0000
  H   H1284     1.0  0.99376  0.78934  0.00502  1.0000
  C   C730      1.0  0.28239  0.97445  0.21607  1.0000
  H   H1285     1.0  0.24573  0.83473  0.99983  1.0000
  H   H1286     1.0  0.20422  0.78400  0.98539  1.0000
  C   C731      1.0  0.12010  0.88902  0.97680  1.0000
  S   S214      1.0  0.05464  0.81053  0.97663  1.0000
  C   C732      1.0  0.31526  0.79784  0.41025  1.0000
  C   C733      1.0  0.21606  0.79423  0.98051  1.0000
  C   C734      1.0  0.01699  0.76535  0.97700  1.0000
  H   H1287     1.0  0.31923  0.94327  0.11369  1.0000
  H   H1288     1.0  0.31904  0.77186  0.97964  1.0000
  C   C735      1.0  0.32047  0.83444  0.39748  1.0000
  C   C736      1.0  0.99795  0.84187  0.62207  1.0000
  Fe  Fe108     1.0  0.24237  0.85691  0.88512  1.0000
  S   S215      1.0  0.22019  0.88427  0.89555  1.0000
  S   S216      1.0  0.23569  0.82647  0.88215  1.0000
  Fe  Fe109     1.0  0.28036  0.87685  0.87844  1.0000
  S   S217      1.0  0.26167  0.90633  0.88786  1.0000
  Fe  Fe110     1.0  0.24462  0.88562  0.91322  1.0000
  S   S218      1.0  0.23782  0.89001  0.94615  1.0000
  Fe  Fe111     1.0  0.23886  0.90287  0.86927  1.0000
  S   S219      1.0  0.22586  0.93025  0.84690  1.0000
  S   S220      1.0  0.26502  0.85639  0.90539  1.0000
  S   S221      1.0  0.25935  0.87521  0.85727  1.0000
  H   H1289     1.0  0.04469  0.91823  0.89899  1.0000
  Fe  Fe112     1.0  0.04378  0.79253  0.53561  1.0000
  S   S222      1.0  0.05578  0.79792  0.56223  1.0000
  S   S223      1.0  0.00963  0.79924  0.53438  1.0000
  Fe  Fe113     1.0  0.08619  0.77222  0.51510  1.0000
  S   S224      1.0  0.10194  0.77743  0.53975  1.0000
  Fe  Fe114     1.0  0.07475  0.76628  0.56158  1.0000
  C   C737      1.0  0.15854  0.96203  0.86489  1.0000
  Fe  Fe115     1.0  0.08183  0.80913  0.53833  1.0000
  S   S225      1.0  0.08671  0.84130  0.54079  1.0000
  S   S226      1.0  0.06016  0.75957  0.53739  1.0000
  S   S227      1.0  0.06863  0.80520  0.51130  1.0000
  Fe  Fe116     1.0  0.16079  0.95184  0.58081  1.0000
  S   S228      1.0  0.14002  0.94325  0.56273  1.0000
  C   C738      1.0  0.99338  0.84895  0.56354  1.0000
  Fe  Fe117     1.0  0.13552  0.93540  0.62181  1.0000
  S   S229      1.0  0.11277  0.92563  0.60733  1.0000
  S   S230      1.0  0.13483  0.93168  0.65597  1.0000
  Fe  Fe118     1.0  0.14046  0.91327  0.58538  1.0000
  S   S231      1.0  0.14637  0.88029  0.57865  1.0000
  Fe  Fe119     1.0  0.11405  0.95610  0.58611  1.0000
  H   H1290     1.0  0.99126  0.87553  0.61831  1.0000
  S   S232      1.0  0.16347  0.92077  0.60158  1.0000
  S   S233      1.0  0.13463  0.96702  0.60226  1.0000
  Fe  Fe120     1.0  0.03143  0.91170  0.75893  1.0000
  S   S234      1.0  0.05897  0.88691  0.76415  1.0000
  S   S235      1.0  0.03366  0.94514  0.75836  1.0000
  H   H1291     1.0  0.30493  0.81751  0.89405  1.0000
  S   S236      1.0  0.03307  0.85479  0.75338  1.0000
  Fe  Fe121     1.0  0.03507  0.86759  0.78128  1.0000
  S   S237      1.0  0.04075  0.84626  0.81147  1.0000
  Fe  Fe122     1.0  0.05436  0.87678  0.73606  1.0000
  S   S238      1.0  0.07913  0.86815  0.70952  1.0000
  H   H1292     1.0  0.17280  0.88170  0.96789  1.0000
  S   S239      1.0  0.02878  0.90312  0.72922  1.0000
  Fe  Fe123     1.0  0.07702  0.82696  0.95192  1.0000
  S   S240      1.0  0.06722  0.86135  0.94393  1.0000
  H   H1293     1.0  0.01100  0.80207  0.66530  1.0000
  Fe  Fe124     1.0  0.11770  0.82832  0.92263  1.0000
  S   S241      1.0  0.11158  0.86285  0.91310  1.0000
  S   S242      1.0  0.14447  0.80709  0.90765  1.0000
  Fe  Fe125     1.0  0.09950  0.86312  0.94685  1.0000
  H   H1294     1.0  0.21885  0.79746  0.96341  1.0000
  Fe  Fe126     1.0  0.07988  0.85807  0.91098  1.0000
  S   S243      1.0  0.06503  0.87804  0.88437  1.0000
  S   S244      1.0  0.10863  0.82877  0.95664  1.0000
  S   S245      1.0  0.08668  0.82347  0.91864  1.0000
  H   H1295     1.0  0.13595  0.80202  0.84334  1.0000
  H   H1296     1.0  0.14235  0.73676  0.54523  1.0000
  H   H1297     1.0  0.31985  0.76607  0.84854  1.0000
  H   H1298     1.0  0.00314  0.78118  0.94181  1.0000
  C   C739      1.0  0.04736  0.85539  0.83162  1.0000
  C   C740      1.0  0.04839  0.87626  0.83021  1.0000
  C   C741      1.0  0.05362  0.88298  0.84658  1.0000
  C   C742      1.0  0.05814  0.86887  0.86438  1.0000
  C   C743      1.0  0.05723  0.84799  0.86578  1.0000
  C   C744      1.0  0.05177  0.84132  0.84949  1.0000
  H   H1299     1.0  0.04500  0.88725  0.81655  1.0000
  H   H1300     1.0  0.05425  0.89918  0.84535  1.0000
  H   H1301     1.0  0.06044  0.83703  0.87949  1.0000
  H   H1302     1.0  0.05090  0.82518  0.85073  1.0000
  N   N52       1.0  0.99847  0.78244  0.97431  1.0000
  S   S246      1.0  0.07903  0.74103  0.58886  1.0000
  H   H1303     1.0  0.29902  0.82085  0.94189  1.0000
  C   C745      1.0  0.11787  0.91566  0.67157  1.0000
  C   C746      1.0  0.12077  0.90685  0.69177  1.0000
  C   C747      1.0  0.10807  0.89307  0.70402  1.0000
  C   C748      1.0  0.09233  0.88823  0.69613  1.0000
  C   C749      1.0  0.08883  0.89777  0.67630  1.0000
  C   C750      1.0  0.10153  0.91150  0.66407  1.0000
  H   H1304     1.0  0.13321  0.91021  0.69778  1.0000
  H   H1305     1.0  0.11088  0.88564  0.71933  1.0000
  H   H1306     1.0  0.07648  0.89424  0.67030  1.0000
  H   H1307     1.0  0.09851  0.91899  0.64897  1.0000
  C   C751      1.0  0.10302  0.85130  0.55252  1.0000
  C   C752      1.0  0.12065  0.83914  0.55971  1.0000
  C   C753      1.0  0.13371  0.84823  0.56772  1.0000
  C   C754      1.0  0.12912  0.86945  0.56898  1.0000
  C   C755      1.0  0.11125  0.88147  0.56228  1.0000
  C   C756      1.0  0.09839  0.87246  0.55398  1.0000
  H   H1308     1.0  0.12449  0.82289  0.55857  1.0000
  H   H1309     1.0  0.14755  0.83878  0.57276  1.0000
  H   H1310     1.0  0.10748  0.89781  0.56311  1.0000
  H   H1311     1.0  0.08483  0.88203  0.54842  1.0000
  H   H1312     1.0  0.14839  0.94828  0.92758  1.0000
  H   H1313     1.0  0.05355  0.84782  0.58330  1.0000
  H   H1314     1.0  0.01933  0.81649  0.95337  1.0000
  H   H1315     1.0  0.02157  0.83342  0.54687  1.0000
  H   H1316     1.0  0.06388  0.74503  0.49075  1.0000
  H   H1317     1.0  0.09373  0.94811  0.71645  1.0000
  H   H1318     1.0  0.17368  0.87036  0.53948  1.0000
  H   H1319     1.0  0.99665  0.83960  0.72677  1.0000
  H   H1320     1.0  0.26816  0.81015  0.84476  1.0000
  H   H1321     1.0  0.30430  0.75835  0.89483  1.0000
  H   H1322     1.0  0.16349  0.98198  0.83536  1.0000
  C   C757      1.0  0.27399  0.92825  0.81579  1.0000
  H   H1323     1.0  0.19441  0.92191  0.88297  1.0000
  C   C758      1.0  0.06603  0.97851  0.68448  1.0000
  H   H1324     1.0  0.19991  0.96452  0.82561  1.0000
  C   C759      1.0  0.20995  0.82215  0.88954  1.0000
  C   C760      1.0  0.20564  0.80371  0.88636  1.0000
  C   C761      1.0  0.18549  0.79941  0.89206  1.0000
  C   C762      1.0  0.16941  0.81346  0.90110  1.0000
  C   C763      1.0  0.17354  0.83204  0.90429  1.0000
  C   C764      1.0  0.19387  0.83640  0.89848  1.0000
  H   H1325     1.0  0.21797  0.79263  0.87951  1.0000
  H   H1326     1.0  0.18237  0.78505  0.88957  1.0000
  H   H1327     1.0  0.16114  0.84297  0.91124  1.0000
  H   H1328     1.0  0.19706  0.85067  0.90099  1.0000
  C   C765      1.0  0.26146  0.88612  0.95499  1.0000
  C   C766      1.0  0.00510  0.83379  0.55213  1.0000
  C   C767      1.0  0.03236  0.82831  0.60243  1.0000
  H   H1329     1.0  0.11180  0.78909  0.87602  1.0000
  H   H1330     1.0  0.09221  0.98118  0.61582  1.0000
  H   H1331     1.0  0.08109  0.93534  0.69367  1.0000
  C   C768      1.0  0.01022  0.80450  0.62359  1.0000
  H   H1332     1.0  0.02733  0.95325  0.71361  1.0000
  H   H1333     1.0  0.03631  0.93250  0.66328  1.0000
  H   H1334     1.0  0.16740  0.97506  0.70877  1.0000
  C   C769      1.0  0.00165  0.80187  0.60492  1.0000
  H   H1335     1.0  0.21565  0.95476  0.90671  1.0000
  H   H1336     1.0  0.05870  0.93014  0.71161  1.0000
  C   C770      1.0  0.04246  0.95262  0.77824  1.0000
  C   C771      1.0  0.03792  0.94291  0.79879  1.0000
  C   C772      1.0  0.04210  0.95122  0.81469  1.0000
  H   H1337     1.0  0.29468  0.76813  0.86248  1.0000
  H   H1338     1.0  0.03042  0.92948  0.80251  1.0000
  H   H1339     1.0  0.03789  0.94399  0.83058  1.0000
  C   C773      1.0  0.16742  0.94506  0.87820  1.0000
  H   H1340     1.0  0.09273  0.78020  0.96994  1.0000
  C   C774      1.0  0.19977  0.94208  0.85376  1.0000
  H   H1341     1.0  0.01404  0.97818  0.68255  1.0000
  H   H1342     1.0  0.21082  0.86573  0.52506  1.0000
  C   C775      1.0  0.28114  0.80217  0.83442  1.0000
  H   H1343     1.0  0.99533  0.95547  0.78447  1.0000
  C   C776      1.0  0.18787  0.93503  0.87262  1.0000
  H   H1344     1.0  0.03532  0.79319  0.94534  1.0000
  H   H1345     1.0  0.19742  0.94245  0.65192  1.0000
  C   C777      1.0  0.15074  0.93648  0.94145  1.0000
  H   H1346     1.0  0.15615  0.97886  0.92399  1.0000
  C   C778      1.0  0.04170  0.84821  0.59761  1.0000
  H   H1347     1.0  0.28405  0.82105  0.86834  1.0000
  S   S247      1.0  0.08494  0.97571  0.57667  1.0000
  H   H1348     1.0  0.15516  0.95491  0.96229  1.0000
  H   H1349     1.0  0.12508  0.73768  0.52806  1.0000
  C   C779      1.0  0.30451  0.94497  0.80264  1.0000
  H   H1350     1.0  0.00333  0.75205  0.60794  1.0000
  H   H1351     1.0  0.22538  0.90743  0.51544  1.0000
  H   H1352     1.0  0.11007  0.91216  0.92555  1.0000
  C   C780      1.0  0.18804  0.94445  0.51650  1.0000
  H   H1353     1.0  0.27972  0.78571  0.83622  1.0000
  H   H1354     1.0  0.15726  0.92114  0.93685  1.0000
  H   H1355     1.0  0.08882  0.96802  0.65803  1.0000
  H   H1356     1.0  0.26958  0.94876  0.78592  1.0000
  H   H1357     1.0  0.28082  0.80955  0.90619  1.0000
  C   C781      1.0  0.26408  0.93504  0.79615  1.0000
  C   C782      1.0  0.30320  0.91646  0.83377  1.0000
  H   H1358     1.0  0.04564  0.95543  0.88909  1.0000
  H   H1359     1.0  0.24702  0.93948  0.80086  1.0000
  H   H1360     1.0  0.17119  0.94693  0.51617  1.0000
  C   C783      1.0  0.02035  0.80397  0.94459  1.0000
  C   C784      1.0  0.21579  0.93834  0.91409  1.0000
  H   H1361     1.0  0.26634  0.92215  0.78753  1.0000
  H   H1362     1.0  0.03697  0.76343  0.59239  1.0000
  C   C785      1.0  0.31921  0.85941  0.83560  1.0000
  H   H1363     1.0  0.19763  0.87580  0.55413  1.0000
  H   H1364     1.0  0.31741  0.84705  0.92065  1.0000
  H   H1365     1.0  0.21591  0.94243  0.95320  1.0000
  H   H1366     1.0  0.09763  0.81485  0.87583  1.0000
  H   H1367     1.0  0.04594  0.92148  0.68663  1.0000
  H   H1368     1.0  0.29592  0.90265  0.84127  1.0000
  H   H1369     1.0  0.18602  0.96746  0.64023  1.0000
  C   C786      1.0  0.29554  0.80531  0.89556  1.0000
  H   H1370     1.0  0.99349  0.84593  0.60657  1.0000
  H   H1371     1.0  0.10931  0.94005  0.91899  1.0000
  C   C787      1.0  0.17380  0.95832  0.67365  1.0000
  H   H1372     1.0  0.20926  0.93000  0.53704  1.0000
  C   C788      1.0  0.99540  0.81929  0.54739  1.0000
  C   C789      1.0  0.03482  0.96684  0.70580  1.0000
  C   C790      1.0  0.19445  0.93447  0.92671  1.0000
  C   C791      1.0  0.06782  0.94260  0.70418  1.0000
  H   H1373     1.0  0.17908  0.98025  0.60415  1.0000
  H   H1374     1.0  0.18409  0.89689  0.56570  1.0000
  C   C792      1.0  0.09623  0.73669  0.47833  1.0000
  C   C793      1.0  0.21719  0.89376  0.56144  1.0000
  Fe  Fe127     1.0  0.00732  0.88173  0.74772  1.0000
  C   C794      1.0  0.05662  0.96523  0.88990  1.0000
  H   H1375     1.0  0.02981  0.86215  0.59422  1.0000
  C   C795      1.0  0.21202  0.89987  0.51566  1.0000
  H   H1376     1.0  0.22840  0.93290  0.92330  1.0000
  H   H1377     1.0  0.07550  0.93568  0.73510  1.0000
  C   C796      1.0  0.16443  0.94191  0.95460  1.0000
  C   C797      1.0  0.19755  0.89238  0.55366  1.0000
  C   C798      1.0  0.19395  0.92765  0.53485  1.0000
  H   H1378     1.0  0.30348  0.79028  0.90297  1.0000
  C   C799      1.0  0.17393  0.90395  0.52843  1.0000
  H   H1379     1.0  0.30249  0.86189  0.83803  1.0000
  C   C800      1.0  0.29042  0.80465  0.87450  1.0000
  C   C801      1.0  0.03816  0.93602  0.67810  1.0000
  H   H1380     1.0  0.02234  0.94066  0.68663  1.0000
  H   H1381     1.0  0.08934  0.96305  0.88807  1.0000
  H   H1382     1.0  0.18296  0.93160  0.54887  1.0000
  C   C802      1.0  0.10780  0.80422  0.86589  1.0000
  H   H1383     1.0  0.17912  0.97246  0.90513  1.0000
  C   C803      1.0  0.21059  0.84634  0.94943  1.0000
  H   H1384     1.0  0.16118  0.90921  0.54075  1.0000
  H   H1385     1.0  0.17072  0.91433  0.51382  1.0000
  H   H1386     1.0  0.06626  0.94708  0.66415  1.0000
  N   N53       1.0  0.30789  0.79570  0.85887  1.0000
  H   H1387     1.0  0.04552  0.81498  0.60222  1.0000
  H   H1388     1.0  0.19575  0.91750  0.93270  1.0000
  H   H1389     1.0  0.13187  0.92221  0.91061  1.0000
  H   H1390     1.0  0.27715  0.79618  0.87763  1.0000
  C   C804      1.0  0.07686  0.94807  0.72127  1.0000
  H   H1391     1.0  0.13292  0.97107  0.67281  1.0000
  S   S248      1.0  0.31531  0.87159  0.87296  1.0000
  C   C805      1.0  0.05515  0.73322  0.60003  1.0000
  H   H1392     1.0  0.26795  0.82322  0.97025  1.0000
  H   H1393     1.0  0.14360  0.87576  0.95380  1.0000
  H   H1394     1.0  0.02334  0.79136  0.62593  1.0000
  H   H1395     1.0  0.21719  0.84790  0.93271  1.0000
  N   N54       1.0  0.12546  0.83474  0.84463  1.0000
  C   C806      1.0  0.12797  0.81221  0.85480  1.0000
  C   C807      1.0  0.14646  0.83874  0.83293  1.0000
  C   C808      1.0  0.11080  0.83787  0.82958  1.0000
  C   C809      1.0  0.11680  0.84801  0.86107  1.0000
  C   C810      1.0  0.16405  0.83291  0.84583  1.0000
  C   C811      1.0  0.10602  0.85973  0.81693  1.0000
  C   C812      1.0  0.12191  0.87013  0.85646  1.0000
  H   H1396     1.0  0.04976  0.84966  0.60982  1.0000
  H   H1397     1.0  0.13805  0.80903  0.86668  1.0000
  H   H1398     1.0  0.14598  0.85524  0.82559  1.0000
  H   H1399     1.0  0.15150  0.83000  0.81986  1.0000
  H   H1400     1.0  0.11671  0.82694  0.81843  1.0000
  H   H1401     1.0  0.09538  0.83429  0.83765  1.0000
  H   H1402     1.0  0.09966  0.84957  0.86483  1.0000
  H   H1403     1.0  0.12215  0.84044  0.87589  1.0000
  H   H1404     1.0  0.15912  0.83775  0.86113  1.0000
  H   H1405     1.0  0.16989  0.81595  0.84822  1.0000
  H   H1406     1.0  0.17736  0.84055  0.83747  1.0000
  H   H1407     1.0  0.12009  0.86580  0.80828  1.0000
  H   H1408     1.0  0.09614  0.87063  0.82679  1.0000
  H   H1409     1.0  0.09665  0.85914  0.80534  1.0000
  H   H1410     1.0  0.13827  0.86991  0.85744  1.0000
  H   H1411     1.0  0.11212  0.87891  0.86832  1.0000
  H   H1412     1.0  0.11867  0.87909  0.84141  1.0000
  C   C813      1.0  0.14055  0.88252  0.96759  1.0000
  N   N55       1.0  0.29742  0.92474  0.81271  1.0000
  H   H1413     1.0  0.28007  0.93639  0.85320  1.0000
  H   H1414     1.0  0.07618  0.95441  0.91322  1.0000
  C   C814      1.0  0.05132  0.95326  0.67345  1.0000
  H   H1415     1.0  0.16374  0.94757  0.67239  1.0000
  H   H1416     1.0  0.01427  0.79869  0.59178  1.0000
  C   C815      1.0  0.30568  0.90846  0.79922  1.0000
  N   N56       1.0  0.05499  0.96029  0.69200  1.0000
  C   C816      1.0  0.17022  0.96888  0.84577  1.0000
  H   H1417     1.0  0.26697  0.94044  0.82533  1.0000
  H   H1418     1.0  0.02065  0.81141  0.92817  1.0000
  C   C817      1.0  0.27900  0.89218  0.94161  1.0000
  C   C818      1.0  0.05144  0.96891  0.81019  1.0000
  H   H1419     1.0  0.19825  0.83690  0.95228  1.0000
  H   H1420     1.0  0.20203  0.92189  0.96457  1.0000
  H   H1421     1.0  0.02522  0.82895  0.58880  1.0000
  H   H1422     1.0  0.14999  0.94414  0.70866  1.0000
  H   H1423     1.0  0.15845  0.93963  0.89287  1.0000
  H   H1424     1.0  0.23912  0.84737  0.95870  1.0000
  C   C819      1.0  0.05193  0.97025  0.77372  1.0000
  H   H1425     1.0  0.29394  0.95802  0.80939  1.0000
  H   H1426     1.0  0.03759  0.97340  0.71859  1.0000
  H   H1427     1.0  0.00693  0.74792  0.55760  1.0000
  C   C820      1.0  0.01385  0.81825  0.66174  1.0000
  C   C821      1.0  0.26301  0.87642  0.97530  1.0000
  C   C822      1.0  0.29967  0.87827  0.96861  1.0000
  N   N57       1.0  0.11366  0.85293  0.63950  1.0000
  C   C823      1.0  0.10319  0.87262  0.62753  1.0000
  C   C824      1.0  0.12920  0.85861  0.64967  1.0000
  C   C825      1.0  0.09719  0.84367  0.65576  1.0000
  C   C826      1.0  0.12393  0.83857  0.62440  1.0000
  C   C827      1.0  0.08487  0.87070  0.61786  1.0000
  C   C828      1.0  0.14587  0.87014  0.63528  1.0000
  C   C829      1.0  0.10397  0.83050  0.67579  1.0000
  C   C830      1.0  0.13685  0.81792  0.63290  1.0000
  H   H1428     1.0  0.09731  0.88464  0.63746  1.0000
  H   H1429     1.0  0.11435  0.87932  0.61447  1.0000
  H   H1430     1.0  0.13766  0.84477  0.65860  1.0000
  H   H1431     1.0  0.12103  0.86857  0.66123  1.0000
  H   H1432     1.0  0.08461  0.85613  0.66127  1.0000
  H   H1433     1.0  0.08948  0.83404  0.64919  1.0000
  H   H1434     1.0  0.11224  0.83439  0.61724  1.0000
  H   H1435     1.0  0.13429  0.84648  0.61140  1.0000
  H   H1436     1.0  0.07220  0.86468  0.62949  1.0000
  H   H1437     1.0  0.07815  0.88639  0.61033  1.0000
  H   H1438     1.0  0.08994  0.86116  0.60553  1.0000
  H   H1439     1.0  0.13909  0.88594  0.62825  1.0000
  H   H1440     1.0  0.15691  0.87221  0.64456  1.0000
  H   H1441     1.0  0.15502  0.86142  0.62313  1.0000
  H   H1442     1.0  0.10784  0.84032  0.68528  1.0000
  H   H1443     1.0  0.11729  0.81792  0.67318  1.0000
  H   H1444     1.0  0.09077  0.82335  0.68534  1.0000
  H   H1445     1.0  0.14952  0.82008  0.64002  1.0000
  H   H1446     1.0  0.14433  0.80962  0.61986  1.0000
  H   H1447     1.0  0.12695  0.80770  0.64381  1.0000
  N   N58       1.0  0.19464  0.90546  0.53295  1.0000
  C   C831      1.0  0.19085  0.95899  0.84028  1.0000
  S   S249      1.0  0.00732  0.89304  0.77732  1.0000
  H   H1448     1.0  0.27790  0.89992  0.92601  1.0000
  S   S250      1.0  0.18856  0.96688  0.56406  1.0000
  H   H1449     1.0  0.30317  0.94848  0.78601  1.0000
  H   H1450     1.0  0.00183  0.97840  0.75043  1.0000
  H   H1451     1.0  0.15336  0.97385  0.63807  1.0000
  H   H1452     1.0  0.01497  0.86534  0.62755  1.0000
  N   N59       1.0  0.01689  0.82500  0.62215  1.0000
  C   C832      1.0  0.01756  0.74100  0.60808  1.0000
  C   C833      1.0  0.02744  0.82300  0.64034  1.0000
  C   C834      1.0  0.20007  0.93908  0.95980  1.0000
  H   H1453     1.0  0.99358  0.78834  0.60937  1.0000
  C   C835      1.0  0.14151  0.95964  0.71146  1.0000
  H   H1454     1.0  0.15463  0.88350  0.52435  1.0000
  C   C836      1.0  0.30991  0.77249  0.86199  1.0000
  C   C837      1.0  0.30261  0.80458  0.83767  1.0000
  H   H1455     1.0  0.18187  0.95033  0.68681  1.0000
  H   H1456     1.0  0.21544  0.90864  0.56692  1.0000
  H   H1457     1.0  0.03358  0.83708  0.64018  1.0000
  H   H1458     1.0  0.04138  0.81049  0.63966  1.0000
  S   S251      1.0  0.09886  0.88730  0.96599  1.0000
  H   H1459     1.0  0.02008  0.75566  0.96477  1.0000
  H   H1460     1.0  0.31132  0.89391  0.93840  1.0000
  H   H1461     1.0  0.30039  0.91355  0.78410  1.0000
  C   C838      1.0  0.22113  0.87656  0.51618  1.0000
  C   C839      1.0  0.29794  0.88873  0.94858  1.0000
  H   H1462     1.0  0.23611  0.87256  0.52191  1.0000
  C   C840      1.0  0.19126  0.95859  0.65453  1.0000
  C   C841      1.0  0.29710  0.93183  0.84904  1.0000
  H   H1463     1.0  0.02199  0.82004  0.67384  1.0000
  H   H1464     1.0  0.18075  0.87784  0.51161  1.0000
  H   H1465     1.0  0.23135  0.89192  0.54957  1.0000
  H   H1466     1.0  0.30282  0.92410  0.86360  1.0000
  H   H1467     1.0  0.23698  0.82297  0.95446  1.0000
  C   C842      1.0  0.00154  0.79277  0.95196  1.0000
  H   H1468     1.0  0.20701  0.90616  0.50047  1.0000
  N   N60       1.0  0.08426  0.93151  0.89323  1.0000
  C   C843      1.0  0.10735  0.92547  0.89308  1.0000
  C   C844      1.0  0.08059  0.92853  0.87278  1.0000
  C   C845      1.0  0.07375  0.91686  0.91051  1.0000
  C   C846      1.0  0.07736  0.95361  0.89666  1.0000
  C   C847      1.0  0.11469  0.92510  0.91338  1.0000
  C   C848      1.0  0.09197  0.94120  0.85351  1.0000
  C   C849      1.0  0.05004  0.91914  0.91318  1.0000
  H   H1469     1.0  0.00088  0.86017  0.56716  1.0000
  H   H1470     1.0  0.11327  0.90983  0.88881  1.0000
  H   H1471     1.0  0.11598  0.93627  0.88118  1.0000
  H   H1472     1.0  0.06396  0.93210  0.87151  1.0000
  H   H1473     1.0  0.08550  0.91198  0.87111  1.0000
  H   H1474     1.0  0.08040  0.90056  0.90871  1.0000
  H   H1475     1.0  0.07658  0.91846  0.92573  1.0000
  H   H1476     1.0  0.18396  0.93797  0.91531  1.0000
  H   H1477     1.0  0.21947  0.88124  0.57492  1.0000
  H   H1478     1.0  0.19721  0.94101  0.50152  1.0000
  H   H1479     1.0  0.26800  0.91400  0.82447  1.0000
  H   H1480     1.0  0.25793  0.79940  0.97455  1.0000
  H   H1481     1.0  0.08564  0.94041  0.83977  1.0000
  H   H1482     1.0  0.08982  0.95775  0.85468  1.0000
  H   H1483     1.0  0.10879  0.93478  0.85046  1.0000
  H   H1484     1.0  0.04207  0.93345  0.91920  1.0000
  H   H1485     1.0  0.04502  0.90604  0.92498  1.0000
  H   H1486     1.0  0.22491  0.87340  0.50015  1.0000
  H   H1487     1.0  0.09905  0.80149  0.85474  1.0000
  H   H1488     1.0  0.99780  0.80177  0.63724  1.0000
  H   H1489     1.0  0.20390  0.86224  0.95238  1.0000
  H   H1490     1.0  0.99879  0.82897  0.66320  1.0000
  S   S252      1.0  0.13301  0.97446  0.87292  1.0000
  H   H1491     1.0  0.21978  0.92935  0.90134  1.0000
  N   N61       1.0  0.16090  0.97895  0.67784  1.0000
  H   H1492     1.0  0.99873  0.75977  0.53377  1.0000
  C   C850      1.0  0.03661  0.74744  0.59939  1.0000
  H   H1493     1.0  0.13519  0.93515  0.95095  1.0000
  C   C851      1.0  0.31744  0.75979  0.88174  1.0000
  H   H1494     1.0  0.19120  0.95945  0.51851  1.0000
  S   S253      1.0  0.10542  0.75259  0.49126  1.0000
  H   H1495     1.0  0.30420  0.94588  0.84322  1.0000
  H   H1496     1.0  0.06910  0.96285  0.72634  1.0000
  C   C852      1.0  0.22818  0.83627  0.96180  1.0000
  C   C853      1.0  0.17289  0.97943  0.91920  1.0000
  N   N62       1.0  0.18575  0.94645  0.94413  1.0000
  C   C854      1.0  0.17102  0.88253  0.52591  1.0000
  H   H1497     1.0  0.20441  0.96489  0.65700  1.0000
  H   H1498     1.0  0.30636  0.75291  0.95825  1.0000
  C   C855      1.0  0.18498  0.96941  0.93693  1.0000
  C   C856      1.0  0.99828  0.74573  0.54605  1.0000
  C   C857      1.0  0.05671  0.97817  0.78958  1.0000
  H   H1499     1.0  0.27917  0.80948  0.81838  1.0000
  H   H1500     1.0  0.13844  0.95924  0.72839  1.0000
  H   H1501     1.0  0.04408  0.96652  0.66270  1.0000
  H   H1502     1.0  0.31415  0.79729  0.82560  1.0000
  C   C858      1.0  0.08831  0.97379  0.67238  1.0000
  H   H1503     1.0  0.20095  0.97302  0.93204  1.0000
  S   S254      1.0  0.05424  0.98015  0.83077  1.0000
  H   H1504     1.0  0.29946  0.89397  0.80653  1.0000
  H   H1505     1.0  0.12612  0.96255  0.70676  1.0000
  C   C859      1.0  0.15387  0.97719  0.70087  1.0000
  H   H1506     1.0  0.09881  0.96266  0.68182  1.0000
  H   H1507     1.0  0.17772  0.97802  0.94981  1.0000
  C   C860      1.0  0.07514  0.73590  0.48065  1.0000
  H   H1508     1.0  0.16571  0.92838  0.96723  1.0000
  C   C861      1.0  0.99922  0.86233  0.62852  1.0000
  H   H1509     1.0  0.30323  0.82145  0.83375  1.0000
  H   H1510     1.0  0.05955  0.97533  0.87469  1.0000
  H   H1511     1.0  0.31999  0.80788  0.92552  1.0000
  H   H1512     1.0  0.04849  0.97578  0.90087  1.0000
  H   H1513     1.0  0.05524  0.97809  0.75793  1.0000
  C   C862      1.0  0.31619  0.81669  0.93833  1.0000
  H   H1514     1.0  0.31998  0.91046  0.83312  1.0000
  H   H1515     1.0  0.32039  0.84447  0.94671  1.0000
  H   H1516     1.0  0.32121  0.80640  0.95222  1.0000
  H   H1517     1.0  0.99026  0.77341  0.57364  1.0000
  H   H1518     1.0  0.99024  0.81544  0.59967  1.0000
  H   H1519     1.0  0.99035  0.86320  0.64435  1.0000
  H   H1520     1.0  0.03136  0.77184  0.97525  1.0000
  C   C863      1.0  0.15707  0.88575  0.97569  1.0000
  Fe  Fe128     1.0  0.50718  0.18396  0.12623  1.0000
  S   S255      1.0  0.53027  0.17757  0.09808  1.0000
  S   S256      1.0  0.50289  0.21349  0.13846  1.0000
  Fe  Fe129     1.0  0.49453  0.14188  0.13436  1.0000
  S   S257      1.0  0.51709  0.13186  0.10694  1.0000
  S   S258      1.0  0.47495  0.11889  0.15360  1.0000
  Fe  Fe130     1.0  0.53942  0.14660  0.11698  1.0000
  S   S259      1.0  0.57356  0.13609  0.11731  1.0000
  Fe  Fe131     1.0  0.50576  0.16378  0.09071  1.0000
  S   S260      1.0  0.50114  0.16923  0.05787  1.0000
  S   S261      1.0  0.51793  0.15383  0.14593  1.0000
  S   S262      1.0  0.48159  0.17282  0.11726  1.0000
  H   H1521     1.0  0.44298  0.21608  0.99634  1.0000
  H   H1522     1.0  0.34487  0.98772  0.17363  1.0000
  S   S263      1.0  0.62571  0.08084  0.05288  1.0000
  C   C864      1.0  0.61953  0.20833  0.98008  1.0000
  H   H1523     1.0  0.56935  0.16120  0.03896  1.0000
  C   C865      1.0  0.59726  0.09488  0.00909  1.0000
  S   S264      1.0  0.34652  0.15893  0.41588  1.0000
  H   H1524     1.0  0.37152  0.07489  0.07947  1.0000
  Fe  Fe132     1.0  0.33553  0.10213  0.22428  1.0000
  H   H1525     1.0  0.35981  0.06092  0.46120  1.0000
  S   S265      1.0  0.34829  0.10376  0.44621  1.0000
  H   H1526     1.0  0.59716  0.05225  0.13462  1.0000
  S   S266      1.0  0.34758  0.16536  0.35634  1.0000
  H   H1527     1.0  0.47656  0.22997  0.17226  1.0000
  H   H1528     1.0  0.38256  0.17558  0.15781  1.0000
  S   S267      1.0  0.36955  0.09689  0.21170  1.0000
  C   C866      1.0  0.35875  0.01319  0.20577  1.0000
  Fe  Fe133     1.0  0.34169  0.11156  0.26499  1.0000
  S   S268      1.0  0.37645  0.10688  0.25588  1.0000
  C   C867      1.0  0.60325  0.15241  0.99881  1.0000
  Fe  Fe134     1.0  0.37070  0.12453  0.22474  1.0000
  S   S269      1.0  0.38768  0.14987  0.20575  1.0000
  Fe  Fe135     1.0  0.37280  0.07945  0.24351  1.0000
  C   C868      1.0  0.32738  0.06251  0.07073  1.0000
  S   S270      1.0  0.33622  0.13153  0.23478  1.0000
  C   C869      1.0  0.32829  0.13394  0.31058  1.0000
  H   H1529     1.0  0.38413  0.22265  0.01823  1.0000
  H   H1530     1.0  0.45589  0.22250  0.13706  1.0000
  H   H1531     1.0  0.36893  0.08668  0.04464  1.0000
  H   H1532     1.0  0.41999  0.09728  0.15509  1.0000
  Fe  Fe136     1.0  0.38185  0.19194  0.06137  1.0000
  S   S271      1.0  0.37575  0.18002  0.09525  1.0000
  S   S272      1.0  0.41041  0.18221  0.03906  1.0000
  Fe  Fe137     1.0  0.34577  0.17441  0.08932  1.0000
  H   H1533     1.0  0.32739  0.20718  0.36633  1.0000
  Fe  Fe138     1.0  0.35939  0.21231  0.09820  1.0000
  C   C870      1.0  0.64175  0.15999  0.06206  1.0000
  S   S273      1.0  0.35277  0.18493  0.05503  1.0000
  H   H1534     1.0  0.63013  0.14093  0.01457  1.0000
  H   H1535     1.0  0.34521  0.08150  0.09101  1.0000
  H   H1536     1.0  0.61735  0.17422  0.10183  1.0000
  C   C871      1.0  0.62508  0.21949  0.08463  1.0000
  H   H1537     1.0  0.38724  0.98888  0.16562  1.0000
  H   H1538     1.0  0.38003  0.99836  0.09241  1.0000
  H   H1539     1.0  0.37411  0.03971  0.09735  1.0000
  H   H1540     1.0  0.59544  0.22133  0.07643  1.0000
  S   S274      1.0  0.35820  0.23150  0.12226  1.0000
  H   H1541     1.0  0.35680  0.03713  0.26263  1.0000
  Fe  Fe139     1.0  0.33862  0.21690  0.06163  1.0000
  C   C872      1.0  0.34656  0.00240  0.17785  1.0000
  H   H1542     1.0  0.34849  0.08363  0.03374  1.0000
  C   C873      1.0  0.56716  0.99056  0.33262  1.0000
  H   H1543     1.0  0.38153  0.20453  0.40903  1.0000
  C   C874      1.0  0.38959  0.19899  0.98650  1.0000
  C   C875      1.0  0.60629  0.11496  0.00542  1.0000
  H   H1544     1.0  0.59339  0.16788  0.99624  1.0000
  C   C876      1.0  0.58166  0.13601  0.98414  1.0000
  C   C877      1.0  0.38841  0.02650  0.24910  1.0000
  H   H1545     1.0  0.62978  0.01906  0.13811  1.0000
  Fe  Fe140     1.0  0.33023  0.16110  0.38928  1.0000
  H   H1546     1.0  0.46970  0.22322  0.09793  1.0000
  H   H1547     1.0  0.62727  0.02628  0.17182  1.0000
  H   H1548     1.0  0.57316  0.00245  0.33782  1.0000
  C   C878      1.0  0.57460  0.13532  0.02210  1.0000
  H   H1549     1.0  0.41727  0.99756  0.17600  1.0000
  H   H1550     1.0  0.36016  0.05331  0.02464  1.0000
  H   H1551     1.0  0.65361  0.16624  0.98631  1.0000
  C   C879      1.0  0.34000  0.15307  0.33896  1.0000
  C   C880      1.0  0.35416  0.14788  0.32143  1.0000
  C   C881      1.0  0.34842  0.13812  0.30742  1.0000
  H   H1552     1.0  0.33781  0.19883  0.15756  1.0000
  H   H1553     1.0  0.38025  0.04955  0.05431  1.0000
  H   H1554     1.0  0.34567  0.22546  0.97602  1.0000
  H   H1555     1.0  0.36972  0.15114  0.31882  1.0000
  H   H1556     1.0  0.35960  0.13380  0.29423  1.0000
  H   H1557     1.0  0.39308  0.23226  0.17701  1.0000
  H   H1558     1.0  0.41490  0.20389  0.99861  1.0000
  H   H1559     1.0  0.36295  0.19180  0.44595  1.0000
  H   H1560     1.0  0.44075  0.19353  0.23125  1.0000
  H   H1561     1.0  0.33693  0.21727  0.01430  1.0000
  H   H1562     1.0  0.63478  0.20270  0.98407  1.0000
  H   H1563     1.0  0.33449  0.02019  0.15075  1.0000
  H   H1564     1.0  0.40944  0.20843  0.18271  1.0000
  C   C882      1.0  0.47555  0.17369  0.05338  1.0000
  C   C883      1.0  0.47232  0.16954  0.03497  1.0000
  C   C884      1.0  0.45223  0.17239  0.03086  1.0000
  C   C885      1.0  0.43517  0.17967  0.04500  1.0000
  C   C886      1.0  0.43826  0.18444  0.06326  1.0000
  C   C887      1.0  0.45852  0.18133  0.06751  1.0000
  H   H1565     1.0  0.48542  0.16381  0.02395  1.0000
  H   H1566     1.0  0.44991  0.16879  0.01668  1.0000
  H   H1567     1.0  0.42512  0.19048  0.07405  1.0000
  H   H1568     1.0  0.46099  0.18511  0.08149  1.0000
  C   C888      1.0  0.45144  0.12787  0.16908  1.0000
  C   C889      1.0  0.44374  0.14905  0.16834  1.0000
  C   C890      1.0  0.42405  0.15566  0.17954  1.0000
  C   C891      1.0  0.41232  0.14118  0.19201  1.0000
  C   C892      1.0  0.42026  0.12004  0.19310  1.0000
  C   C893      1.0  0.43971  0.11343  0.18157  1.0000
  H   H1569     1.0  0.45271  0.16024  0.15872  1.0000
  H   H1570     1.0  0.41776  0.17197  0.17850  1.0000
  H   H1571     1.0  0.41149  0.10874  0.20288  1.0000
  H   H1572     1.0  0.44569  0.09703  0.18236  1.0000
  C   C894      1.0  0.58758  0.12162  0.09851  1.0000
  C   C895      1.0  0.57763  0.11283  0.08715  1.0000
  C   C896      1.0  0.58943  0.10047  0.07292  1.0000
  C   C897      1.0  0.61113  0.09743  0.06963  1.0000
  C   C898      1.0  0.62099  0.10686  0.08047  1.0000
  C   C899      1.0  0.60925  0.11858  0.09518  1.0000
  H   H1573     1.0  0.56089  0.11504  0.08977  1.0000
  H   H1574     1.0  0.58174  0.09306  0.06466  1.0000
  H   H1575     1.0  0.63764  0.10488  0.07781  1.0000
  H   H1576     1.0  0.61696  0.12528  0.10405  1.0000
  H   H1577     1.0  0.63328  0.06637  0.98600  1.0000
  C   C900      1.0  0.33960  0.10550  0.05431  1.0000
  H   H1578     1.0  0.56274  0.12612  0.02165  1.0000
  H   H1579     1.0  0.38743  0.21545  0.34612  1.0000
  H   H1580     1.0  0.44171  0.19377  0.17721  1.0000
  H   H1581     1.0  0.41870  0.01128  0.23659  1.0000
  C   C901      1.0  0.35957  0.04087  0.03837  1.0000
  H   H1582     1.0  0.57296  0.19660  0.09700  1.0000
  H   H1583     1.0  0.34902  0.15297  0.19220  1.0000
  H   H1584     1.0  0.59003  0.20349  0.11078  1.0000
  C   C902      1.0  0.36846  0.18624  0.16355  1.0000
  C   C903      1.0  0.34908  0.01738  0.15701  1.0000
  N   N63       1.0  0.36355  0.99849  0.19060  1.0000
  H   H1585     1.0  0.57387  0.12254  0.98587  1.0000
  H   H1586     1.0  0.32474  0.14822  0.18976  1.0000
  C   C904      1.0  0.62372  0.05017  0.10912  1.0000
  H   H1587     1.0  0.56226  0.16949  0.01359  1.0000
  H   H1588     1.0  0.34641  0.04119  0.10400  1.0000
  N   N64       1.0  0.34959  0.06593  0.06482  1.0000
  H   H1589     1.0  0.34654  0.00252  0.26847  1.0000
  H   H1590     1.0  0.34623  0.12123  0.17669  1.0000
  H   H1591     1.0  0.54656  0.15549  0.03401  1.0000
  Fe  Fe141     1.0  0.32960  0.13268  0.43096  1.0000
  S   S275      1.0  0.33670  0.00317  0.09170  1.0000
  H   H1592     1.0  0.61462  0.15195  0.98412  1.0000
  C   C905      1.0  0.56293  0.15675  0.02696  1.0000
  N   N65       1.0  0.61359  0.19129  0.07114  1.0000
  C   C906      1.0  0.63638  0.18271  0.06534  1.0000
  C   C907      1.0  0.61165  0.21408  0.07120  1.0000
  C   C908      1.0  0.60295  0.18863  0.05449  1.0000
  C   C909      1.0  0.60524  0.17937  0.09187  1.0000
  N   N66       1.0  0.44498  0.22416  0.18149  1.0000
  H   H1593     1.0  0.34291  0.01305  0.21500  1.0000
  C   C910      1.0  0.57962  0.19746  0.05616  1.0000
  H   H1594     1.0  0.64611  0.02053  0.08575  1.0000
  C   C911      1.0  0.35196  0.98807  0.10947  1.0000
  H   H1595     1.0  0.35918  0.05535  0.11563  1.0000
  H   H1596     1.0  0.63660  0.07263  0.13319  1.0000
  C   C912      1.0  0.64646  0.07340  0.97778  1.0000
  H   H1597     1.0  0.34102  0.11800  0.04061  1.0000
  H   H1598     1.0  0.60422  0.17196  0.05408  1.0000
  S   S276      1.0  0.36850  0.22471  0.06477  1.0000
  H   H1599     1.0  0.32829  0.10424  0.12779  1.0000
  H   H1600     1.0  0.39110  0.20616  0.38161  1.0000
  H   H1601     1.0  0.55071  0.15501  0.99048  1.0000
  C   C913      1.0  0.40530  0.22425  0.18629  1.0000
  C   C914      1.0  0.35791  0.20499  0.45377  1.0000
  C   C915      1.0  0.44014  0.19590  0.21454  1.0000
  C   C916      1.0  0.56513  0.15511  0.97882  1.0000
  H   H1602     1.0  0.61916  0.03586  0.10702  1.0000
  C   C917      1.0  0.45022  0.20653  0.16955  1.0000
  C   C918      1.0  0.40961  0.20793  0.98356  1.0000
  C   C919      1.0  0.35717  0.20676  0.39082  1.0000
  S   S277      1.0  0.33858  0.08236  0.25518  1.0000
  H   H1603     1.0  0.36545  0.18337  0.18060  1.0000
  H   H1604     1.0  0.35662  0.04479  0.20981  1.0000
  H   H1605     1.0  0.35499  0.19684  0.38054  1.0000
  H   H1606     1.0  0.61073  0.19568  0.03905  1.0000
  C   C920      1.0  0.52412  0.22627  0.12838  1.0000
  H   H1607     1.0  0.38844  0.20502  0.45957  1.0000
  C   C921      1.0  0.64829  0.06500  0.12155  1.0000
  C   C922      1.0  0.61549  0.15241  0.01578  1.0000
  H   H1608     1.0  0.44872  0.19776  0.14076  1.0000
  C   C923      1.0  0.33491  0.16018  0.18532  1.0000
  S   S278      1.0  0.34037  0.14230  0.10586  1.0000
  H   H1609     1.0  0.32345  0.06735  0.03740  1.0000
  H   H1610     1.0  0.40179  0.00476  0.19923  1.0000
  C   C924      1.0  0.36001  0.03605  0.19682  1.0000
  H   H1611     1.0  0.57562  0.21374  0.05844  1.0000
  H   H1612     1.0  0.62706  0.05932  0.09336  1.0000
  N   N67       1.0  0.42942  0.12406  0.10408  1.0000
  C   C925      1.0  0.41572  0.11447  0.09503  1.0000
  C   C926      1.0  0.43363  0.11014  0.12406  1.0000
  C   C927      1.0  0.44944  0.12537  0.08876  1.0000
  C   C928      1.0  0.41799  0.14531  0.10737  1.0000
  C   C929      1.0  0.41070  0.12577  0.07365  1.0000
  C   C930      1.0  0.41455  0.10711  0.14110  1.0000
  C   C931      1.0  0.46935  0.12405  0.09740  1.0000
  C   C932      1.0  0.42774  0.15702  0.11896  1.0000
  H   H1613     1.0  0.42286  0.09811  0.09364  1.0000
  H   H1614     1.0  0.40038  0.11386  0.10524  1.0000
  H   H1615     1.0  0.44423  0.11594  0.13117  1.0000
  H   H1616     1.0  0.44188  0.09450  0.12110  1.0000
  H   H1617     1.0  0.45325  0.11255  0.07969  1.0000
  H   H1618     1.0  0.44787  0.13984  0.07708  1.0000
  H   H1619     1.0  0.41633  0.15556  0.09233  1.0000
  H   H1620     1.0  0.40197  0.14446  0.11591  1.0000
  H   H1621     1.0  0.40048  0.14103  0.07455  1.0000
  H   H1622     1.0  0.42477  0.12791  0.06189  1.0000
  H   H1623     1.0  0.40201  0.11642  0.06796  1.0000
  H   H1624     1.0  0.40603  0.12194  0.14574  1.0000
  H   H1625     1.0  0.40391  0.09881  0.13682  1.0000
  H   H1626     1.0  0.46764  0.13476  0.10824  1.0000
  H   H1627     1.0  0.48195  0.12805  0.08440  1.0000
  H   H1628     1.0  0.47469  0.10807  0.10524  1.0000
  H   H1629     1.0  0.42949  0.14841  0.13455  1.0000
  H   H1630     1.0  0.41735  0.17201  0.12095  1.0000
  H   H1631     1.0  0.44275  0.16078  0.11018  1.0000
  C   C933      1.0  0.32404  0.17838  0.19676  1.0000
  H   H1632     1.0  0.39135  0.18349  0.99653  1.0000
  H   H1633     1.0  0.58386  0.09436  0.02191  1.0000
  H   H1634     1.0  0.62416  0.20953  0.10007  1.0000
  C   C934      1.0  0.60398  0.06216  0.12057  1.0000
  H   H1635     1.0  0.58171  0.12751  0.03590  1.0000
  H   H1636     1.0  0.64152  0.21837  0.07681  1.0000
  H   H1637     1.0  0.36161  0.21039  0.34855  1.0000
  C   C935      1.0  0.63988  0.02994  0.13898  1.0000
  C   C936      1.0  0.44571  0.21212  0.14733  1.0000
  H   H1638     1.0  0.35206  0.03259  0.15822  1.0000
  C   C937      1.0  0.36800  0.02406  0.25802  1.0000
  H   H1639     1.0  0.44019  0.22810  0.21342  1.0000
  H   H1640     1.0  0.61592  0.22252  0.05520  1.0000
  H   H1641     1.0  0.40128  0.22316  0.10261  1.0000
  H   H1642     1.0  0.36937  0.00810  0.21716  1.0000
  H   H1643     1.0  0.37572  0.03821  0.18845  1.0000
  C   C938      1.0  0.38431  0.99969  0.17678  1.0000
  N   N68       1.0  0.34079  0.16513  0.16217  1.0000
  H   H1644     1.0  0.33452  0.18152  0.20606  1.0000
  C   C939      1.0  0.58651  0.23135  0.98423  1.0000
  H   H1645     1.0  0.55010  0.99313  0.33789  1.0000
  H   H1646     1.0  0.39841  0.22346  0.20289  1.0000
  C   C940      1.0  0.63076  0.03907  0.15887  1.0000
  C   C941      1.0  0.44787  0.21623  0.20363  1.0000
  C   C942      1.0  0.40292  0.00945  0.24342  1.0000
  H   H1647     1.0  0.34694  0.20204  0.40567  1.0000
  C   C943      1.0  0.33500  0.08676  0.46535  1.0000
  C   C944      1.0  0.36226  0.00445  0.26145  1.0000
  C   C945      1.0  0.35754  0.14786  0.15507  1.0000
  C   C946      1.0  0.35910  0.05016  0.10105  1.0000
  H   H1648     1.0  0.61983  0.16789  0.01378  1.0000
  H   H1649     1.0  0.33682  0.09821  0.35112  1.0000
  H   H1650     1.0  0.35402  0.18747  0.13755  1.0000
  H   H1651     1.0  0.45044  0.18230  0.20867  1.0000
  H   H1652     1.0  0.36288  0.15136  0.13807  1.0000
  H   H1653     1.0  0.61400  0.11350  0.01887  1.0000
  H   H1654     1.0  0.60937  0.08150  0.01354  1.0000
  H   H1655     1.0  0.40781  0.23122  0.01804  1.0000
  H   H1656     1.0  0.34472  0.08819  0.32769  1.0000
  H   H1657     1.0  0.64507  0.18336  0.07749  1.0000
  H   H1658     1.0  0.49342  0.23150  0.09610  1.0000
  H   H1659     1.0  0.33127  0.00798  0.18698  1.0000
  H   H1660     1.0  0.42924  0.21897  0.14686  1.0000
  H   H1661     1.0  0.37590  0.20882  0.99400  1.0000
  H   H1662     1.0  0.42397  0.19592  0.21328  1.0000
  C   C947      1.0  0.35232  0.08489  0.04854  1.0000
  C   C948      1.0  0.60614  0.22405  0.98969  1.0000
  H   H1663     1.0  0.38461  0.01527  0.16716  1.0000
  H   H1664     1.0  0.59209  0.06665  0.11041  1.0000
  H   H1665     1.0  0.63364  0.14960  0.07473  1.0000
  N   N69       1.0  0.59102  0.13507  0.00287  1.0000
  H   H1666     1.0  0.64345  0.19229  0.05095  1.0000
  H   H1667     1.0  0.60640  0.14898  0.03145  1.0000
  C   C949      1.0  0.35186  0.12599  0.16004  1.0000
  C   C950      1.0  0.39710  0.99007  0.24637  1.0000
  H   H1668     1.0  0.36297  0.03321  0.06963  1.0000
  C   C951      1.0  0.37236  0.21254  0.46155  1.0000
  C   C952      1.0  0.37316  0.98867  0.10600  1.0000
  H   H1669     1.0  0.36158  0.01038  0.14554  1.0000
  H   H1670     1.0  0.37180  0.02764  0.03427  1.0000
  H   H1671     1.0  0.48926  0.21911  0.07633  1.0000
  H   H1672     1.0  0.60095  0.16483  0.08998  1.0000
  H   H1673     1.0  0.37210  0.20212  0.15849  1.0000
  H   H1674     1.0  0.61617  0.05028  0.15788  1.0000
  C   C953      1.0  0.37684  0.98751  0.25549  1.0000
  C   C954      1.0  0.40330  0.99472  0.18769  1.0000
  H   H1675     1.0  0.61902  0.11452  0.99176  1.0000
  C   C955      1.0  0.37973  0.19999  0.39469  1.0000
  H   H1676     1.0  0.34541  0.11025  0.06653  1.0000
  H   H1677     1.0  0.58090  0.17951  0.11899  1.0000
  H   H1678     1.0  0.34821  0.04321  0.18698  1.0000
  C   C956      1.0  0.35645  0.06921  0.08372  1.0000
  C   C957      1.0  0.36380  0.04725  0.05750  1.0000
  C   C958      1.0  0.33708  0.21470  0.45582  1.0000
  H   H1679     1.0  0.37142  0.14621  0.16228  1.0000
  C   C959      1.0  0.33589  0.08527  0.34366  1.0000
  S   S279      1.0  0.32869  0.20580  0.09552  1.0000
  S   S280      1.0  0.39666  0.05039  0.24504  1.0000
  C   C960      1.0  0.34946  0.18493  0.15464  1.0000
  C   C961      1.0  0.37084  0.22269  0.34667  1.0000
  H   H1680     1.0  0.46689  0.19926  0.16887  1.0000
  H   H1681     1.0  0.38374  0.18281  0.39695  1.0000
  H   H1682     1.0  0.32669  0.04643  0.07897  1.0000
  H   H1683     1.0  0.57479  0.19727  0.04142  1.0000
  H   H1684     1.0  0.57038  0.18755  0.06836  1.0000
  C   C962      1.0  0.34485  0.06619  0.47004  1.0000
  C   C963      1.0  0.53413  0.22615  0.10797  1.0000
  H   H1685     1.0  0.63848  0.15848  0.04704  1.0000
  H   H1686     1.0  0.36597  0.11460  0.15578  1.0000
  H   H1687     1.0  0.57045  0.99348  0.31558  1.0000
  H   H1688     1.0  0.34037  0.12457  0.15100  1.0000
  C   C964      1.0  0.36625  0.22971  0.47181  1.0000
  H   H1689     1.0  0.60629  0.07680  0.12410  1.0000
  H   H1690     1.0  0.65124  0.00447  0.11016  1.0000
  H   H1691     1.0  0.34383  0.07046  0.35159  1.0000
  H   H1692     1.0  0.64800  0.07652  0.10700  1.0000
  H   H1693     1.0  0.52874  0.21844  0.09821  1.0000
  H   H1694     1.0  0.65487  0.01983  0.14186  1.0000
  H   H1695     1.0  0.59309  0.09232  0.99488  1.0000
  C   C965      1.0  0.58624  0.19063  0.10511  1.0000
  H   H1696     1.0  0.46464  0.21334  0.20484  1.0000
  H   H1697     1.0  0.64204  0.04658  0.16323  1.0000
  H   H1698     1.0  0.32745  0.16891  0.13482  1.0000
  N   N70       1.0  0.64285  0.04513  0.11896  1.0000
  N   N71       1.0  0.35069  0.22951  0.38296  1.0000
  H   H1699     1.0  0.32613  0.04241  0.35014  1.0000
  H   H1700     1.0  0.34465  0.03510  0.04175  1.0000
  C   C966      1.0  0.48213  0.23036  0.08688  1.0000
  C   C967      1.0  0.32256  0.16630  0.15187  1.0000
  C   C968      1.0  0.32242  0.22417  0.36449  1.0000
  H   H1701     1.0  0.32290  0.10475  0.05926  1.0000
  H   H1702     1.0  0.36982  0.23203  0.33107  1.0000
  H   H1703     1.0  0.32866  0.23161  0.34871  1.0000
  C   C969      1.0  0.33096  0.23182  0.46614  1.0000
  H   H1704     1.0  0.57075  0.16988  0.97674  1.0000
  C   C970      1.0  0.44155  0.23221  0.98778  1.0000
  H   H1705     1.0  0.58737  0.14022  0.65791  1.0000
  C   C971      1.0  0.49066  0.08649  0.58305  1.0000
  H   H1706     1.0  0.50543  0.07891  0.57471  1.0000
  Fe  Fe142     1.0  0.43382  0.11152  0.64617  1.0000
  S   S281      1.0  0.43838  0.09836  0.61705  1.0000
  S   S282      1.0  0.45389  0.09606  0.67086  1.0000
  Fe  Fe143     1.0  0.39779  0.14448  0.63246  1.0000
  S   S283      1.0  0.40049  0.13464  0.60212  1.0000
  S   S284      1.0  0.37035  0.16823  0.64207  1.0000
  Fe  Fe144     1.0  0.40364  0.10257  0.62059  1.0000
  S   S285      1.0  0.38696  0.07802  0.61604  1.0000
  Fe  Fe145     1.0  0.43469  0.13157  0.60123  1.0000
  S   S286      1.0  0.45735  0.14001  0.57227  1.0000
  S   S287      1.0  0.39928  0.11248  0.65128  1.0000
  S   S288      1.0  0.43175  0.14455  0.63008  1.0000
  Fe  Fe146     1.0  0.55345  0.11590  0.77078  1.0000
  S   S289      1.0  0.52585  0.10577  0.76397  1.0000
  S   S290      1.0  0.54843  0.13356  0.79766  1.0000
  Fe  Fe147     1.0  0.58283  0.09408  0.73765  1.0000
  S   S291      1.0  0.55823  0.08142  0.72879  1.0000
  S   S292      1.0  0.61692  0.08884  0.72461  1.0000
  Fe  Fe148     1.0  0.53904  0.11307  0.73014  1.0000
  S   S293      1.0  0.52162  0.12950  0.70362  1.0000
  Fe  Fe149     1.0  0.54678  0.07502  0.76288  1.0000
  S   S294      1.0  0.53361  0.04666  0.77923  1.0000
  S   S295      1.0  0.56473  0.12644  0.73690  1.0000
  S   S296      1.0  0.57333  0.08443  0.77174  1.0000
  Fe  Fe150     1.0  0.62061  0.12659  0.92967  1.0000
  S   S297      1.0  0.63213  0.15298  0.93620  1.0000
  S   S298      1.0  0.62018  0.09737  0.95283  1.0000
  Fe  Fe151     1.0  0.61207  0.14794  0.88668  1.0000
  S   S299      1.0  0.62255  0.17693  0.88989  1.0000
  S   S300      1.0  0.61055  0.13700  0.85692  1.0000
  H   H1707     1.0  0.50775  0.20314  0.54373  1.0000
  Fe  Fe152     1.0  0.60514  0.17257  0.92280  1.0000
  S   S301      1.0  0.63979  0.12702  0.89836  1.0000
  S   S302      1.0  0.59211  0.14551  0.91844  1.0000
  Fe  Fe153     1.0  0.54420  0.20018  0.56649  1.0000
  S   S303      1.0  0.57444  0.19441  0.57765  1.0000
  S   S304      1.0  0.51496  0.19560  0.58891  1.0000
  H   H1708     1.0  0.60711  0.99070  0.70423  1.0000
  S   S305      1.0  0.59454  0.21230  0.52973  1.0000
  Fe  Fe154     1.0  0.58747  0.18183  0.54841  1.0000
  S   S306      1.0  0.61197  0.15310  0.54987  1.0000
  H   H1709     1.0  0.54272  0.03604  0.73639  1.0000
  H   H1710     1.0  0.39236  0.05494  0.54517  1.0000
  S   S307      1.0  0.55674  0.18551  0.53843  1.0000
  H   H1711     1.0  0.35134  0.08692  0.50100  1.0000
  C   C972      1.0  0.52658  0.07849  0.60890  1.0000
  Fe  Fe155     1.0  0.59895  0.00619  0.64345  1.0000
  H   H1712     1.0  0.37766  0.05638  0.49733  1.0000
  H   H1713     1.0  0.32658  0.17943  0.50047  1.0000
  S   S308      1.0  0.59974  0.03950  0.64214  1.0000
  C   C973      1.0  0.58033  0.11388  0.68102  1.0000
  H   H1714     1.0  0.56090  0.15464  0.96386  1.0000
  H   H1715     1.0  0.32798  0.12289  0.58640  1.0000
  H   H1716     1.0  0.47072  0.21297  0.48630  1.0000
  H   H1717     1.0  0.53951  0.04161  0.71006  1.0000
  H   H1718     1.0  0.56981  0.12342  0.69190  1.0000
  C   C974      1.0  0.53809  0.09191  0.85002  1.0000
  C   C975      1.0  0.64798  0.02860  0.73015  1.0000
  C   C976      1.0  0.61359  0.20023  0.96495  1.0000
  S   S309      1.0  0.58061  0.98819  0.67031  1.0000
  C   C977      1.0  0.60281  0.13009  0.56216  1.0000
  H   H1719     1.0  0.34505  0.08978  0.68206  1.0000
  C   C978      1.0  0.38952  0.07124  0.54724  1.0000
  H   H1720     1.0  0.51526  0.20829  0.48397  1.0000
  C   C979      1.0  0.57444  0.11117  0.57638  1.0000
  C   C980      1.0  0.58156  0.12961  0.56658  1.0000
  H   H1721     1.0  0.53907  0.10974  0.87310  1.0000
  H   H1722     1.0  0.55802  0.11094  0.57938  1.0000
  H   H1723     1.0  0.57061  0.14341  0.56226  1.0000
  C   C981      1.0  0.62619  0.07635  0.70323  1.0000
  C   C982      1.0  0.61431  0.06479  0.69692  1.0000
  C   C983      1.0  0.62289  0.05417  0.68033  1.0000
  C   C984      1.0  0.64321  0.05531  0.66994  1.0000
  S   S310      1.0  0.59660  0.01025  0.61021  1.0000
  H   H1724     1.0  0.32372  0.05854  0.60580  1.0000
  H   H1725     1.0  0.59875  0.06368  0.70507  1.0000
  H   H1726     1.0  0.61399  0.04471  0.67599  1.0000
  H   H1727     1.0  0.52947  0.11935  0.60826  1.0000
  H   H1728     1.0  0.47314  0.19760  0.65043  1.0000
  C   C985      1.0  0.56604  0.13472  0.81372  1.0000
  C   C986      1.0  0.58683  0.12503  0.81050  1.0000
  C   C987      1.0  0.60005  0.12582  0.82397  1.0000
  C   C988      1.0  0.59281  0.13647  0.84074  1.0000
  C   C989      1.0  0.57204  0.14624  0.84393  1.0000
  C   C990      1.0  0.55877  0.14535  0.83050  1.0000
  H   H1729     1.0  0.59270  0.11689  0.79763  1.0000
  H   H1730     1.0  0.61600  0.11807  0.82137  1.0000
  H   H1731     1.0  0.56621  0.15455  0.85668  1.0000
  H   H1732     1.0  0.54275  0.15299  0.83312  1.0000
  C   C991      1.0  0.47346  0.15558  0.57646  1.0000
  C   C992      1.0  0.49410  0.15401  0.56622  1.0000
  C   C993      1.0  0.50718  0.16600  0.57013  1.0000
  C   C994      1.0  0.49949  0.17980  0.58401  1.0000
  C   C995      1.0  0.47881  0.18152  0.59397  1.0000
  C   C996      1.0  0.46581  0.16954  0.59010  1.0000
  H   H1733     1.0  0.50006  0.14324  0.55559  1.0000
  H   H1734     1.0  0.52321  0.16440  0.56258  1.0000
  H   H1735     1.0  0.47266  0.19240  0.60445  1.0000
  H   H1736     1.0  0.44968  0.17158  0.59725  1.0000
  C   C997      1.0  0.47224  0.10603  0.68005  1.0000
  C   C998      1.0  0.47685  0.12592  0.67224  1.0000
  C   C999      1.0  0.49204  0.13279  0.67954  1.0000
  C   C1000     1.0  0.50261  0.12005  0.69493  1.0000
  C   C1001     1.0  0.49799  0.10019  0.70273  1.0000
  C   C1002     1.0  0.48296  0.09324  0.69530  1.0000
  H   H1737     1.0  0.46875  0.13600  0.66056  1.0000
  H   H1738     1.0  0.49546  0.14818  0.67337  1.0000
  H   H1739     1.0  0.50594  0.09020  0.71457  1.0000
  H   H1740     1.0  0.47954  0.07786  0.70150  1.0000
  H   H1741     1.0  0.65192  0.07765  0.88571  1.0000
  H   H1742     1.0  0.61469  0.01251  0.70964  1.0000
  C   C1003     1.0  0.35441  0.10346  0.59842  1.0000
  C   C1004     1.0  0.36295  0.08343  0.60715  1.0000
  C   C1005     1.0  0.35202  0.06720  0.60914  1.0000
  H   H1743     1.0  0.49836  0.23104  0.60552  1.0000
  C   C1006     1.0  0.34494  0.11416  0.65414  1.0000
  H   H1744     1.0  0.36279  0.11602  0.59652  1.0000
  H   H1745     1.0  0.35857  0.05164  0.61572  1.0000
  H   H1746     1.0  0.60084  0.05596  0.82040  1.0000
  C   C1007     1.0  0.46731  0.22831  0.49098  1.0000
  C   C1008     1.0  0.53019  0.22427  0.62281  1.0000
  C   C1009     1.0  0.57396  0.99857  0.81944  1.0000
  C   C1010     1.0  0.55237  0.00219  0.82518  1.0000
  C   C1011     1.0  0.54012  0.01697  0.81267  1.0000
  C   C1012     1.0  0.54944  0.02872  0.79478  1.0000
  C   C1013     1.0  0.57108  0.02561  0.78927  1.0000
  C   C1014     1.0  0.58334  0.01032  0.80149  1.0000
  H   H1747     1.0  0.52339  0.01935  0.81692  1.0000
  H   H1748     1.0  0.57831  0.03472  0.77544  1.0000
  H   H1749     1.0  0.60002  0.00795  0.79728  1.0000
  H   H1750     1.0  0.34838  0.02686  0.55949  1.0000
  H   H1751     1.0  0.56469  0.03960  0.71579  1.0000
  C   C1015     1.0  0.49757  0.19301  0.51271  1.0000
  H   H1752     1.0  0.51579  0.13204  0.62930  1.0000
  H   H1753     1.0  0.56409  0.13228  0.65757  1.0000
  H   H1754     1.0  0.48325  0.22681  0.66426  1.0000
  C   C1016     1.0  0.37283  0.21327  0.59082  1.0000
  C   C1017     1.0  0.37837  0.19541  0.60528  1.0000
  C   C1018     1.0  0.36416  0.18991  0.62316  1.0000
  C   C1019     1.0  0.34439  0.20199  0.62630  1.0000
  C   C1020     1.0  0.55667  0.99594  0.75579  1.0000
  H   H1755     1.0  0.58283  0.03972  0.83452  1.0000
  H   H1756     1.0  0.39374  0.18617  0.60285  1.0000
  H   H1757     1.0  0.37540  0.17513  0.56840  1.0000
  H   H1758     1.0  0.51455  0.22284  0.52281  1.0000
  C   C1021     1.0  0.35294  0.22527  0.59410  1.0000
  H   H1759     1.0  0.55060  0.10813  0.65247  1.0000
  Fe  Fe156     1.0  0.56240  0.21743  0.52275  1.0000
  H   H1760     1.0  0.38769  0.07904  0.48424  1.0000
  C   C1022     1.0  0.35133  0.17256  0.55158  1.0000
  H   H1761     1.0  0.34022  0.12246  0.69314  1.0000
  C   C1023     1.0  0.55024  0.03301  0.72075  1.0000
  H   H1762     1.0  0.33620  0.16703  0.55648  1.0000
  H   H1763     1.0  0.47807  0.22979  0.55892  1.0000
  H   H1764     1.0  0.44016  0.19228  0.54355  1.0000
  H   H1765     1.0  0.48997  0.20464  0.62749  1.0000
  H   H1766     1.0  0.62184  0.01443  0.74980  1.0000
  H   H1767     1.0  0.63255  0.02981  0.76258  1.0000
  C   C1024     1.0  0.60100  0.00574  0.70953  1.0000
  H   H1768     1.0  0.64015  0.20967  0.48970  1.0000
  H   H1769     1.0  0.50351  0.13417  0.60784  1.0000
  N   N72       1.0  0.56777  0.99575  0.73387  1.0000
  H   H1770     1.0  0.65444  0.01557  0.93339  1.0000
  H   H1771     1.0  0.36000  0.17876  0.50995  1.0000
  H   H1772     1.0  0.59405  0.13510  0.97023  1.0000
  H   H1773     1.0  0.34600  0.14594  0.61944  1.0000
  C   C1025     1.0  0.38224  0.07049  0.49983  1.0000
  H   H1774     1.0  0.51057  0.06343  0.83168  1.0000
  H   H1775     1.0  0.65446  0.11287  0.84365  1.0000
  C   C1026     1.0  0.59090  0.12840  0.62108  1.0000
  H   H1776     1.0  0.40034  0.07983  0.53537  1.0000
  H   H1777     1.0  0.44969  0.19847  0.51660  1.0000
  C   C1027     1.0  0.54364  0.05353  0.85309  1.0000
  C   C1028     1.0  0.53953  0.07624  0.82019  1.0000
  C   C1029     1.0  0.57141  0.07346  0.83306  1.0000
  C   C1030     1.0  0.58419  0.05457  0.82377  1.0000
  H   H1778     1.0  0.54348  0.09041  0.80933  1.0000
  H   H1779     1.0  0.57891  0.07425  0.84594  1.0000
  H   H1780     1.0  0.57415  0.08759  0.82152  1.0000
  H   H1781     1.0  0.53585  0.10634  0.83832  1.0000
  H   H1782     1.0  0.47137  0.19917  0.55236  1.0000
  H   H1783     1.0  0.45634  0.22162  0.54006  1.0000
  H   H1784     1.0  0.46310  0.17671  0.53266  1.0000
  C   C1031     1.0  0.51776  0.19557  0.49717  1.0000
  H   H1785     1.0  0.58568  0.01793  0.73717  1.0000
  H   H1786     1.0  0.63335  0.11236  0.56436  1.0000
  H   H1787     1.0  0.34555  0.05040  0.52637  1.0000
  H   H1788     1.0  0.52522  0.20921  0.62469  1.0000
  C   C1032     1.0  0.33476  0.10728  0.59258  1.0000
  C   C1033     1.0  0.36357  0.08444  0.51063  1.0000
  C   C1034     1.0  0.57015  0.14295  0.61819  1.0000
  C   C1035     1.0  0.64649  0.07728  0.69294  1.0000
  H   H1789     1.0  0.35921  0.15679  0.58133  1.0000
  C   C1036     1.0  0.51398  0.12338  0.61764  1.0000
  C   C1037     1.0  0.34938  0.09141  0.66507  1.0000
  H   H1790     1.0  0.57103  0.15027  0.60169  1.0000
  H   H1791     1.0  0.56723  0.15578  0.62705  1.0000
  H   H1792     1.0  0.55677  0.13483  0.62229  1.0000
  H   H1793     1.0  0.61685  0.04195  0.74361  1.0000
  C   C1038     1.0  0.55392  0.04588  0.87242  1.0000
  H   H1794     1.0  0.36946  0.20803  0.54813  1.0000
  H   H1795     1.0  0.56534  0.22899  0.96501  1.0000
  H   H1796     1.0  0.50001  0.19689  0.65136  1.0000
  H   H1797     1.0  0.50152  0.17980  0.52521  1.0000
  H   H1798     1.0  0.33062  0.15463  0.65349  1.0000
  H   H1799     1.0  0.62963  0.10771  0.61172  1.0000
  H   H1800     1.0  0.59231  0.01645  0.69809  1.0000
  C   C1039     1.0  0.58056  0.12618  0.65892  1.0000
  H   H1801     1.0  0.53998  0.99510  0.75751  1.0000
  H   H1802     1.0  0.34626  0.20416  0.50502  1.0000
  S   S311      1.0  0.63336  0.99618  0.63869  1.0000
  N   N73       1.0  0.34904  0.19311  0.53711  1.0000
  C   C1040     1.0  0.64041  0.22555  0.49193  1.0000
  H   H1803     1.0  0.64785  0.03089  0.95369  1.0000
  H   H1804     1.0  0.62429  0.18852  0.95743  1.0000
  H   H1805     1.0  0.55582  0.08160  0.65141  1.0000
  C   C1041     1.0  0.38875  0.19042  0.52507  1.0000
  H   H1806     1.0  0.62575  0.08260  0.62691  1.0000
  H   H1807     1.0  0.38662  0.19686  0.97155  1.0000
  H   H1808     1.0  0.64337  0.16444  0.84319  1.0000
  H   H1809     1.0  0.64703  0.98808  0.74586  1.0000
  H   H1810     1.0  0.59163  0.08759  0.62912  1.0000
  C   C1042     1.0  0.54936  0.09723  0.86543  1.0000
  H   H1811     1.0  0.50721  0.09135  0.83026  1.0000
  H   H1812     1.0  0.54727  0.04070  0.84403  1.0000
  C   C1043     1.0  0.65495  0.06682  0.67638  1.0000
  H   H1813     1.0  0.33648  0.11810  0.54182  1.0000
  H   H1814     1.0  0.62547  0.16844  0.79689  1.0000
  C   C1044     1.0  0.64207  0.16812  0.79719  1.0000
  H   H1815     1.0  0.43916  0.22756  0.95776  1.0000
  N   N74       1.0  0.50446  0.08830  0.61584  1.0000
  C   C1045     1.0  0.50440  0.10414  0.62883  1.0000
  C   C1046     1.0  0.49155  0.07292  0.62913  1.0000
  C   C1047     1.0  0.49440  0.09964  0.59762  1.0000
  C   C1048     1.0  0.49994  0.06041  0.64858  1.0000
  H   H1816     1.0  0.48821  0.11009  0.63591  1.0000
  H   H1817     1.0  0.51280  0.09709  0.64191  1.0000
  H   H1818     1.0  0.48916  0.06151  0.62062  1.0000
  H   H1819     1.0  0.47558  0.08095  0.63434  1.0000
  H   H1820     1.0  0.47920  0.10914  0.60297  1.0000
  H   H1821     1.0  0.53564  0.07579  0.62160  1.0000
  C   C1049     1.0  0.45452  0.19289  0.53179  1.0000
  H   H1822     1.0  0.49884  0.07029  0.66016  1.0000
  H   H1823     1.0  0.49016  0.04851  0.65611  1.0000
  H   H1824     1.0  0.51612  0.05223  0.64495  1.0000
  H   H1825     1.0  0.48250  0.09701  0.57102  1.0000
  H   H1826     1.0  0.53902  0.04519  0.61151  1.0000
  C   C1050     1.0  0.32433  0.13135  0.69255  1.0000
  C   C1051     1.0  0.33048  0.20730  0.54658  1.0000
  C   C1052     1.0  0.33874  0.21943  0.61174  1.0000
  H   H1827     1.0  0.39347  0.07051  0.56264  1.0000
  H   H1828     1.0  0.33349  0.11722  0.51578  1.0000
  H   H1829     1.0  0.35614  0.04576  0.56993  1.0000
  H   H1830     1.0  0.33352  0.21134  0.56074  1.0000
  H   H1831     1.0  0.34337  0.03661  0.48983  1.0000
  C   C1053     1.0  0.34698  0.04377  0.55881  1.0000
  H   H1832     1.0  0.52381  0.18108  0.49075  1.0000
  H   H1833     1.0  0.54636  0.06318  0.81182  1.0000
  H   H1834     1.0  0.60269  0.13874  0.61742  1.0000
  C   C1054     1.0  0.46723  0.20708  0.53712  1.0000
  C   C1055     1.0  0.60972  0.09365  0.57790  1.0000
  H   H1835     1.0  0.58003  0.05391  0.80896  1.0000
  H   H1836     1.0  0.36804  0.09988  0.50877  1.0000
  H   H1837     1.0  0.64284  0.05179  0.90966  1.0000
  C   C1056     1.0  0.48662  0.20562  0.64402  1.0000
  H   H1838     1.0  0.53010  0.19792  0.50463  1.0000
  H   H1839     1.0  0.39549  0.06611  0.50815  1.0000
  C   C1057     1.0  0.55417  0.00979  0.71953  1.0000
  C   C1058     1.0  0.61688  0.11206  0.56778  1.0000
  H   H1840     1.0  0.65087  0.13558  0.79612  1.0000
  C   C1059     1.0  0.64433  0.08917  0.96071  1.0000
  H   H1841     1.0  0.57423  0.09932  0.68325  1.0000
  H   H1842     1.0  0.33340  0.19787  0.64009  1.0000
  H   H1843     1.0  0.35434  0.12316  0.65942  1.0000
  H   H1844     1.0  0.52667  0.05474  0.85886  1.0000
  C   C1060     1.0  0.62933  0.09791  0.62723  1.0000
  H   H1845     1.0  0.59837  0.99190  0.74139  1.0000
  Fe  Fe157     1.0  0.60085  0.04299  0.60818  1.0000
  H   H1846     1.0  0.62064  0.12246  0.64516  1.0000
  N   N75       1.0  0.59191  0.11450  0.64182  1.0000
  H   H1847     1.0  0.63522  0.22568  0.50863  1.0000
  H   H1848     1.0  0.54509  0.99316  0.83905  1.0000
  H   H1849     1.0  0.59582  0.11067  0.68555  1.0000
  H   H1850     1.0  0.37068  0.04471  0.53211  1.0000
  H   H1851     1.0  0.39186  0.19426  0.50794  1.0000
  H   H1852     1.0  0.36630  0.08546  0.66158  1.0000
  H   H1853     1.0  0.61623  0.09772  0.65900  1.0000
  C   C1061     1.0  0.34642  0.18962  0.51652  1.0000
  C   C1062     1.0  0.35920  0.17235  0.57155  1.0000
  H   H1854     1.0  0.34164  0.08124  0.65939  1.0000
  C   C1063     1.0  0.58810  0.00301  0.73153  1.0000
  C   C1064     1.0  0.36786  0.20311  0.53385  1.0000
  C   C1065     1.0  0.58050  0.22312  0.96919  1.0000
  C   C1066     1.0  0.58846  0.09315  0.58212  1.0000
  C   C1067     1.0  0.50105  0.21716  0.53355  1.0000
  H   H1855     1.0  0.55686  0.02866  0.87559  1.0000
  N   N76       1.0  0.40790  0.23082  0.97517  1.0000
  H   H1856     1.0  0.56056  0.00821  0.70323  1.0000
  C   C1068     1.0  0.59402  0.20762  0.95933  1.0000
  C   C1069     1.0  0.58397  0.09484  0.64284  1.0000
  H   H1857     1.0  0.33030  0.04966  0.56380  1.0000
  H   H1858     1.0  0.64470  0.06311  0.93029  1.0000
  H   H1859     1.0  0.38964  0.17349  0.52966  1.0000
  N   N77       1.0  0.35516  0.07671  0.53298  1.0000
  C   C1070     1.0  0.61442  0.10858  0.64429  1.0000
  H   H1860     1.0  0.58855  0.08274  0.65598  1.0000
  H   H1861     1.0  0.53254  0.23147  0.60622  1.0000
  S   S312      1.0  0.57879  0.07053  0.59496  1.0000
  C   C1071     1.0  0.35507  0.05375  0.53653  1.0000
  Fe  Fe158     1.0  0.57884  0.22516  0.55821  1.0000
  H   H1862     1.0  0.40147  0.19415  0.53109  1.0000
  H   H1863     1.0  0.36610  0.21791  0.52270  1.0000
  S   S313      1.0  0.55524  0.23193  0.49110  1.0000
  Fe  Fe159     1.0  0.63147  0.00234  0.60503  1.0000
  C   C1072     1.0  0.48118  0.23043  0.50568  1.0000
  H   H1864     1.0  0.42174  0.19886  0.97326  1.0000
  H   H1865     1.0  0.38393  0.21775  0.57728  1.0000
  H   H1866     1.0  0.48045  0.07515  0.59088  1.0000
  H   H1867     1.0  0.64535  0.09488  0.63058  1.0000
  H   H1868     1.0  0.51142  0.08042  0.80753  1.0000
  H   H1869     1.0  0.55646  0.01095  0.76026  1.0000
  H   H1870     1.0  0.56926  0.05022  0.87071  1.0000
  Fe  Fe160     1.0  0.63407  0.03002  0.63450  1.0000
  C   C1073     1.0  0.36688  0.08231  0.54718  1.0000
  H   H1871     1.0  0.62067  0.07985  0.58222  1.0000
  C   C1074     1.0  0.33233  0.07104  0.60338  1.0000
  H   H1872     1.0  0.48761  0.18747  0.50463  1.0000
  H   H1873     1.0  0.55710  0.09989  0.62758  1.0000
  C   C1075     1.0  0.53025  0.05758  0.60124  1.0000
  S   S314      1.0  0.58573  0.19786  0.94032  1.0000
  H   H1874     1.0  0.53865  0.00518  0.72252  1.0000
  C   C1076     1.0  0.32889  0.11128  0.53244  1.0000
  C   C1077     1.0  0.51579  0.07793  0.82301  1.0000
  H   H1875     1.0  0.50396  0.11081  0.58753  1.0000
  H   H1876     1.0  0.51629  0.05221  0.59975  1.0000
  H   H1877     1.0  0.36756  0.09912  0.54345  1.0000
  N   N78       1.0  0.54841  0.07354  0.83961  1.0000
  H   H1878     1.0  0.59495  0.11905  0.60858  1.0000
  C   C1078     1.0  0.33285  0.08735  0.53745  1.0000
  N   N79       1.0  0.48647  0.21187  0.52191  1.0000
  S   S315      1.0  0.65498  0.04180  0.64959  1.0000
  H   H1879     1.0  0.54566  0.22106  0.62748  1.0000
  C   C1079     1.0  0.65148  0.04946  0.92254  1.0000
  H   H1880     1.0  0.55325  0.08402  0.87769  1.0000
  H   H1881     1.0  0.64956  0.17265  0.78097  1.0000
  S   S316      1.0  0.63560  0.03568  0.60009  1.0000
  H   H1882     1.0  0.56356  0.10353  0.85741  1.0000
  H   H1883     1.0  0.52225  0.08992  0.85841  1.0000
  H   H1884     1.0  0.54359  0.05148  0.88609  1.0000
  H   H1885     1.0  0.53438  0.08933  0.59631  1.0000
  H   H1886     1.0  0.35849  0.08026  0.56337  1.0000
  H   H1887     1.0  0.54029  0.05875  0.58576  1.0000
  C   C1080     1.0  0.56055  0.09659  0.64348  1.0000
  H   H1888     1.0  0.35165  0.11405  0.63760  1.0000
  C   C1081     1.0  0.32696  0.18080  0.51655  1.0000
  C   C1082     1.0  0.64550  0.03026  0.93801  1.0000
  H   H1889     1.0  0.36176  0.16019  0.54376  1.0000
  C   C1083     1.0  0.48084  0.22801  0.64819  1.0000
  H   H1890     1.0  0.64231  0.02830  0.71590  1.0000
  C   C1084     1.0  0.33556  0.05245  0.48624  1.0000
  C   C1085     1.0  0.65159  0.14604  0.80668  1.0000
  Fe  Fe161     1.0  0.64872  0.15546  0.90351  1.0000
  C   C1086     1.0  0.62893  0.02836  0.74770  1.0000
  H   H1891     1.0  0.32725  0.16507  0.52596  1.0000
  H   H1892     1.0  0.64070  0.14171  0.82106  1.0000
  H   H1893     1.0  0.32321  0.08201  0.52872  1.0000
  H   H1894     1.0  0.34907  0.18374  0.58072  1.0000
  H   H1895     1.0  0.64237  0.17983  0.80644  1.0000
  H   H1896     1.0  0.62874  0.03016  0.93912  1.0000
  H   H1897     1.0  0.45063  0.23192  0.49788  1.0000
  S   S317      1.0  0.54716  0.23242  0.55008  1.0000
  H   H1898     1.0  0.65415  0.99153  0.71898  1.0000
  C   C1087     1.0  0.32900  0.15114  0.62324  1.0000
  H   H1899     1.0  0.65253  0.04409  0.72758  1.0000
  H   H1900     1.0  0.32607  0.16812  0.61764  1.0000
  H   H1901     1.0  0.32605  0.08327  0.55400  1.0000
  H   H1902     1.0  0.32501  0.14805  0.68740  1.0000
  C   C1088     1.0  0.32341  0.09119  0.59550  1.0000
  H   H1903     1.0  0.40856  0.22426  0.94478  1.0000
  H   H1904     1.0  0.32338  0.22863  0.61435  1.0000
  H   H1905     1.0  0.65542  0.10431  0.81980  1.0000
  C   C1089     1.0  0.32362  0.22809  0.53272  1.0000
  H   H1906     1.0  0.38321  0.23200  0.95837  1.0000
  H   H1907     1.0  0.56787  0.98287  0.63368  1.0000
  N   N80       1.0  0.32246  0.12442  0.65668  1.0000
  C   C1090     1.0  0.65300  0.42797  0.33074  1.0000
  C   C1091     1.0  0.39478  0.33040  0.22054  1.0000
  Fe  Fe162     1.0  0.60320  0.30290  0.03523  1.0000
  S   S318      1.0  0.58974  0.29515  0.01033  1.0000
  S   S319      1.0  0.62066  0.32996  0.02865  1.0000
  Fe  Fe163     1.0  0.58394  0.27021  0.06805  1.0000
  S   S320      1.0  0.56850  0.26032  0.04620  1.0000
  C   C1092     1.0  0.56045  0.47709  0.26076  1.0000
  Fe  Fe164     1.0  0.59868  0.26152  0.02423  1.0000
  Fe  Fe165     1.0  0.56083  0.29429  0.03431  1.0000
  S   S321      1.0  0.52923  0.30950  0.02726  1.0000
  S   S322      1.0  0.61489  0.26936  0.04715  1.0000
  S   S323      1.0  0.57369  0.30409  0.05800  1.0000
  Fe  Fe166     1.0  0.61197  0.46205  0.09924  1.0000
  C   C1093     1.0  0.64963  0.34147  0.11727  1.0000
  S   S324      1.0  0.63638  0.42764  0.16446  1.0000
  S   S325      1.0  0.60745  0.43201  0.11959  1.0000
  Fe  Fe167     1.0  0.58993  0.36739  0.40406  1.0000
  S   S326      1.0  0.59271  0.33318  0.41645  1.0000
  S   S327      1.0  0.58458  0.38468  0.37222  1.0000
  Fe  Fe168     1.0  0.59820  0.37698  0.44398  1.0000
  S   S328      1.0  0.60154  0.34377  0.45927  1.0000
  H   H1908     1.0  0.33724  0.30211  0.13869  1.0000
  Fe  Fe169     1.0  0.57403  0.34280  0.44581  1.0000
  H   H1909     1.0  0.34401  0.23471  0.41460  1.0000
  S   S329      1.0  0.61889  0.37068  0.41432  1.0000
  S   S330      1.0  0.56911  0.37674  0.43258  1.0000
  Fe  Fe170     1.0  0.53918  0.41655  0.25164  1.0000
  S   S331      1.0  0.56240  0.38922  0.26251  1.0000
  S   S332      1.0  0.54575  0.44931  0.24537  1.0000
  Fe  Fe171     1.0  0.51017  0.38910  0.24401  1.0000
  S   S333      1.0  0.53108  0.35993  0.25544  1.0000
  S   S334      1.0  0.48488  0.39270  0.22454  1.0000
  Fe  Fe172     1.0  0.53411  0.37654  0.28041  1.0000
  S   S335      1.0  0.53334  0.36031  0.31375  1.0000
  Fe  Fe173     1.0  0.55728  0.37539  0.23683  1.0000
  S   S336      1.0  0.57991  0.36186  0.21130  1.0000
  S   S337      1.0  0.51078  0.40479  0.27057  1.0000
  S   S338      1.0  0.53648  0.40370  0.22450  1.0000
  Fe  Fe174     1.0  0.44982  0.34054  0.11898  1.0000
  S   S339      1.0  0.46058  0.31132  0.13987  1.0000
  S   S340      1.0  0.47231  0.35770  0.09551  1.0000
  Fe  Fe175     1.0  0.40453  0.34119  0.13887  1.0000
  S   S341      1.0  0.41190  0.31228  0.16198  1.0000
  S   S342      1.0  0.37254  0.36008  0.13651  1.0000
  Fe  Fe176     1.0  0.43892  0.32616  0.16513  1.0000
  S   S343      1.0  0.44983  0.32370  0.19568  1.0000
  Fe  Fe177     1.0  0.43283  0.30049  0.13456  1.0000
  S   S344      1.0  0.43623  0.26929  0.12523  1.0000
  S   S345      1.0  0.42961  0.35606  0.14438  1.0000
  S   S346      1.0  0.42403  0.32862  0.11139  1.0000
  H   H1910     1.0  0.65383  0.38708  0.32887  1.0000
  H   H1911     1.0  0.45872  0.25408  0.19816  1.0000
  H   H1912     1.0  0.63914  0.28930  0.47089  1.0000
  C   C1094     1.0  0.35280  0.34859  0.13208  1.0000
  C   C1095     1.0  0.35338  0.32718  0.13709  1.0000
  H   H1913     1.0  0.36795  0.39075  0.17642  1.0000
  H   H1914     1.0  0.36754  0.30689  0.04186  1.0000
  C   C1096     1.0  0.33571  0.36132  0.12417  1.0000
  H   H1915     1.0  0.36637  0.31722  0.14332  1.0000
  H   H1916     1.0  0.55358  0.45754  0.11202  1.0000
  C   C1097     1.0  0.41404  0.26032  0.12298  1.0000
  H   H1917     1.0  0.55027  0.40381  0.46684  1.0000
  H   H1918     1.0  0.35587  0.25230  0.35527  1.0000
  H   H1919     1.0  0.52850  0.39578  0.46083  1.0000
  C   C1098     1.0  0.39435  0.26794  0.13318  1.0000
  H   H1920     1.0  0.37105  0.29824  0.10226  1.0000
  H   H1921     1.0  0.36210  0.26474  0.14099  1.0000
  C   C1099     1.0  0.47533  0.37319  0.21681  1.0000
  C   C1100     1.0  0.46598  0.37832  0.19911  1.0000
  C   C1101     1.0  0.45847  0.36332  0.19222  1.0000
  C   C1102     1.0  0.45957  0.34310  0.20336  1.0000
  C   C1103     1.0  0.46847  0.33809  0.22134  1.0000
  C   C1104     1.0  0.47655  0.35292  0.22788  1.0000
  H   H1922     1.0  0.46483  0.39395  0.19047  1.0000
  H   H1923     1.0  0.45173  0.36745  0.17836  1.0000
  H   H1924     1.0  0.46926  0.32257  0.23021  1.0000
  H   H1925     1.0  0.48340  0.34879  0.24170  1.0000
  C   C1105     1.0  0.54216  0.45163  0.12535  1.0000
  H   H1926     1.0  0.33530  0.29324  0.10452  1.0000
  C   C1106     1.0  0.34744  0.28314  0.05537  1.0000
  C   C1107     1.0  0.57028  0.37750  0.35627  1.0000
  C   C1108     1.0  0.56065  0.36007  0.36252  1.0000
  C   C1109     1.0  0.54939  0.35499  0.34936  1.0000
  C   C1110     1.0  0.54780  0.36713  0.32980  1.0000
  C   C1111     1.0  0.55746  0.38453  0.32357  1.0000
  C   C1112     1.0  0.56855  0.38972  0.33677  1.0000
  H   H1927     1.0  0.56184  0.35054  0.37747  1.0000
  H   H1928     1.0  0.54196  0.34152  0.35432  1.0000
  H   H1929     1.0  0.55623  0.39412  0.30866  1.0000
  H   H1930     1.0  0.57570  0.40335  0.33182  1.0000
  H   H1931     1.0  0.39689  0.40697  0.17110  1.0000
  H   H1932     1.0  0.49054  0.33630  0.43601  1.0000
  H   H1933     1.0  0.34064  0.39609  0.22923  1.0000
  C   C1113     1.0  0.62166  0.40854  0.17753  1.0000
  C   C1114     1.0  0.61495  0.40669  0.19886  1.0000
  C   C1115     1.0  0.60204  0.39242  0.20926  1.0000
  C   C1116     1.0  0.59655  0.37933  0.19850  1.0000
  C   C1117     1.0  0.60395  0.38059  0.17729  1.0000
  C   C1118     1.0  0.61622  0.39540  0.16676  1.0000
  H   H1934     1.0  0.61957  0.41639  0.20735  1.0000
  H   H1935     1.0  0.59661  0.39134  0.22568  1.0000
  H   H1936     1.0  0.59984  0.37046  0.16890  1.0000
  H   H1937     1.0  0.62163  0.39653  0.15035  1.0000
  C   C1119     1.0  0.61875  0.34636  0.04666  1.0000
  C   C1120     1.0  0.62793  0.36422  0.04052  1.0000
  C   C1121     1.0  0.62682  0.37751  0.05452  1.0000
  C   C1122     1.0  0.61656  0.37296  0.07486  1.0000
  C   C1123     1.0  0.60841  0.34192  0.06696  1.0000
  C   C1124     1.0  0.65490  0.43709  0.30754  1.0000
  C   C1125     1.0  0.34533  0.26460  0.39554  1.0000
  C   C1126     1.0  0.51326  0.32217  0.04673  1.0000
  C   C1127     1.0  0.51761  0.31791  0.06679  1.0000
  C   C1128     1.0  0.50455  0.32826  0.08209  1.0000
  C   C1129     1.0  0.48721  0.34291  0.07730  1.0000
  C   C1130     1.0  0.48279  0.34701  0.05730  1.0000
  C   C1131     1.0  0.49570  0.33654  0.04210  1.0000
  H   H1938     1.0  0.53066  0.30628  0.07072  1.0000
  H   H1939     1.0  0.50800  0.32505  0.09755  1.0000
  H   H1940     1.0  0.46949  0.35847  0.05353  1.0000
  H   H1941     1.0  0.49223  0.33980  0.02664  1.0000
  Fe  Fe178     1.0  0.62004  0.33724  0.42883  1.0000
  C   C1132     1.0  0.55360  0.45639  0.30147  1.0000
  C   C1133     1.0  0.55012  0.44770  0.28554  1.0000
  C   C1134     1.0  0.55308  0.45824  0.26519  1.0000
  S   S347      1.0  0.61580  0.38801  0.09375  1.0000
  H   H1942     1.0  0.35171  0.26657  0.06187  1.0000
  H   H1943     1.0  0.55043  0.44852  0.31728  1.0000
  H   H1944     1.0  0.54438  0.43321  0.28914  1.0000
  H   H1945     1.0  0.40609  0.35884  0.20921  1.0000
  H   H1946     1.0  0.49937  0.31134  0.42919  1.0000
  H   H1947     1.0  0.44356  0.28539  0.06293  1.0000
  H   H1948     1.0  0.58615  0.43482  0.34713  1.0000
  H   H1949     1.0  0.63635  0.37079  0.46331  1.0000
  C   C1135     1.0  0.33531  0.23322  0.00648  1.0000
  H   H1950     1.0  0.33164  0.36338  0.19998  1.0000
  H   H1951     1.0  0.37086  0.28686  0.02774  1.0000
  C   C1136     1.0  0.49874  0.44987  0.18651  1.0000
  H   H1952     1.0  0.47099  0.26627  0.17380  1.0000
  N   N81       1.0  0.48483  0.26844  0.06894  1.0000
  C   C1137     1.0  0.47724  0.28340  0.05079  1.0000
  C   C1138     1.0  0.48163  0.28042  0.08628  1.0000
  C   C1139     1.0  0.36395  0.23725  0.36287  1.0000
  C   C1140     1.0  0.45494  0.29562  0.05511  1.0000
  C   C1141     1.0  0.49135  0.26961  0.10538  1.0000
  C   C1142     1.0  0.32743  0.24922  0.01784  1.0000
  H   H1953     1.0  0.48764  0.29500  0.04435  1.0000
  H   H1954     1.0  0.37486  0.30403  0.07488  1.0000
  H   H1955     1.0  0.48771  0.29508  0.08053  1.0000
  H   H1956     1.0  0.46487  0.28522  0.09210  1.0000
  C   C1143     1.0  0.36289  0.30429  0.08889  1.0000
  H   H1957     1.0  0.59938  0.35148  0.09665  1.0000
  H   H1958     1.0  0.45409  0.30772  0.06439  1.0000
  H   H1959     1.0  0.45022  0.30386  0.04025  1.0000
  H   H1960     1.0  0.60616  0.29274  0.46621  1.0000
  C   C1144     1.0  0.59608  0.45751  0.21507  1.0000
  H   H1961     1.0  0.64071  0.31516  0.09701  1.0000
  H   H1962     1.0  0.46882  0.24731  0.06088  1.0000
  N   N82       1.0  0.63182  0.42392  0.34182  1.0000
  H   H1963     1.0  0.35552  0.32052  0.09028  1.0000
  H   H1964     1.0  0.65210  0.26678  0.46083  1.0000
  H   H1965     1.0  0.51639  0.27399  0.05939  1.0000
  H   H1966     1.0  0.49649  0.45538  0.25493  1.0000
  C   C1145     1.0  0.46040  0.23846  0.17180  1.0000
  Fe  Fe179     1.0  0.62866  0.41685  0.09431  1.0000
  N   N83       1.0  0.53611  0.44459  0.16526  1.0000
  H   H1967     1.0  0.33787  0.28287  0.04382  1.0000
  C   C1146     1.0  0.54822  0.45428  0.14536  1.0000
  C   C1147     1.0  0.54462  0.44798  0.18306  1.0000
  C   C1148     1.0  0.53588  0.42198  0.16624  1.0000
  H   H1968     1.0  0.63040  0.42911  0.37286  1.0000
  C   C1149     1.0  0.56672  0.43661  0.18542  1.0000
  C   C1150     1.0  0.55080  0.23667  0.09981  1.0000
  H   H1969     1.0  0.56509  0.44861  0.14414  1.0000
  C   C1151     1.0  0.36457  0.34953  0.19261  1.0000
  H   H1970     1.0  0.54426  0.46482  0.18228  1.0000
  H   H1971     1.0  0.53488  0.44295  0.19802  1.0000
  H   H1972     1.0  0.53027  0.41473  0.18233  1.0000
  H   H1973     1.0  0.61133  0.25810  0.44149  1.0000
  H   H1974     1.0  0.38107  0.28145  0.05143  1.0000
  H   H1975     1.0  0.64438  0.46311  0.45466  1.0000
  H   H1976     1.0  0.57056  0.44064  0.19910  1.0000
  H   H1977     1.0  0.57870  0.44112  0.17209  1.0000
  H   H1978     1.0  0.56776  0.41961  0.18887  1.0000
  H   H1979     1.0  0.57035  0.41574  0.15412  1.0000
  H   H1980     1.0  0.51298  0.31556  0.45974  1.0000
  H   H1981     1.0  0.64924  0.39591  0.38751  1.0000
  H   H1982     1.0  0.52678  0.46094  0.12305  1.0000
  H   H1983     1.0  0.57600  0.24342  0.99148  1.0000
  H   H1984     1.0  0.37853  0.24056  0.36593  1.0000
  H   H1985     1.0  0.63600  0.36774  0.02484  1.0000
  H   H1986     1.0  0.55537  0.25952  0.45221  1.0000
  H   H1987     1.0  0.39235  0.28027  0.14185  1.0000
  H   H1988     1.0  0.43486  0.24337  0.99845  1.0000
  H   H1989     1.0  0.63369  0.38100  0.31953  1.0000
  H   H1990     1.0  0.47431  0.34923  0.46428  1.0000
  C   C1152     1.0  0.63592  0.38123  0.47368  1.0000
  C   C1153     1.0  0.49605  0.47997  0.28297  1.0000
  H   H1991     1.0  0.65095  0.47316  0.21897  1.0000
  H   H1992     1.0  0.59245  0.27179  0.47174  1.0000
  S   S348      1.0  0.59883  0.40165  0.46199  1.0000
  H   H1993     1.0  0.52437  0.42030  0.15721  1.0000
  C   C1154     1.0  0.61699  0.44435  0.33982  1.0000
  C   C1155     1.0  0.56051  0.47545  0.29715  1.0000
  H   H1994     1.0  0.61482  0.45013  0.32354  1.0000
  H   H1995     1.0  0.60145  0.32815  0.07195  1.0000
  C   C1156     1.0  0.54807  0.24699  0.13264  1.0000
  C   C1157     1.0  0.61442  0.27306  0.44358  1.0000
  S   S349      1.0  0.64834  0.31236  0.43014  1.0000
  N   N84       1.0  0.54915  0.37561  0.04131  1.0000
  C   C1158     1.0  0.55699  0.39345  0.02617  1.0000
  C   C1159     1.0  0.52583  0.37915  0.04348  1.0000
  C   C1160     1.0  0.55796  0.35535  0.03393  1.0000
  C   C1161     1.0  0.55580  0.37449  0.06157  1.0000
  C   C1162     1.0  0.58082  0.39162  0.02045  1.0000
  C   C1163     1.0  0.51366  0.39594  0.05606  1.0000
  C   C1164     1.0  0.55510  0.35455  0.01202  1.0000
  C   C1165     1.0  0.54868  0.35732  0.07926  1.0000
  H   H1996     1.0  0.55082  0.39605  0.01156  1.0000
  H   H1997     1.0  0.55116  0.40815  0.03229  1.0000
  H   H1998     1.0  0.51966  0.36467  0.05056  1.0000
  H   H1999     1.0  0.52104  0.38348  0.02806  1.0000
  H   H2000     1.0  0.57479  0.35061  0.03471  1.0000
  H   H2001     1.0  0.55052  0.34275  0.04434  1.0000
  H   H2002     1.0  0.57298  0.37149  0.05967  1.0000
  H   H2003     1.0  0.55132  0.38964  0.06702  1.0000
  H   H2004     1.0  0.58777  0.39266  0.03366  1.0000
  H   H2005     1.0  0.58853  0.37729  0.01434  1.0000
  H   H2006     1.0  0.58458  0.40483  0.00811  1.0000
  H   H2007     1.0  0.51856  0.41114  0.04990  1.0000
  H   H2008     1.0  0.49691  0.39796  0.05531  1.0000
  H   H2009     1.0  0.51491  0.39124  0.07263  1.0000
  H   H2010     1.0  0.53849  0.35752  0.01063  1.0000
  H   H2011     1.0  0.56165  0.33870  0.00872  1.0000
  H   H2012     1.0  0.56356  0.36529  0.00002  1.0000
  H   H2013     1.0  0.56003  0.34263  0.07892  1.0000
  H   H2014     1.0  0.53325  0.35420  0.07887  1.0000
  H   H2015     1.0  0.54717  0.36228  0.09429  1.0000
  H   H2016     1.0  0.65362  0.40004  0.43185  1.0000
  C   C1166     1.0  0.60729  0.35518  0.08094  1.0000
  Fe  Fe180     1.0  0.63615  0.43366  0.13044  1.0000
  H   H2017     1.0  0.36915  0.23854  0.40138  1.0000
  H   H2018     1.0  0.45979  0.24422  0.15520  1.0000
  H   H2019     1.0  0.39798  0.25984  0.98671  1.0000
  C   C1167     1.0  0.53090  0.23701  0.14063  1.0000
  C   C1168     1.0  0.49752  0.31110  0.46185  1.0000
  C   C1169     1.0  0.37725  0.25909  0.13272  1.0000
  H   H2020     1.0  0.63261  0.35259  0.14523  1.0000
  H   H2021     1.0  0.60462  0.47163  0.23668  1.0000
  N   N85       1.0  0.53795  0.32963  0.18999  1.0000
  C   C1170     1.0  0.54793  0.31855  0.20840  1.0000
  C   C1171     1.0  0.55441  0.32822  0.17097  1.0000
  C   C1172     1.0  0.52069  0.31864  0.18923  1.0000
  C   C1173     1.0  0.52958  0.35171  0.19297  1.0000
  C   C1174     1.0  0.53300  0.31461  0.22917  1.0000
  C   C1175     1.0  0.57301  0.33886  0.16969  1.0000
  C   C1176     1.0  0.51381  0.32110  0.16824  1.0000
  C   C1177     1.0  0.52044  0.36670  0.17514  1.0000
  H   H2022     1.0  0.55713  0.30316  0.20563  1.0000
  H   H2023     1.0  0.55917  0.32733  0.21109  1.0000
  H   H2024     1.0  0.54805  0.33494  0.15662  1.0000
  H   H2025     1.0  0.56064  0.31167  0.16970  1.0000
  H   H2026     1.0  0.52520  0.30158  0.19410  1.0000
  H   H2027     1.0  0.50660  0.32343  0.20043  1.0000
  H   H2028     1.0  0.51691  0.35223  0.20652  1.0000
  H   H2029     1.0  0.54122  0.35887  0.19731  1.0000
  H   H2030     1.0  0.52299  0.30340  0.22920  1.0000
  H   H2031     1.0  0.54231  0.30778  0.24159  1.0000
  H   H2032     1.0  0.52316  0.32903  0.23350  1.0000
  H   H2033     1.0  0.58356  0.33759  0.15471  1.0000
  H   H2034     1.0  0.56807  0.35560  0.17027  1.0000
  H   H2035     1.0  0.58229  0.33135  0.18195  1.0000
  H   H2036     1.0  0.49935  0.31459  0.17075  1.0000
  H   H2037     1.0  0.52562  0.31217  0.15767  1.0000
  H   H2038     1.0  0.51028  0.33735  0.16052  1.0000
  H   H2039     1.0  0.50420  0.36515  0.17559  1.0000
  H   H2040     1.0  0.52974  0.36506  0.15977  1.0000
  H   H2041     1.0  0.52042  0.38277  0.17683  1.0000
  H   H2042     1.0  0.51261  0.26248  0.02883  1.0000
  H   H2043     1.0  0.37407  0.34213  0.17954  1.0000
  C   C1178     1.0  0.51407  0.45631  0.16667  1.0000
  H   H2044     1.0  0.58603  0.46046  0.35036  1.0000
  C   C1179     1.0  0.59486  0.44437  0.35250  1.0000
  H   H2045     1.0  0.39401  0.39744  0.19841  1.0000
  C   C1180     1.0  0.61257  0.46594  0.22217  1.0000
  H   H2046     1.0  0.54250  0.43523  0.12466  1.0000
  C   C1181     1.0  0.39744  0.39273  0.18307  1.0000
  H   H2047     1.0  0.48387  0.25637  0.11403  1.0000
  C   C1182     1.0  0.36477  0.37191  0.21770  1.0000
  C   C1183     1.0  0.63211  0.41595  0.36455  1.0000
  C   C1184     1.0  0.32974  0.31772  0.06412  1.0000
  H   H2048     1.0  0.34337  0.32552  0.06066  1.0000
  H   H2049     1.0  0.58182  0.46927  0.21358  1.0000
  H   H2050     1.0  0.38348  0.24829  0.02167  1.0000
  C   C1185     1.0  0.34648  0.29086  0.09010  1.0000
  H   H2051     1.0  0.60841  0.40681  0.34071  1.0000
  S   S350      1.0  0.63887  0.46528  0.11222  1.0000
  C   C1186     1.0  0.63692  0.38743  0.33219  1.0000
  C   C1187     1.0  0.34981  0.39281  0.21413  1.0000
  C   C1188     1.0  0.55800  0.24687  0.11216  1.0000
  H   H2052     1.0  0.40662  0.34464  0.18968  1.0000
  H   H2053     1.0  0.65336  0.47733  0.15814  1.0000
  C   C1189     1.0  0.32994  0.27445  0.98605  1.0000
  H   H2054     1.0  0.48243  0.46399  0.23421  1.0000
  H   H2055     1.0  0.44351  0.26891  0.17880  1.0000
  H   H2056     1.0  0.64919  0.43761  0.42364  1.0000
  H   H2057     1.0  0.38877  0.37279  0.16656  1.0000
  H   H2058     1.0  0.35426  0.27437  0.09308  1.0000
  H   H2059     1.0  0.33191  0.31943  0.03067  1.0000
  H   H2060     1.0  0.63084  0.27435  0.43725  1.0000
  H   H2061     1.0  0.33509  0.37790  0.12035  1.0000
  H   H2062     1.0  0.65044  0.42699  0.29879  1.0000
  H   H2063     1.0  0.41357  0.38402  0.18060  1.0000
  C   C1190     1.0  0.55441  0.26864  0.46394  1.0000
  H   H2064     1.0  0.45695  0.25638  0.08422  1.0000
  H   H2065     1.0  0.50854  0.46778  0.27700  1.0000
  H   H2066     1.0  0.32718  0.25298  0.08384  1.0000
  H   H2067     1.0  0.35553  0.36060  0.22811  1.0000
  H   H2068     1.0  0.37559  0.37433  0.22712  1.0000
  H   H2069     1.0  0.55359  0.25486  0.14228  1.0000
  C   C1191     1.0  0.48942  0.31970  0.44135  1.0000
  C   C1192     1.0  0.41641  0.24423  0.11187  1.0000
  H   H2070     1.0  0.47775  0.27523  0.03790  1.0000
  C   C1193     1.0  0.49190  0.46905  0.24326  1.0000
  C   C1194     1.0  0.34534  0.23919  0.47419  1.0000
  C   C1195     1.0  0.39674  0.34987  0.20378  1.0000
  H   H2071     1.0  0.55518  0.40168  0.14512  1.0000
  H   H2072     1.0  0.33779  0.34874  0.17972  1.0000
  C   C1196     1.0  0.50769  0.26092  0.06241  1.0000
  H   H2073     1.0  0.51451  0.24964  0.07475  1.0000
  H   H2074     1.0  0.62104  0.41618  0.31646  1.0000
  H   H2075     1.0  0.48852  0.28071  0.11615  1.0000
  C   C1197     1.0  0.36790  0.29008  0.04371  1.0000
  N   N86       1.0  0.33514  0.29480  0.07208  1.0000
  H   H2076     1.0  0.62340  0.45640  0.34439  1.0000
  H   H2077     1.0  0.47330  0.31751  0.44230  1.0000
  C   C1198     1.0  0.32808  0.23360  0.38106  1.0000
  C   C1199     1.0  0.60815  0.27581  0.46637  1.0000
  C   C1200     1.0  0.65174  0.40102  0.37052  1.0000
  H   H2078     1.0  0.63842  0.45706  0.19092  1.0000
  H   H2079     1.0  0.64275  0.37231  0.12616  1.0000
  H   H2080     1.0  0.62465  0.45241  0.22665  1.0000
  H   H2081     1.0  0.34429  0.37382  0.17423  1.0000
  C   C1201     1.0  0.55363  0.29016  0.45841  1.0000
  H   H2082     1.0  0.59475  0.43937  0.36929  1.0000
  H   H2083     1.0  0.55372  0.29762  0.44249  1.0000
  C   C1202     1.0  0.38193  0.37977  0.18059  1.0000
  H   H2084     1.0  0.60201  0.45158  0.20042  1.0000
  C   C1203     1.0  0.55659  0.40815  0.15852  1.0000
  H   H2085     1.0  0.64325  0.42864  0.45046  1.0000
  H   H2086     1.0  0.56007  0.39468  0.17086  1.0000
  C   C1204     1.0  0.55198  0.30206  0.47358  1.0000
  H   H2087     1.0  0.49844  0.43302  0.18994  1.0000
  C   C1205     1.0  0.34345  0.35987  0.18636  1.0000
  C   C1206     1.0  0.64258  0.27210  0.47504  1.0000
  S   S351      1.0  0.63083  0.44742  0.07273  1.0000
  H   H2088     1.0  0.48280  0.45785  0.18447  1.0000
  C   C1207     1.0  0.35271  0.24092  0.39932  1.0000
  H   H2089     1.0  0.50105  0.29407  0.46327  1.0000
  N   N87       1.0  0.37659  0.36319  0.19879  1.0000
  C   C1208     1.0  0.47227  0.25119  0.07493  1.0000
  H   H2090     1.0  0.63263  0.37700  0.34701  1.0000
  H   H2091     1.0  0.64877  0.32552  0.12600  1.0000
  H   H2092     1.0  0.32815  0.26867  0.39818  1.0000
  C   C1209     1.0  0.63187  0.47388  0.18720  1.0000
  H   H2093     1.0  0.50381  0.23904  0.04367  1.0000
  H   H2094     1.0  0.35049  0.27126  0.40696  1.0000
  H   H2095     1.0  0.61965  0.23579  0.08690  1.0000
  H   H2096     1.0  0.59137  0.44431  0.22693  1.0000
  H   H2097     1.0  0.63410  0.39109  0.04965  1.0000
  H   H2098     1.0  0.39088  0.31791  0.21436  1.0000
  H   H2099     1.0  0.38335  0.33376  0.23444  1.0000
  H   H2100     1.0  0.50585  0.47338  0.23241  1.0000
  C   C1210     1.0  0.33684  0.31865  0.13445  1.0000
  C   C1211     1.0  0.64634  0.35575  0.13331  1.0000
  H   H2101     1.0  0.41004  0.32417  0.22552  1.0000
  H   H2102     1.0  0.50839  0.26512  0.10166  1.0000
  H   H2103     1.0  0.33863  0.39294  0.20417  1.0000
  H   H2104     1.0  0.59800  0.46983  0.13683  1.0000
  H   H2105     1.0  0.52994  0.24253  0.04180  1.0000
  H   H2106     1.0  0.63552  0.34633  0.10997  1.0000
  H   H2107     1.0  0.54648  0.47123  0.14486  1.0000
  H   H2108     1.0  0.35197  0.27220  0.38000  1.0000
  H   H2109     1.0  0.49799  0.34566  0.47361  1.0000
  H   H2110     1.0  0.35833  0.40584  0.20748  1.0000
  H   H2111     1.0  0.36106  0.33657  0.20536  1.0000
  S   S352      1.0  0.57969  0.25902  0.10233  1.0000
  H   H2112     1.0  0.50188  0.45483  0.20005  1.0000
  H   H2113     1.0  0.60474  0.28543  0.43415  1.0000
  H   H2114     1.0  0.50704  0.45460  0.15373  1.0000
  S   S353      1.0  0.54773  0.32920  0.46747  1.0000
  C   C1212     1.0  0.62400  0.40932  0.33234  1.0000
  C   C1213     1.0  0.34019  0.23785  0.98486  1.0000
  H   H2115     1.0  0.46465  0.48201  0.26298  1.0000
  H   H2116     1.0  0.51375  0.47327  0.16517  1.0000
  H   H2117     1.0  0.65531  0.38690  0.36357  1.0000
  H   H2118     1.0  0.61863  0.40805  0.37179  1.0000
  H   H2119     1.0  0.61985  0.47479  0.17773  1.0000
  C   C1214     1.0  0.45798  0.25792  0.18148  1.0000
  C   C1215     1.0  0.39373  0.24417  0.98977  1.0000
  C   C1216     1.0  0.51356  0.25066  0.04306  1.0000
  H   H2120     1.0  0.37746  0.24719  0.98710  1.0000
  C   C1217     1.0  0.39925  0.23572  0.11101  1.0000
  C   C1218     1.0  0.39253  0.23590  0.01311  1.0000
  C   C1219     1.0  0.37968  0.24294  0.12168  1.0000
  H   H2121     1.0  0.45255  0.32502  0.47397  1.0000
  H   H2122     1.0  0.45254  0.29350  0.46712  1.0000
  H   H2123     1.0  0.64589  0.45299  0.30470  1.0000
  H   H2124     1.0  0.41954  0.24808  0.19083  1.0000
  H   H2125     1.0  0.65401  0.34608  0.07435  1.0000
  H   H2126     1.0  0.32785  0.29039  0.97825  1.0000
  H   H2127     1.0  0.58440  0.47739  0.17193  1.0000
  H   H2128     1.0  0.63359  0.23930  0.46232  1.0000
  H   H2129     1.0  0.55843  0.23627  0.08415  1.0000
  H   H2130     1.0  0.42259  0.24607  0.16497  1.0000
  H   H2131     1.0  0.45763  0.23492  0.98133  1.0000
  C   C1220     1.0  0.53591  0.39728  0.47359  1.0000
  H   H2132     1.0  0.63867  0.47097  0.41861  1.0000
  C   C1221     1.0  0.42345  0.23641  0.18047  1.0000
  C   C1222     1.0  0.32501  0.26983  0.00760  1.0000
  H   H2133     1.0  0.48292  0.47189  0.29117  1.0000
  H   H2134     1.0  0.43160  0.23791  0.10430  1.0000
  H   H2135     1.0  0.50912  0.47331  0.31110  1.0000
  H   H2136     1.0  0.52318  0.23723  0.15642  1.0000
  C   C1223     1.0  0.65144  0.47677  0.42249  1.0000
  S   S354      1.0  0.61460  0.23363  0.00866  1.0000
  H   H2137     1.0  0.65455  0.31009  0.07253  1.0000
  N   N88       1.0  0.62238  0.48253  0.20677  1.0000
  S   S355      1.0  0.37664  0.39536  0.57229  1.0000
  Fe  Fe181     1.0  0.35441  0.46948  0.58772  1.0000
  H   H2138     1.0  0.40882  0.38607  0.65006  1.0000
  S   S356      1.0  0.35864  0.43737  0.60607  1.0000
  Fe  Fe182     1.0  0.41115  0.27003  0.53167  1.0000
  S   S357      1.0  0.38396  0.28576  0.55160  1.0000
  S   S358      1.0  0.44297  0.26772  0.53950  1.0000
  Fe  Fe183     1.0  0.38391  0.25965  0.50460  1.0000
  S   S359      1.0  0.35500  0.27616  0.52202  1.0000
  Fe  Fe184     1.0  0.37324  0.30088  0.52193  1.0000
  S   S360      1.0  0.35852  0.33503  0.51895  1.0000
  Fe  Fe185     1.0  0.36821  0.25996  0.55028  1.0000
  H   H2139     1.0  0.49532  0.23614  0.49632  1.0000
  S   S361      1.0  0.40136  0.28613  0.50149  1.0000
  C   C1224     1.0  0.47022  0.35210  0.49585  1.0000
  N   N89       1.0  0.64674  0.47875  0.60006  1.0000
  H   H2140     1.0  0.58948  0.25266  0.61051  1.0000
  H   H2141     1.0  0.57005  0.31864  0.56704  1.0000
  C   C1225     1.0  0.32495  0.35355  0.58729  1.0000
  S   S362      1.0  0.61583  0.41817  0.59405  1.0000
  H   H2142     1.0  0.38643  0.40853  0.67095  1.0000
  C   C1226     1.0  0.62843  0.29622  0.59219  1.0000
  H   H2143     1.0  0.39517  0.40760  0.63535  1.0000
  Fe  Fe186     1.0  0.48502  0.35078  0.57810  1.0000
  S   S363      1.0  0.47576  0.34062  0.61222  1.0000
  S   S364      1.0  0.46515  0.34993  0.55507  1.0000
  Fe  Fe187     1.0  0.52366  0.36616  0.58305  1.0000
  S   S365      1.0  0.51738  0.35729  0.61733  1.0000
  S   S366      1.0  0.55272  0.37715  0.56420  1.0000
  Fe  Fe188     1.0  0.50981  0.32841  0.61126  1.0000
  S   S367      1.0  0.52361  0.29805  0.62858  1.0000
  Fe  Fe189     1.0  0.48408  0.37048  0.61502  1.0000
  S   S368      1.0  0.46548  0.39333  0.63503  1.0000
  S   S369      1.0  0.51849  0.33620  0.57692  1.0000
  S   S370      1.0  0.49088  0.38182  0.58082  1.0000
  H   H2144     1.0  0.44604  0.47910  0.57506  1.0000
  H   H2145     1.0  0.61008  0.33543  0.61677  1.0000
  C   C1227     1.0  0.64463  0.44470  0.62664  1.0000
  C   C1228     1.0  0.57336  0.32789  0.60477  1.0000
  C   C1229     1.0  0.49388  0.30900  0.49940  1.0000
  C   C1230     1.0  0.40367  0.45655  0.80150  1.0000
  H   H2146     1.0  0.33733  0.28722  0.60466  1.0000
  H   H2147     1.0  0.62939  0.29653  0.57551  1.0000
  Fe  Fe190     1.0  0.34823  0.38845  0.77041  1.0000
  S   S371      1.0  0.38265  0.37981  0.76831  1.0000
  H   H2148     1.0  0.33536  0.39732  0.81510  1.0000
  Fe  Fe191     1.0  0.35147  0.42533  0.73600  1.0000
  S   S372      1.0  0.38621  0.41967  0.73090  1.0000
  C   C1231     1.0  0.40831  0.44797  0.64530  1.0000
  Fe  Fe192     1.0  0.38387  0.38629  0.73404  1.0000
  S   S373      1.0  0.40267  0.36296  0.71448  1.0000
  Fe  Fe193     1.0  0.38160  0.41394  0.76547  1.0000
  S   S374      1.0  0.40136  0.42552  0.78220  1.0000
  S   S375      1.0  0.34927  0.39243  0.73632  1.0000
  S   S376      1.0  0.34692  0.42206  0.77039  1.0000
  C   C1232     1.0  0.39082  0.44802  0.79300  1.0000
  C   C1233     1.0  0.36345  0.39731  0.65834  1.0000
  H   H2149     1.0  0.38731  0.32913  0.87941  1.0000
  H   H2150     1.0  0.59935  0.28721  0.52380  1.0000
  C   C1234     1.0  0.37004  0.45753  0.79329  1.0000
  H   H2151     1.0  0.39392  0.44746  0.63994  1.0000
  H   H2152     1.0  0.35994  0.45104  0.78695  1.0000
  H   H2153     1.0  0.45911  0.23804  0.61619  1.0000
  C   C1235     1.0  0.32830  0.36681  0.81870  1.0000
  C   C1236     1.0  0.47046  0.44287  0.60264  1.0000
  C   C1237     1.0  0.62386  0.34952  0.58657  1.0000
  N   N90       1.0  0.49253  0.24379  0.63376  1.0000
  C   C1238     1.0  0.33744  0.25847  0.97463  1.0000
  C   C1239     1.0  0.57229  0.26144  0.58547  1.0000
  H   H2154     1.0  0.47243  0.45931  0.59924  1.0000
  N   N91       1.0  0.59605  0.32540  0.59506  1.0000
  H   H2155     1.0  0.39857  0.45939  0.74562  1.0000
  C   C1240     1.0  0.53879  0.28357  0.59220  1.0000
  S   S377      1.0  0.59182  0.24851  0.56864  1.0000
  H   H2156     1.0  0.47742  0.25761  0.67372  1.0000
  C   C1241     1.0  0.44964  0.38404  0.65805  1.0000
  C   C1242     1.0  0.44640  0.36354  0.66276  1.0000
  C   C1243     1.0  0.43234  0.35708  0.68046  1.0000
  C   C1244     1.0  0.42139  0.37110  0.69341  1.0000
  C   C1245     1.0  0.42496  0.39147  0.68889  1.0000
  C   C1246     1.0  0.43916  0.39786  0.67135  1.0000
  H   H2157     1.0  0.45452  0.35274  0.65270  1.0000
  H   H2158     1.0  0.42974  0.34124  0.68399  1.0000
  H   H2159     1.0  0.41681  0.40230  0.69888  1.0000
  H   H2160     1.0  0.44202  0.41357  0.66813  1.0000
  C   C1247     1.0  0.59811  0.40691  0.58584  1.0000
  C   C1248     1.0  0.57961  0.40297  0.59912  1.0000
  C   C1249     1.0  0.56546  0.39383  0.59279  1.0000
  C   C1250     1.0  0.56963  0.38888  0.57300  1.0000
  C   C1251     1.0  0.58801  0.39302  0.55969  1.0000
  C   C1252     1.0  0.60225  0.40186  0.56610  1.0000
  H   H2161     1.0  0.57628  0.40690  0.61438  1.0000
  H   H2162     1.0  0.55131  0.39076  0.60315  1.0000
  H   H2163     1.0  0.59136  0.38930  0.54433  1.0000
  H   H2164     1.0  0.61636  0.40493  0.55568  1.0000
  C   C1253     1.0  0.39590  0.47455  0.81007  1.0000
  H   H2165     1.0  0.60790  0.46467  0.61815  1.0000
  C   C1254     1.0  0.56726  0.33939  0.51211  1.0000
  C   C1255     1.0  0.55303  0.27078  0.49960  1.0000
  H   H2166     1.0  0.48997  0.38756  0.52975  1.0000
  C   C1256     1.0  0.57535  0.26130  0.60539  1.0000
  C   C1257     1.0  0.56015  0.27229  0.61872  1.0000
  C   C1258     1.0  0.54208  0.28380  0.61197  1.0000
  H   H2167     1.0  0.35877  0.41183  0.64757  1.0000
  C   C1259     1.0  0.33072  0.36312  0.86055  1.0000
  H   H2168     1.0  0.56255  0.27216  0.63413  1.0000
  H   H2169     1.0  0.36706  0.39408  0.61817  1.0000
  H   H2170     1.0  0.41547  0.33177  0.82318  1.0000
  H   H2171     1.0  0.42063  0.47995  0.72157  1.0000
  H   H2172     1.0  0.37189  0.39068  0.68933  1.0000
  H   H2173     1.0  0.42885  0.42328  0.63170  1.0000
  H   H2174     1.0  0.56817  0.37716  0.52353  1.0000
  C   C1260     1.0  0.38436  0.46891  0.74028  1.0000
  H   H2175     1.0  0.45007  0.42326  0.59920  1.0000
  H   H2176     1.0  0.36348  0.47957  0.63003  1.0000
  H   H2177     1.0  0.33586  0.23777  0.52809  1.0000
  H   H2178     1.0  0.45444  0.34833  0.50133  1.0000
  C   C1261     1.0  0.44799  0.29033  0.54569  1.0000
  C   C1262     1.0  0.46520  0.28928  0.55497  1.0000
  C   C1263     1.0  0.47013  0.30734  0.55879  1.0000
  C   C1264     1.0  0.45807  0.32665  0.55299  1.0000
  C   C1265     1.0  0.44077  0.32766  0.54392  1.0000
  C   C1266     1.0  0.43561  0.30957  0.54051  1.0000
  H   H2179     1.0  0.47486  0.27453  0.55911  1.0000
  H   H2180     1.0  0.48357  0.30640  0.56567  1.0000
  H   H2181     1.0  0.43134  0.34254  0.53942  1.0000
  H   H2182     1.0  0.42240  0.31061  0.53325  1.0000
  H   H2183     1.0  0.48410  0.31428  0.51346  1.0000
  C   C1267     1.0  0.37121  0.37883  0.55746  1.0000
  C   C1268     1.0  0.36387  0.35168  0.53376  1.0000
  C   C1269     1.0  0.37921  0.34523  0.54612  1.0000
  C   C1270     1.0  0.38293  0.35876  0.55779  1.0000
  H   H2184     1.0  0.38843  0.32991  0.54654  1.0000
  H   H2185     1.0  0.39509  0.35368  0.56700  1.0000
  C   C1271     1.0  0.60528  0.34132  0.60144  1.0000
  H   H2186     1.0  0.57331  0.41237  0.50798  1.0000
  H   H2187     1.0  0.61871  0.29617  0.50298  1.0000
  H   H2188     1.0  0.44131  0.44151  0.63777  1.0000
  H   H2189     1.0  0.43838  0.36621  0.80266  1.0000
  C   C1272     1.0  0.32539  0.45278  0.66025  1.0000
  H   H2190     1.0  0.38944  0.36394  0.67435  1.0000
  H   H2191     1.0  0.62058  0.25650  0.51438  1.0000
  C   C1273     1.0  0.46838  0.24975  0.60693  1.0000
  H   H2192     1.0  0.59280  0.29849  0.56879  1.0000
  H   H2193     1.0  0.44159  0.47533  0.61740  1.0000
  H   H2194     1.0  0.37317  0.37907  0.82105  1.0000
  H   H2195     1.0  0.45402  0.31492  0.50010  1.0000
  H   H2196     1.0  0.63343  0.27978  0.59907  1.0000
  H   H2197     1.0  0.57459  0.30965  0.63611  1.0000
  C   C1274     1.0  0.38487  0.39986  0.83372  1.0000
  C   C1275     1.0  0.61869  0.41077  0.48977  1.0000
  H   H2198     1.0  0.36175  0.29402  0.59249  1.0000
  H   H2199     1.0  0.50327  0.23535  0.55594  1.0000
  C   C1276     1.0  0.35569  0.38525  0.54528  1.0000
  H   H2200     1.0  0.40800  0.43782  0.66066  1.0000
  Fe  Fe194     1.0  0.35583  0.42591  0.57783  1.0000
  H   H2201     1.0  0.39611  0.38623  0.80620  1.0000
  C   C1277     1.0  0.35217  0.37178  0.53339  1.0000
  C   C1278     1.0  0.42151  0.36465  0.83488  1.0000
  H   H2202     1.0  0.36004  0.41667  0.68140  1.0000
  C   C1279     1.0  0.37120  0.40344  0.67587  1.0000
  H   H2203     1.0  0.34882  0.39143  0.66572  1.0000
  C   C1280     1.0  0.33391  0.38141  0.84669  1.0000
  C   C1281     1.0  0.39845  0.39036  0.63839  1.0000
  H   H2204     1.0  0.52173  0.25354  0.63217  1.0000
  H   H2205     1.0  0.56754  0.32342  0.52101  1.0000
  H   H2206     1.0  0.50889  0.31443  0.49747  1.0000
  H   H2207     1.0  0.41257  0.34649  0.64716  1.0000
  H   H2208     1.0  0.39792  0.45977  0.60533  1.0000
  H   H2209     1.0  0.61109  0.23567  0.48132  1.0000
  H   H2210     1.0  0.34713  0.32178  0.56737  1.0000
  H   H2211     1.0  0.38949  0.25902  0.93042  1.0000
  H   H2212     1.0  0.63962  0.30495  0.59472  1.0000
  C   C1282     1.0  0.65286  0.37936  0.48359  1.0000
  C   C1283     1.0  0.32758  0.44688  0.69664  1.0000
  C   C1284     1.0  0.43055  0.47345  0.60794  1.0000
  H   H2213     1.0  0.63901  0.43739  0.61613  1.0000
  H   H2214     1.0  0.34812  0.35738  0.64605  1.0000
  C   C1285     1.0  0.42823  0.44017  0.63069  1.0000
  C   C1286     1.0  0.56147  0.38435  0.50942  1.0000
  C   C1287     1.0  0.60625  0.30367  0.60296  1.0000
  H   H2215     1.0  0.32497  0.30930  0.53904  1.0000
  H   H2216     1.0  0.40755  0.43292  0.60680  1.0000
  C   C1288     1.0  0.32489  0.34865  0.83259  1.0000
  H   H2217     1.0  0.47886  0.34837  0.50889  1.0000
  H   H2218     1.0  0.54848  0.41198  0.52375  1.0000
  H   H2219     1.0  0.46617  0.26837  0.63951  1.0000
  S   S378      1.0  0.32745  0.36838  0.79254  1.0000
  H   H2220     1.0  0.62957  0.35997  0.59402  1.0000
  H   H2221     1.0  0.55144  0.27236  0.56359  1.0000
  C   C1289     1.0  0.36227  0.47565  0.80180  1.0000
  H   H2222     1.0  0.45176  0.44550  0.58007  1.0000
  C   C1290     1.0  0.41181  0.44844  0.60027  1.0000
  C   C1291     1.0  0.41387  0.45032  0.57674  1.0000
  H   H2223     1.0  0.63287  0.45841  0.58775  1.0000
  H   H2224     1.0  0.32435  0.33244  0.86380  1.0000
  H   H2225     1.0  0.34390  0.31147  0.60696  1.0000
  H   H2226     1.0  0.56488  0.34333  0.59843  1.0000
  H   H2227     1.0  0.47898  0.28399  0.66283  1.0000
  S   S379      1.0  0.35520  0.45772  0.55859  1.0000
  C   C1292     1.0  0.45015  0.44020  0.59696  1.0000
  H   H2228     1.0  0.38705  0.48125  0.51873  1.0000
  H   H2229     1.0  0.63522  0.41931  0.51008  1.0000
  H   H2230     1.0  0.42681  0.38935  0.61542  1.0000
  N   N92       1.0  0.48371  0.31819  0.48076  1.0000
  N   N93       1.0  0.37855  0.38179  0.64672  1.0000
  H   H2231     1.0  0.50632  0.28088  0.51863  1.0000
  N   N94       1.0  0.43031  0.45094  0.60846  1.0000
  H   H2232     1.0  0.44969  0.28457  0.49411  1.0000
  H   H2233     1.0  0.60575  0.42334  0.49175  1.0000
  C   C1293     1.0  0.55388  0.27232  0.57896  1.0000
  H   H2234     1.0  0.44991  0.37600  0.81930  1.0000
  H   H2235     1.0  0.55165  0.32810  0.63377  1.0000
  H   H2236     1.0  0.34138  0.34643  0.58795  1.0000
  C   C1294     1.0  0.39758  0.33254  0.86427  1.0000
  H   H2237     1.0  0.48730  0.24911  0.53774  1.0000
  H   H2238     1.0  0.48982  0.27723  0.62794  1.0000
  C   C1295     1.0  0.39848  0.25725  0.94298  1.0000
  H   H2239     1.0  0.65496  0.43217  0.63522  1.0000
  C   C1296     1.0  0.40419  0.34575  0.81812  1.0000
  H   H2240     1.0  0.37333  0.35113  0.80891  1.0000
  H   H2241     1.0  0.34029  0.37699  0.52386  1.0000
  C   C1297     1.0  0.38864  0.38134  0.82237  1.0000
  H   H2242     1.0  0.52449  0.29177  0.58722  1.0000
  C   C1298     1.0  0.61153  0.26559  0.50248  1.0000
  H   H2243     1.0  0.40599  0.48103  0.81658  1.0000
  C   C1299     1.0  0.38229  0.36178  0.66169  1.0000
  C   C1300     1.0  0.55807  0.40786  0.50911  1.0000
  H   H2244     1.0  0.59677  0.29235  0.60193  1.0000
  N   N95       1.0  0.40075  0.36142  0.83212  1.0000
  H   H2245     1.0  0.43121  0.34959  0.84018  1.0000
  H   H2246     1.0  0.42757  0.39128  0.80994  1.0000
  H   H2247     1.0  0.61359  0.32825  0.56381  1.0000
  S   S380      1.0  0.33345  0.36058  0.88643  1.0000
  H   H2248     1.0  0.37571  0.41338  0.82499  1.0000
  S   S381      1.0  0.39645  0.24236  0.53325  1.0000
  H   H2249     1.0  0.42887  0.25290  0.96328  1.0000
  H   H2250     1.0  0.41966  0.37393  0.84723  1.0000
  H   H2251     1.0  0.37560  0.39687  0.84939  1.0000
  C   C1301     1.0  0.58724  0.31514  0.56339  1.0000
  C   C1302     1.0  0.34778  0.37225  0.63510  1.0000
  C   C1303     1.0  0.48578  0.26775  0.66093  1.0000
  H   H2252     1.0  0.32389  0.36296  0.57180  1.0000
  C   C1304     1.0  0.39656  0.34342  0.65279  1.0000
  H   H2253     1.0  0.41453  0.36769  0.61769  1.0000
  H   H2254     1.0  0.34340  0.36986  0.62089  1.0000
  Fe  Fe195     1.0  0.64836  0.41379  0.57571  1.0000
  H   H2255     1.0  0.34660  0.40068  0.54480  1.0000
  H   H2256     1.0  0.37941  0.36803  0.61993  1.0000
  C   C1305     1.0  0.64407  0.46928  0.58260  1.0000
  H   H2257     1.0  0.52036  0.40292  0.51492  1.0000
  H   H2258     1.0  0.46831  0.36916  0.49080  1.0000
  C   C1306     1.0  0.55421  0.25888  0.48455  1.0000
  H   H2259     1.0  0.52959  0.36623  0.48585  1.0000
  H   H2260     1.0  0.56572  0.31631  0.60107  1.0000
  H   H2261     1.0  0.38619  0.46884  0.72364  1.0000
  H   H2262     1.0  0.41972  0.44927  0.80140  1.0000
  C   C1307     1.0  0.41148  0.38448  0.61794  1.0000
  H   H2263     1.0  0.38724  0.36499  0.86371  1.0000
  H   H2264     1.0  0.33902  0.29849  0.56714  1.0000
  H   H2265     1.0  0.63155  0.45045  0.63832  1.0000
  H   H2266     1.0  0.55289  0.26349  0.51548  1.0000
  C   C1308     1.0  0.63538  0.40851  0.50016  1.0000
  H   H2267     1.0  0.61917  0.35897  0.57214  1.0000
  C   C1309     1.0  0.32631  0.34675  0.85340  1.0000
  H   H2268     1.0  0.54979  0.30151  0.50605  1.0000
  H   H2269     1.0  0.39951  0.40463  0.83447  1.0000
  H   H2270     1.0  0.41136  0.35213  0.80220  1.0000
  H   H2271     1.0  0.39757  0.32969  0.66533  1.0000
  H   H2272     1.0  0.52450  0.40847  0.48192  1.0000
  C   C1310     1.0  0.55150  0.29235  0.49419  1.0000
  C   C1311     1.0  0.43484  0.37513  0.81544  1.0000
  H   H2273     1.0  0.41327  0.33197  0.86743  1.0000
  S   S382      1.0  0.33576  0.45349  0.71699  1.0000
  S   S383      1.0  0.34482  0.24748  0.57653  1.0000
  H   H2274     1.0  0.46914  0.24885  0.59051  1.0000
  H   H2275     1.0  0.37246  0.35372  0.85177  1.0000
  H   H2276     1.0  0.36736  0.35675  0.66948  1.0000
  C   C1312     1.0  0.38458  0.33834  0.81583  1.0000
  H   H2277     1.0  0.39052  0.33913  0.64049  1.0000
  H   H2278     1.0  0.37662  0.33041  0.83058  1.0000
  H   H2279     1.0  0.47177  0.43628  0.61893  1.0000
  H   H2280     1.0  0.55122  0.41715  0.49579  1.0000
  C   C1313     1.0  0.36905  0.37924  0.62920  1.0000
  H   H2281     1.0  0.40389  0.39276  0.60462  1.0000
  H   H2282     1.0  0.50355  0.36196  0.52854  1.0000
  H   H2283     1.0  0.48356  0.27900  0.51022  1.0000
  H   H2284     1.0  0.50229  0.26548  0.66250  1.0000
  N   N96       1.0  0.54288  0.37518  0.50883  1.0000
  C   C1314     1.0  0.54626  0.35278  0.51938  1.0000
  C   C1315     1.0  0.52332  0.38602  0.52066  1.0000
  C   C1316     1.0  0.49065  0.24533  0.61153  1.0000
  H   H2285     1.0  0.33749  0.39408  0.85209  1.0000
  C   C1317     1.0  0.50320  0.37830  0.52078  1.0000
  H   H2286     1.0  0.59153  0.31791  0.54633  1.0000
  H   H2287     1.0  0.39797  0.32001  0.85576  1.0000
  H   H2288     1.0  0.54494  0.35175  0.53632  1.0000
  H   H2289     1.0  0.53418  0.34464  0.51737  1.0000
  C   C1318     1.0  0.59727  0.32944  0.57198  1.0000
  H   H2290     1.0  0.52489  0.38462  0.53702  1.0000
  S   S384      1.0  0.34371  0.26413  0.94767  1.0000
  H   H2291     1.0  0.33536  0.38434  0.64125  1.0000
  H   H2292     1.0  0.33849  0.47202  0.67414  1.0000
  H   H2293     1.0  0.59346  0.35553  0.60348  1.0000
  H   H2294     1.0  0.58067  0.34503  0.51484  1.0000
  C   C1319     1.0  0.56871  0.32554  0.62853  1.0000
  C   C1320     1.0  0.34502  0.30049  0.59646  1.0000
  H   H2295     1.0  0.57430  0.38071  0.49653  1.0000
  H   H2296     1.0  0.58982  0.34566  0.56671  1.0000
  H   H2297     1.0  0.48379  0.43426  0.59316  1.0000
  C   C1321     1.0  0.33666  0.31096  0.57639  1.0000
  C   C1322     1.0  0.33105  0.45865  0.67680  1.0000
  H   H2298     1.0  0.49972  0.38034  0.50503  1.0000
  C   C1323     1.0  0.38863  0.35405  0.85299  1.0000
  C   C1324     1.0  0.51511  0.23910  0.63611  1.0000
  Fe  Fe196     1.0  0.32396  0.44203  0.61219  1.0000
  C   C1325     1.0  0.49819  0.28523  0.50517  1.0000
  H   H2299     1.0  0.56936  0.33820  0.49569  1.0000
  H   H2300     1.0  0.60700  0.30164  0.61962  1.0000
  H   H2301     1.0  0.38921  0.32696  0.80516  1.0000
  H   H2302     1.0  0.57475  0.33708  0.63414  1.0000
  C   C1326     1.0  0.33271  0.38325  0.82577  1.0000
  H   H2303     1.0  0.40817  0.46379  0.64784  1.0000
  H   H2304     1.0  0.37135  0.46065  0.74811  1.0000
  H   H2305     1.0  0.42428  0.43663  0.57118  1.0000
  H   H2306     1.0  0.59704  0.25888  0.50603  1.0000
  H   H2307     1.0  0.63706  0.33727  0.58257  1.0000
  H   H2308     1.0  0.34030  0.25244  0.48191  1.0000
  H   H2309     1.0  0.50850  0.27759  0.49277  1.0000
  S   S385      1.0  0.38540  0.23870  0.48099  1.0000
  H   H2310     1.0  0.39841  0.45056  0.57308  1.0000
  H   H2311     1.0  0.41538  0.48104  0.61566  1.0000
  H   H2312     1.0  0.49898  0.25760  0.60151  1.0000
  H   H2313     1.0  0.46024  0.26557  0.60900  1.0000
  C   C1327     1.0  0.46212  0.31334  0.48418  1.0000
  H   H2314     1.0  0.32833  0.46171  0.64489  1.0000
  H   H2315     1.0  0.41410  0.26051  0.93537  1.0000
  N   N97       1.0  0.62263  0.26356  0.48083  1.0000
  H   H2316     1.0  0.59269  0.29695  0.49885  1.0000
  C   C1328     1.0  0.60537  0.28788  0.50702  1.0000
  H   H2317     1.0  0.39038  0.26903  0.95264  1.0000
  C   C1329     1.0  0.48315  0.26477  0.63956  1.0000
  H   H2318     1.0  0.65342  0.25481  0.50457  1.0000
  C   C1330     1.0  0.54095  0.37573  0.48686  1.0000
  C   C1331     1.0  0.49159  0.23380  0.54720  1.0000
  H   H2319     1.0  0.63091  0.47673  0.55440  1.0000
  C   C1332     1.0  0.65281  0.39317  0.49661  1.0000
  H   H2320     1.0  0.47469  0.28053  0.47878  1.0000
  C   C1333     1.0  0.48220  0.34143  0.47756  1.0000
  C   C1334     1.0  0.60669  0.48134  0.61152  1.0000
  H   H2321     1.0  0.55573  0.36811  0.47844  1.0000
  H   H2322     1.0  0.47274  0.24383  0.51306  1.0000
  C   C1335     1.0  0.46013  0.29180  0.48068  1.0000
  H   H2323     1.0  0.41907  0.46470  0.56795  1.0000
  C   C1336     1.0  0.61901  0.39728  0.47632  1.0000
  Fe  Fe197     1.0  0.32265  0.29281  0.93499  1.0000
  H   H2324     1.0  0.46375  0.23297  0.64936  1.0000
  H   H2325     1.0  0.47030  0.23939  0.47634  1.0000
  C   C1337     1.0  0.42939  0.23618  0.96989  1.0000
  C   C1338     1.0  0.39941  0.23498  0.95533  1.0000
  C   C1339     1.0  0.62623  0.24117  0.47839  1.0000
  H   H2326     1.0  0.51677  0.23278  0.65247  1.0000
  Fe  Fe198     1.0  0.53268  0.58614  0.19111  1.0000
  S   S386      1.0  0.55595  0.60176  0.16708  1.0000
  S   S387      1.0  0.50792  0.60580  0.21037  1.0000
  Fe  Fe199     1.0  0.55165  0.54385  0.18114  1.0000
  S   S388      1.0  0.57656  0.55560  0.15652  1.0000
  S   S389      1.0  0.55288  0.50969  0.18688  1.0000
  Fe  Fe200     1.0  0.57921  0.57486  0.17883  1.0000
  S   S390      1.0  0.61134  0.57791  0.18145  1.0000
  Fe  Fe201     1.0  0.55118  0.58105  0.14698  1.0000
  S   S391      1.0  0.54911  0.58957  0.11324  1.0000
  S   S392      1.0  0.55638  0.56080  0.20445  1.0000
  S   S393      1.0  0.52577  0.56774  0.16996  1.0000
  C   C1340     1.0  0.34097  0.68914  0.44732  1.0000
  H   H2327     1.0  0.43804  0.68724  0.34538  1.0000
  Fe  Fe202     1.0  0.62898  0.63478  0.02616  1.0000
  S   S394      1.0  0.63463  0.66558  0.00743  1.0000
  S   S395      1.0  0.62496  0.62929  0.06073  1.0000
  H   H2328     1.0  0.44027  0.66441  0.43458  1.0000
  H   H2329     1.0  0.51304  0.70887  0.32270  1.0000
  H   H2330     1.0  0.33116  0.64265  0.42213  1.0000
  S   S396      1.0  0.61050  0.62860  0.00471  1.0000
  H   H2331     1.0  0.35291  0.62286  0.42722  1.0000
  Fe  Fe203     1.0  0.45206  0.58926  0.31768  1.0000
  S   S397      1.0  0.43987  0.58358  0.35176  1.0000
  S   S398      1.0  0.47200  0.56444  0.30070  1.0000
  Fe  Fe204     1.0  0.43719  0.63525  0.31349  1.0000
  S   S399      1.0  0.42374  0.63375  0.34710  1.0000
  S   S400      1.0  0.43808  0.66591  0.29262  1.0000
  Fe  Fe205     1.0  0.45299  0.61159  0.35227  1.0000
  S   S401      1.0  0.47370  0.61069  0.37503  1.0000
  Fe  Fe206     1.0  0.41144  0.60608  0.34359  1.0000
  S   S402      1.0  0.37850  0.60373  0.36029  1.0000
  S   S403      1.0  0.46739  0.61536  0.31893  1.0000
  S   S404      1.0  0.42263  0.60956  0.30930  1.0000
  H   H2332     1.0  0.32634  0.64807  0.30893  1.0000
  Fe  Fe207     1.0  0.55809  0.70351  0.41606  1.0000
  S   S405      1.0  0.58694  0.69120  0.39528  1.0000
  H   H2333     1.0  0.59359  0.68755  0.32941  1.0000
  Fe  Fe208     1.0  0.52995  0.69298  0.38992  1.0000
  S   S406      1.0  0.55679  0.68153  0.36663  1.0000
  S   S407      1.0  0.49717  0.69445  0.38512  1.0000
  Fe  Fe209     1.0  0.57069  0.66517  0.39448  1.0000
  S   S408      1.0  0.58777  0.63209  0.39455  1.0000
  Fe  Fe210     1.0  0.57031  0.70829  0.36952  1.0000
  C   C1341     1.0  0.45120  0.58201  0.42602  1.0000
  S   S409      1.0  0.54310  0.67563  0.41800  1.0000
  H   H2334     1.0  0.51033  0.68283  0.04872  1.0000
  S   S410      1.0  0.58505  0.51694  0.34644  1.0000
  Fe  Fe211     1.0  0.62130  0.52818  0.29458  1.0000
  S   S411      1.0  0.58697  0.53912  0.29846  1.0000
  C   C1342     1.0  0.50440  0.48709  0.29955  1.0000
  Fe  Fe212     1.0  0.59042  0.54784  0.32783  1.0000
  S   S412      1.0  0.57077  0.57861  0.33414  1.0000
  Fe  Fe213     1.0  0.58477  0.50735  0.31658  1.0000
  S   S413      1.0  0.61895  0.49556  0.31047  1.0000
  C   C1343     1.0  0.56114  0.58297  0.26733  1.0000
  H   H2335     1.0  0.59523  0.55595  0.10528  1.0000
  C   C1344     1.0  0.44878  0.60374  0.43135  1.0000
  H   H2336     1.0  0.57297  0.65515  0.09028  1.0000
  H   H2337     1.0  0.40583  0.61375  0.39175  1.0000
  H   H2338     1.0  0.55165  0.61210  0.29924  1.0000
  C   C1345     1.0  0.37468  0.68882  0.42547  1.0000
  H   H2339     1.0  0.39021  0.68082  0.42064  1.0000
  C   C1346     1.0  0.58270  0.61710  0.37803  1.0000
  C   C1347     1.0  0.56561  0.62346  0.36792  1.0000
  C   C1348     1.0  0.56220  0.61152  0.35453  1.0000
  C   C1349     1.0  0.57578  0.59302  0.35116  1.0000
  C   C1350     1.0  0.59288  0.58658  0.36127  1.0000
  C   C1351     1.0  0.59629  0.59858  0.37466  1.0000
  H   H2340     1.0  0.55486  0.63748  0.37057  1.0000
  H   H2341     1.0  0.54884  0.61657  0.34692  1.0000
  H   H2342     1.0  0.60343  0.57233  0.35884  1.0000
  H   H2343     1.0  0.60952  0.59347  0.38246  1.0000
  H   H2344     1.0  0.48283  0.52434  0.27958  1.0000
  H   H2345     1.0  0.44567  0.51886  0.26250  1.0000
  H   H2346     1.0  0.62643  0.48384  0.24950  1.0000
  C   C1352     1.0  0.57397  0.68306  0.02161  1.0000
  C   C1353     1.0  0.40871  0.60772  0.40775  1.0000
  H   H2347     1.0  0.62962  0.62610  0.32440  1.0000
  C   C1354     1.0  0.48022  0.63414  0.37730  1.0000
  C   C1355     1.0  0.46576  0.65256  0.37602  1.0000
  C   C1356     1.0  0.47087  0.67082  0.37911  1.0000
  C   C1357     1.0  0.49070  0.67096  0.38277  1.0000
  C   C1358     1.0  0.50512  0.65252  0.38411  1.0000
  C   C1359     1.0  0.49981  0.63412  0.38163  1.0000
  H   H2348     1.0  0.45051  0.65267  0.37299  1.0000
  H   H2349     1.0  0.45947  0.68492  0.37851  1.0000
  H   H2350     1.0  0.52032  0.65238  0.38728  1.0000
  H   H2351     1.0  0.51101  0.61987  0.38292  1.0000
  C   C1360     1.0  0.36307  0.58811  0.35428  1.0000
  C   C1361     1.0  0.37008  0.57689  0.33810  1.0000
  C   C1362     1.0  0.35717  0.56500  0.33353  1.0000
  C   C1363     1.0  0.61863  0.65298  0.35089  1.0000
  H   H2352     1.0  0.47386  0.67304  0.31171  1.0000
  C   C1364     1.0  0.64070  0.56254  0.20589  1.0000
  H   H2353     1.0  0.38541  0.57743  0.32904  1.0000
  H   H2354     1.0  0.36270  0.55646  0.32092  1.0000
  C   C1365     1.0  0.58555  0.48270  0.13907  1.0000
  C   C1366     1.0  0.57675  0.49472  0.12234  1.0000
  N   N98       1.0  0.56008  0.67460  0.04096  1.0000
  C   C1367     1.0  0.39638  0.67010  0.30647  1.0000
  C   C1368     1.0  0.64033  0.65679  0.31546  1.0000
  C   C1369     1.0  0.51699  0.62903  0.27542  1.0000
  H   H2355     1.0  0.39857  0.65339  0.30899  1.0000
  C   C1370     1.0  0.47438  0.51388  0.27513  1.0000
  H   H2356     1.0  0.45695  0.64454  0.42218  1.0000
  C   C1371     1.0  0.61954  0.56630  0.20506  1.0000
  C   C1372     1.0  0.48305  0.71233  0.29524  1.0000
  H   H2357     1.0  0.65171  0.56700  0.19222  1.0000
  C   C1373     1.0  0.63373  0.54702  0.24214  1.0000
  C   C1374     1.0  0.61250  0.55087  0.24139  1.0000
  C   C1375     1.0  0.60543  0.56051  0.22287  1.0000
  H   H2358     1.0  0.55540  0.65952  0.00377  1.0000
  C   C1376     1.0  0.50236  0.67213  0.32220  1.0000
  H   H2359     1.0  0.60163  0.54608  0.25494  1.0000
  H   H2360     1.0  0.58912  0.56354  0.22240  1.0000
  C   C1377     1.0  0.49728  0.59366  0.23491  1.0000
  C   C1378     1.0  0.50493  0.57304  0.24263  1.0000
  C   C1379     1.0  0.49714  0.56409  0.26285  1.0000
  C   C1380     1.0  0.48150  0.57565  0.27531  1.0000
  C   C1381     1.0  0.47385  0.59626  0.26755  1.0000
  C   C1382     1.0  0.48172  0.60523  0.24740  1.0000
  H   H2361     1.0  0.51705  0.56409  0.23315  1.0000
  H   H2362     1.0  0.50370  0.54844  0.26896  1.0000
  H   H2363     1.0  0.46181  0.60536  0.27700  1.0000
  H   H2364     1.0  0.47580  0.62124  0.24153  1.0000
  C   C1383     1.0  0.60458  0.61695  0.07490  1.0000
  C   C1384     1.0  0.60210  0.61294  0.09644  1.0000
  C   C1385     1.0  0.58529  0.60411  0.10827  1.0000
  C   C1386     1.0  0.57068  0.59968  0.09857  1.0000
  C   C1387     1.0  0.57327  0.60346  0.07700  1.0000
  C   C1388     1.0  0.59044  0.61180  0.06514  1.0000
  H   H2365     1.0  0.61294  0.61705  0.10403  1.0000
  H   H2366     1.0  0.58337  0.60117  0.12491  1.0000
  H   H2367     1.0  0.56205  0.59981  0.06950  1.0000
  H   H2368     1.0  0.59259  0.61443  0.04852  1.0000
  H   H2369     1.0  0.34491  0.62487  0.28794  1.0000
  C   C1389     1.0  0.55318  0.51586  0.14547  1.0000
  C   C1390     1.0  0.56050  0.51127  0.12559  1.0000
  C   C1391     1.0  0.59542  0.71853  0.44960  1.0000
  H   H2370     1.0  0.54502  0.64738  0.05074  1.0000
  H   H2371     1.0  0.57922  0.53799  0.08895  1.0000
  H   H2372     1.0  0.54081  0.52887  0.14786  1.0000
  H   H2373     1.0  0.55348  0.52053  0.11280  1.0000
  H   H2374     1.0  0.65020  0.54242  0.13214  1.0000
  H   H2375     1.0  0.39284  0.68218  0.35896  1.0000
  H   H2376     1.0  0.50018  0.62880  0.28095  1.0000
  H   H2377     1.0  0.63222  0.63224  0.37589  1.0000
  H   H2378     1.0  0.51324  0.69502  0.06849  1.0000
  H   H2379     1.0  0.33760  0.59558  0.37862  1.0000
  C   C1392     1.0  0.56151  0.65985  0.07965  1.0000
  C   C1393     1.0  0.61218  0.52086  0.18931  1.0000
  H   H2380     1.0  0.39416  0.65987  0.37889  1.0000
  C   C1394     1.0  0.33632  0.67750  0.39396  1.0000
  H   H2381     1.0  0.61917  0.50957  0.23508  1.0000
  C   C1395     1.0  0.41225  0.60480  0.45060  1.0000
  H   H2382     1.0  0.61530  0.51000  0.06682  1.0000
  S   S414      1.0  0.32657  0.57270  0.46172  1.0000
  H   H2383     1.0  0.65392  0.62606  0.30834  1.0000
  C   C1396     1.0  0.42840  0.63547  0.44231  1.0000
  C   C1397     1.0  0.47857  0.71470  0.33220  1.0000
  H   H2384     1.0  0.63904  0.55112  0.02847  1.0000
  H   H2385     1.0  0.53561  0.56666  0.26828  1.0000
  H   H2386     1.0  0.61920  0.69213  0.34747  1.0000
  H   H2387     1.0  0.42253  0.70997  0.28558  1.0000
  H   H2388     1.0  0.43308  0.65789  0.41314  1.0000
  S   S415      1.0  0.56097  0.48755  0.31787  1.0000
  S   S416      1.0  0.54214  0.72167  0.38990  1.0000
  H   H2389     1.0  0.46453  0.53355  0.24646  1.0000
  H   H2390     1.0  0.41259  0.64406  0.44730  1.0000
  H   H2391     1.0  0.63812  0.58029  0.12464  1.0000
  H   H2392     1.0  0.60223  0.55767  0.04701  1.0000
  H   H2393     1.0  0.59777  0.64591  0.31491  1.0000
  H   H2394     1.0  0.46105  0.70908  0.27625  1.0000
  S   S417      1.0  0.64345  0.53440  0.26473  1.0000
  H   H2395     1.0  0.32677  0.70122  0.36741  1.0000
  H   H2396     1.0  0.56928  0.64333  0.03478  1.0000
  H   H2397     1.0  0.65014  0.63470  0.35223  1.0000
  C   C1398     1.0  0.64777  0.55284  0.22432  1.0000
  H   H2398     1.0  0.55614  0.72302  0.32432  1.0000
  H   H2399     1.0  0.44522  0.70010  0.30830  1.0000
  H   H2400     1.0  0.59436  0.49710  0.19484  1.0000
  Fe  Fe214     1.0  0.61909  0.65786  0.98421  1.0000
  C   C1399     1.0  0.63728  0.64346  0.36197  1.0000
  H   H2401     1.0  0.59069  0.70819  0.00672  1.0000
  C   C1400     1.0  0.41835  0.59737  0.47213  1.0000
  N   N99       1.0  0.34868  0.66041  0.38258  1.0000
  C   C1401     1.0  0.33026  0.57520  0.36141  1.0000
  N   N100      1.0  0.48943  0.49677  0.26559  1.0000
  H   H2402     1.0  0.36398  0.67359  0.31975  1.0000
  H   H2403     1.0  0.61178  0.63981  0.34958  1.0000
  H   H2404     1.0  0.64546  0.68059  0.34033  1.0000
  C   C1402     1.0  0.33476  0.65118  0.37350  1.0000
  H   H2405     1.0  0.52410  0.66844  0.06913  1.0000
  C   C1403     1.0  0.39078  0.71327  0.30104  1.0000
  H   H2406     1.0  0.54629  0.62995  0.20979  1.0000
  H   H2407     1.0  0.37786  0.68399  0.38415  1.0000
  H   H2408     1.0  0.53644  0.69966  0.03047  1.0000
  H   H2409     1.0  0.45569  0.72770  0.39457  1.0000
  H   H2410     1.0  0.34793  0.70596  0.37719  1.0000
  C   C1404     1.0  0.61183  0.54938  0.10565  1.0000
  H   H2411     1.0  0.54958  0.64210  0.22963  1.0000
  H   H2412     1.0  0.52176  0.52295  0.22474  1.0000
  C   C1405     1.0  0.41896  0.62314  0.41449  1.0000
  H   H2413     1.0  0.58211  0.65409  0.33803  1.0000
  H   H2414     1.0  0.33808  0.62043  0.40909  1.0000
  H   H2415     1.0  0.55452  0.63576  0.26172  1.0000
  H   H2416     1.0  0.43983  0.71205  0.35103  1.0000
  H   H2417     1.0  0.62678  0.52411  0.19195  1.0000
  H   H2418     1.0  0.46540  0.57220  0.43116  1.0000
  C   C1406     1.0  0.50013  0.72121  0.32729  1.0000
  H   H2419     1.0  0.65327  0.54444  0.06600  1.0000
  H   H2420     1.0  0.49655  0.53454  0.23538  1.0000
  H   H2421     1.0  0.52279  0.63376  0.28763  1.0000
  H   H2422     1.0  0.50322  0.72541  0.34128  1.0000
  C   C1407     1.0  0.47875  0.48744  0.25315  1.0000
  S   S418      1.0  0.36910  0.65257  0.45154  1.0000
  H   H2423     1.0  0.57798  0.58106  0.26050  1.0000
  H   H2424     1.0  0.50783  0.67693  0.33459  1.0000
  S   S419      1.0  0.63433  0.48625  0.36504  1.0000
  C   C1408     1.0  0.45807  0.52749  0.26254  1.0000
  C   C1409     1.0  0.56564  0.61558  0.28792  1.0000
  C   C1410     1.0  0.32271  0.66593  0.35749  1.0000
  Fe  Fe215     1.0  0.64097  0.61345  0.98860  1.0000
  H   H2425     1.0  0.57687  0.66727  0.31342  1.0000
  C   C1411     1.0  0.63823  0.63562  0.31133  1.0000
  H   H2426     1.0  0.33267  0.67457  0.34483  1.0000
  H   H2427     1.0  0.52646  0.59702  0.28701  1.0000
  C   C1412     1.0  0.56217  0.61939  0.26537  1.0000
  Fe  Fe216     1.0  0.61959  0.50715  0.33911  1.0000
  C   C1413     1.0  0.54118  0.69096  0.04527  1.0000
  C   C1414     1.0  0.44999  0.70901  0.31798  1.0000
  C   C1415     1.0  0.54269  0.62963  0.22674  1.0000
  H   H2428     1.0  0.59605  0.69717  0.03187  1.0000
  H   H2429     1.0  0.58704  0.65836  0.05414  1.0000
  H   H2430     1.0  0.53758  0.53563  0.30079  1.0000
  N   N101      1.0  0.55030  0.60479  0.26058  1.0000
  H   H2431     1.0  0.57872  0.60258  0.29056  1.0000
  Fe  Fe217     1.0  0.34588  0.63588  0.47481  1.0000
  H   H2432     1.0  0.43592  0.63136  0.45621  1.0000
  C   C1416     1.0  0.37682  0.68153  0.31269  1.0000
  C   C1417     1.0  0.35890  0.64334  0.39769  1.0000
  H   H2433     1.0  0.57161  0.71444  0.02847  1.0000
  C   C1418     1.0  0.62022  0.53255  0.09200  1.0000
  H   H2434     1.0  0.56540  0.68818  0.00842  1.0000
  C   C1419     1.0  0.34417  0.63182  0.41492  1.0000
  C   C1420     1.0  0.34310  0.58719  0.36590  1.0000
  H   H2435     1.0  0.50454  0.65493  0.32567  1.0000
  H   H2436     1.0  0.36971  0.63146  0.38947  1.0000
  H   H2437     1.0  0.36853  0.64953  0.40573  1.0000
  H   H2438     1.0  0.39337  0.60619  0.41759  1.0000
  C   C1421     1.0  0.47765  0.70410  0.27764  1.0000
  H   H2439     1.0  0.58712  0.67077  0.01688  1.0000
  C   C1422     1.0  0.33715  0.56419  0.34505  1.0000
  H   H2440     1.0  0.43854  0.57354  0.43409  1.0000
  H   H2441     1.0  0.41847  0.59226  0.40763  1.0000
  N   N102      1.0  0.47320  0.70401  0.31689  1.0000
  H   H2442     1.0  0.63850  0.71569  0.32172  1.0000
  H   H2443     1.0  0.43390  0.58747  0.47152  1.0000
  H   H2444     1.0  0.45893  0.61215  0.41854  1.0000
  H   H2445     1.0  0.64510  0.49300  0.42469  1.0000
  H   H2446     1.0  0.62529  0.71391  0.45884  1.0000
  H   H2447     1.0  0.61279  0.54215  0.12193  1.0000
  C   C1423     1.0  0.47921  0.68079  0.32216  1.0000
  H   H2448     1.0  0.56810  0.55404  0.06801  1.0000
  N   N103      1.0  0.51479  0.54735  0.34989  1.0000
  C   C1424     1.0  0.53126  0.54028  0.33253  1.0000
  C   C1425     1.0  0.52532  0.54684  0.36776  1.0000
  C   C1426     1.0  0.50370  0.56906  0.34355  1.0000
  C   C1427     1.0  0.49907  0.53312  0.35555  1.0000
  C   C1428     1.0  0.52415  0.54199  0.31182  1.0000
  C   C1429     1.0  0.53218  0.52514  0.38005  1.0000
  C   C1430     1.0  0.51754  0.58577  0.33662  1.0000
  C   C1431     1.0  0.48176  0.53702  0.37427  1.0000
  H   H2449     1.0  0.54443  0.54883  0.32937  1.0000
  H   H2450     1.0  0.53828  0.52376  0.33695  1.0000
  H   H2451     1.0  0.51543  0.55654  0.37889  1.0000
  H   H2452     1.0  0.53952  0.55401  0.36235  1.0000
  H   H2453     1.0  0.49489  0.56987  0.33107  1.0000
  H   H2454     1.0  0.49167  0.57406  0.35651  1.0000
  H   H2455     1.0  0.49089  0.53444  0.34245  1.0000
  H   H2456     1.0  0.50673  0.51655  0.35813  1.0000
  H   H2457     1.0  0.62292  0.52504  0.04277  1.0000
  H   H2458     1.0  0.59835  0.56763  0.07000  1.0000
  C   C1432     1.0  0.37432  0.70301  0.31095  1.0000
  H   H2459     1.0  0.54158  0.51425  0.36995  1.0000
  H   H2460     1.0  0.48662  0.71071  0.26276  1.0000
  H   H2461     1.0  0.51870  0.51841  0.38940  1.0000
  H   H2462     1.0  0.50784  0.60104  0.33223  1.0000
  H   H2463     1.0  0.52952  0.58274  0.32301  1.0000
  H   H2464     1.0  0.52493  0.58731  0.34935  1.0000
  H   H2465     1.0  0.46704  0.54507  0.36895  1.0000
  H   H2466     1.0  0.48531  0.54642  0.38428  1.0000
  H   H2467     1.0  0.47904  0.52200  0.38413  1.0000
  C   C1433     1.0  0.36096  0.67864  0.44102  1.0000
  H   H2468     1.0  0.63096  0.63762  0.29751  1.0000
  C   C1434     1.0  0.55490  0.65505  0.03722  1.0000
  H   H2469     1.0  0.51834  0.60167  0.26307  1.0000
  H   H2470     1.0  0.40686  0.63738  0.41521  1.0000
  C   C1435     1.0  0.54416  0.65762  0.01847  1.0000
  C   C1436     1.0  0.55237  0.56558  0.26218  1.0000
  H   H2471     1.0  0.56034  0.57948  0.28436  1.0000
  H   H2472     1.0  0.57723  0.68323  0.06086  1.0000
  C   C1437     1.0  0.40996  0.70194  0.29351  1.0000
  S   S420      1.0  0.62513  0.53896  0.32279  1.0000
  N   N104      1.0  0.42718  0.61627  0.43456  1.0000
  H   H2473     1.0  0.35447  0.59787  0.29341  1.0000
  H   H2474     1.0  0.43152  0.62747  0.40151  1.0000
  H   H2475     1.0  0.56019  0.55027  0.26927  1.0000
  C   C1438     1.0  0.38355  0.67373  0.37255  1.0000
  H   H2476     1.0  0.51820  0.64103  0.26142  1.0000
  H   H2477     1.0  0.63578  0.52494  0.09568  1.0000
  H   H2478     1.0  0.57781  0.61853  0.25539  1.0000
  H   H2479     1.0  0.55541  0.56543  0.24547  1.0000
  H   H2480     1.0  0.56994  0.62952  0.29114  1.0000
  H   H2481     1.0  0.52553  0.63286  0.23066  1.0000
  H   H2482     1.0  0.51207  0.67647  0.30703  1.0000
  C   C1439     1.0  0.57241  0.66927  0.05828  1.0000
  H   H2483     1.0  0.51876  0.55828  0.30496  1.0000
  C   C1440     1.0  0.52800  0.60716  0.27158  1.0000
  H   H2484     1.0  0.47118  0.67492  0.33771  1.0000
  H   H2485     1.0  0.62088  0.56211  0.10161  1.0000
  N   N105      1.0  0.62145  0.53981  0.06904  1.0000
  H   H2486     1.0  0.34390  0.63788  0.36614  1.0000
  C   C1441     1.0  0.62600  0.52097  0.05886  1.0000
  C   C1442     1.0  0.60135  0.55291  0.06401  1.0000
  H   H2487     1.0  0.61867  0.71061  0.31070  1.0000
  C   C1443     1.0  0.63036  0.68537  0.33479  1.0000
  H   H2488     1.0  0.40955  0.59099  0.44572  1.0000
  H   H2489     1.0  0.51574  0.51213  0.26202  1.0000
  S   S421      1.0  0.35139  0.71667  0.32300  1.0000
  H   H2490     1.0  0.60032  0.53432  0.19341  1.0000
  H   H2491     1.0  0.46738  0.72939  0.33394  1.0000
  H   H2492     1.0  0.64776  0.49876  0.20535  1.0000
  H   H2493     1.0  0.64482  0.50073  0.24050  1.0000
  H   H2494     1.0  0.58289  0.52908  0.06469  1.0000
  H   H2495     1.0  0.60652  0.66151  0.36167  1.0000
  H   H2496     1.0  0.61315  0.52064  0.17270  1.0000
  C   C1444     1.0  0.34835  0.71984  0.42219  1.0000
  H   H2497     1.0  0.49252  0.49789  0.30811  1.0000
  C   C1445     1.0  0.63161  0.49580  0.23643  1.0000
  H   H2498     1.0  0.44495  0.72572  0.31179  1.0000
  C   C1446     1.0  0.56164  0.50350  0.16223  1.0000
  H   H2499     1.0  0.45053  0.54111  0.27004  1.0000
  C   C1447     1.0  0.63904  0.48733  0.21605  1.0000
  H   H2500     1.0  0.52075  0.49104  0.24874  1.0000
  C   C1448     1.0  0.57778  0.48689  0.15903  1.0000
  C   C1449     1.0  0.58343  0.70181  0.02259  1.0000
  C   C1450     1.0  0.33475  0.70977  0.43802  1.0000
  H   H2501     1.0  0.50021  0.70911  0.29331  1.0000
  H   H2502     1.0  0.54199  0.52648  0.39094  1.0000
  H   H2503     1.0  0.54292  0.59740  0.23338  1.0000
  N   N106      1.0  0.62325  0.66704  0.33046  1.0000
  C   C1451     1.0  0.43659  0.70412  0.33952  1.0000
  H   H2504     1.0  0.56795  0.60393  0.22971  1.0000
  H   H2505     1.0  0.63726  0.60673  0.14502  1.0000
  C   C1452     1.0  0.34234  0.61050  0.29902  1.0000
  H   H2506     1.0  0.65226  0.50324  0.07397  1.0000
  H   H2507     1.0  0.46494  0.50734  0.28986  1.0000
  C   C1453     1.0  0.58197  0.54267  0.07198  1.0000
  C   C1454     1.0  0.36835  0.70931  0.41599  1.0000
  C   C1455     1.0  0.55154  0.60792  0.23750  1.0000
  H   H2508     1.0  0.45292  0.58284  0.40913  1.0000
  C   C1456     1.0  0.44043  0.65123  0.42693  1.0000
  S   S422      1.0  0.64567  0.58098  0.98278  1.0000
  C   C1457     1.0  0.64967  0.48371  0.17270  1.0000
  H   H2509     1.0  0.59916  0.70483  0.44254  1.0000
  C   C1458     1.0  0.41306  0.68029  0.29726  1.0000
  H   H2510     1.0  0.64201  0.66702  0.30010  1.0000
  H   H2511     1.0  0.63233  0.57682  0.03442  1.0000
  C   C1459     1.0  0.61023  0.72374  0.45885  1.0000
  H   H2512     1.0  0.56942  0.50040  0.27320  1.0000
  C   C1460     1.0  0.36561  0.66751  0.36558  1.0000
  H   H2513     1.0  0.61041  0.52034  0.09778  1.0000
  H   H2514     1.0  0.48187  0.68703  0.27919  1.0000
  H   H2515     1.0  0.54894  0.67142  0.08641  1.0000
  H   H2516     1.0  0.47706  0.70499  0.34781  1.0000
  C   C1461     1.0  0.50622  0.51954  0.23266  1.0000
  H   H2517     1.0  0.51202  0.53264  0.31312  1.0000
  H   H2518     1.0  0.50026  0.51295  0.22180  1.0000
  C   C1462     1.0  0.60369  0.67512  0.32134  1.0000
  H   H2519     1.0  0.37270  0.65514  0.35615  1.0000
  H   H2520     1.0  0.53105  0.67081  0.01804  1.0000
  H   H2521     1.0  0.54493  0.70268  0.05274  1.0000
  H   H2522     1.0  0.60744  0.68253  0.30489  1.0000
  H   H2523     1.0  0.37909  0.71707  0.40414  1.0000
  C   C1463     1.0  0.58963  0.65943  0.32204  1.0000
  H   H2524     1.0  0.45660  0.60215  0.44477  1.0000
  H   H2525     1.0  0.42005  0.70982  0.33807  1.0000
  H   H2526     1.0  0.47306  0.49911  0.24031  1.0000
  H   H2527     1.0  0.63452  0.56668  0.06887  1.0000
  H   H2528     1.0  0.34356  0.67842  0.40704  1.0000
  H   H2529     1.0  0.64292  0.65528  0.36755  1.0000
  H   H2530     1.0  0.35936  0.68095  0.35462  1.0000
  C   C1464     1.0  0.50868  0.50435  0.25294  1.0000
  H   H2531     1.0  0.53794  0.64334  0.01924  1.0000
  H   H2532     1.0  0.38874  0.72993  0.29920  1.0000
  H   H2533     1.0  0.34515  0.61130  0.31441  1.0000
  C   C1465     1.0  0.64814  0.50832  0.05836  1.0000
  C   C1466     1.0  0.63826  0.55276  0.06139  1.0000
  C   C1467     1.0  0.60554  0.50100  0.20281  1.0000
  C   C1468     1.0  0.64208  0.56132  0.03798  1.0000
  C   C1469     1.0  0.52145  0.68341  0.05861  1.0000
  H   H2534     1.0  0.39663  0.61470  0.45264  1.0000
  H   H2535     1.0  0.55560  0.64569  0.07959  1.0000
  H   H2536     1.0  0.59564  0.50505  0.21740  1.0000
  H   H2537     1.0  0.64375  0.61728  0.11844  1.0000
  H   H2538     1.0  0.33030  0.68138  0.45933  1.0000
  C   C1470     1.0  0.33327  0.69976  0.38151  1.0000
  S   S423      1.0  0.58547  0.48859  0.09757  1.0000
  C   C1471     1.0  0.65326  0.58325  0.12668  1.0000
  C   C1472     1.0  0.63336  0.70332  0.31641  1.0000
  C   C1473     1.0  0.56439  0.48557  0.27666  1.0000
  C   C1474     1.0  0.57558  0.73062  0.45015  1.0000
  H   H2539     1.0  0.64908  0.49406  0.05208  1.0000
  S   S424      1.0  0.55581  0.72432  0.43977  1.0000
  H   H2540     1.0  0.51836  0.49421  0.29300  1.0000
  H   H2541     1.0  0.56253  0.48545  0.24507  1.0000
  S   S425      1.0  0.37984  0.73256  0.35999  1.0000
  H   H2542     1.0  0.64569  0.50071  0.16850  1.0000
  H   H2543     1.0  0.47861  0.72954  0.29204  1.0000
  H   H2544     1.0  0.64549  0.69844  0.30356  1.0000
  H   H2545     1.0  0.64706  0.59148  0.08856  1.0000
  H   H2546     1.0  0.32267  0.64472  0.38569  1.0000
  S   S426      1.0  0.58761  0.72927  0.34466  1.0000
  C   C1475     1.0  0.64951  0.60550  0.13112  1.0000
  H   H2547     1.0  0.47654  0.72968  0.84925  1.0000
  H   H2548     1.0  0.35164  0.55565  0.52384  1.0000
  C   C1476     1.0  0.33006  0.62326  0.65016  1.0000
  S   S427      1.0  0.62674  0.63960  0.81985  1.0000
  C   C1477     1.0  0.33092  0.62620  0.87042  1.0000
  H   H2549     1.0  0.39208  0.50616  0.51922  1.0000
  Fe  Fe218     1.0  0.49822  0.64389  0.75314  1.0000
  S   S428      1.0  0.50766  0.61332  0.77293  1.0000
  S   S429      1.0  0.48316  0.64806  0.72469  1.0000
  Fe  Fe219     1.0  0.50902  0.66815  0.78276  1.0000
  S   S430      1.0  0.51865  0.63920  0.80447  1.0000
  S   S431      1.0  0.50639  0.69811  0.79421  1.0000
  Fe  Fe220     1.0  0.53488  0.62679  0.77589  1.0000
  S   S432      1.0  0.56747  0.60832  0.77500  1.0000
  Fe  Fe221     1.0  0.49071  0.62908  0.79941  1.0000
  S   S433      1.0  0.46708  0.61615  0.82496  1.0000
  S   S434      1.0  0.52685  0.65649  0.75399  1.0000
  S   S435      1.0  0.47969  0.65888  0.77966  1.0000
  Fe  Fe222     1.0  0.40155  0.55403  0.65973  1.0000
  S   S436      1.0  0.37867  0.58067  0.64733  1.0000
  S   S437      1.0  0.39491  0.52164  0.66229  1.0000
  Fe  Fe223     1.0  0.42760  0.58263  0.66989  1.0000
  S   S438      1.0  0.40692  0.61138  0.65700  1.0000
  S   S439      1.0  0.45351  0.58057  0.68829  1.0000
  Fe  Fe224     1.0  0.38081  0.59492  0.67377  1.0000
  S   S440      1.0  0.35362  0.61084  0.69378  1.0000
  Fe  Fe225     1.0  0.40666  0.59462  0.63131  1.0000
  S   S441      1.0  0.40692  0.61161  0.59828  1.0000
  S   S442      1.0  0.40108  0.56708  0.68800  1.0000
  S   S443      1.0  0.42992  0.56701  0.64241  1.0000
  S   S444      1.0  0.59385  0.68077  0.96989  1.0000
  H   H2550     1.0  0.39933  0.53974  0.61868  1.0000
  H   H2551     1.0  0.40703  0.58788  0.48199  1.0000
  S   S445      1.0  0.34981  0.58745  0.54590  1.0000
  Fe  Fe226     1.0  0.34890  0.66786  0.88511  1.0000
  S   S446      1.0  0.36450  0.67441  0.90927  1.0000
  Fe  Fe227     1.0  0.35280  0.71001  0.85855  1.0000
  S   S447      1.0  0.36849  0.71964  0.88011  1.0000
  H   H2552     1.0  0.33254  0.60853  0.73579  1.0000
  Fe  Fe228     1.0  0.38669  0.68748  0.88208  1.0000
  S   S448      1.0  0.42122  0.68566  0.87721  1.0000
  Fe  Fe229     1.0  0.34494  0.70641  0.90527  1.0000
  H   H2553     1.0  0.51189  0.65514  0.84283  1.0000
  S   S449      1.0  0.37280  0.67869  0.85843  1.0000
  C   C1478     1.0  0.38034  0.49060  0.74635  1.0000
  H   H2554     1.0  0.47165  0.73188  0.77082  1.0000
  C   C1479     1.0  0.54238  0.73106  0.81064  1.0000
  H   H2555     1.0  0.42916  0.64516  0.77313  1.0000
  C   C1480     1.0  0.43476  0.48713  0.58656  1.0000
  C   C1481     1.0  0.55209  0.64405  0.84134  1.0000
  H   H2556     1.0  0.32386  0.66057  0.60681  1.0000
  H   H2557     1.0  0.62759  0.49086  0.62657  1.0000
  S   S450      1.0  0.32684  0.72646  0.92900  1.0000
  C   C1482     1.0  0.62140  0.69484  0.93570  1.0000
  C   C1483     1.0  0.39168  0.60448  0.58330  1.0000
  C   C1484     1.0  0.38823  0.61697  0.56434  1.0000
  C   C1485     1.0  0.37561  0.61191  0.55250  1.0000
  C   C1486     1.0  0.36644  0.59422  0.55957  1.0000
  C   C1487     1.0  0.37010  0.58164  0.57839  1.0000
  C   C1488     1.0  0.38262  0.58675  0.59020  1.0000
  H   H2558     1.0  0.39523  0.63070  0.55886  1.0000
  H   H2559     1.0  0.37287  0.62173  0.53803  1.0000
  H   H2560     1.0  0.36323  0.56784  0.58391  1.0000
  H   H2561     1.0  0.38546  0.57677  0.60451  1.0000
  H   H2562     1.0  0.41754  0.61053  0.48000  1.0000
  H   H2563     1.0  0.39205  0.49031  0.75598  1.0000
  H   H2564     1.0  0.57295  0.64246  0.70522  1.0000
  C   C1489     1.0  0.45486  0.63507  0.84014  1.0000
  C   C1490     1.0  0.46249  0.65353  0.83728  1.0000
  C   C1491     1.0  0.45222  0.66894  0.84888  1.0000
  C   C1492     1.0  0.43407  0.66612  0.86307  1.0000
  C   C1493     1.0  0.42629  0.64777  0.86580  1.0000
  C   C1494     1.0  0.43687  0.63212  0.85456  1.0000
  H   H2565     1.0  0.47629  0.65600  0.82613  1.0000
  H   H2566     1.0  0.45818  0.68318  0.84661  1.0000
  H   H2567     1.0  0.41229  0.64552  0.87682  1.0000
  H   H2568     1.0  0.43097  0.61785  0.85688  1.0000
  C   C1495     1.0  0.47303  0.62927  0.71635  1.0000
  C   C1496     1.0  0.47671  0.60820  0.72491  1.0000
  C   C1497     1.0  0.47031  0.59360  0.71638  1.0000
  C   C1498     1.0  0.45947  0.59986  0.69967  1.0000
  C   C1499     1.0  0.45503  0.62104  0.69168  1.0000
  C   C1500     1.0  0.46198  0.63558  0.69982  1.0000
  H   H2569     1.0  0.48497  0.60306  0.73775  1.0000
  H   H2570     1.0  0.47384  0.57729  0.72270  1.0000
  H   H2571     1.0  0.44687  0.62613  0.67875  1.0000
  H   H2572     1.0  0.45903  0.65181  0.69301  1.0000
  C   C1501     1.0  0.61095  0.63048  0.80696  1.0000
  C   C1502     1.0  0.61516  0.61019  0.80308  1.0000
  C   C1503     1.0  0.60186  0.60357  0.79310  1.0000
  C   C1504     1.0  0.58412  0.61706  0.78724  1.0000
  C   C1505     1.0  0.57999  0.63735  0.79107  1.0000
  C   C1506     1.0  0.59344  0.64406  0.80071  1.0000
  H   H2573     1.0  0.62860  0.59960  0.80779  1.0000
  H   H2574     1.0  0.60520  0.58787  0.79017  1.0000
  H   H2575     1.0  0.56653  0.64796  0.78642  1.0000
  H   H2576     1.0  0.59019  0.65985  0.80340  1.0000
  H   H2577     1.0  0.34421  0.61232  0.65403  1.0000
  H   H2578     1.0  0.38605  0.53374  0.49345  1.0000
  C   C1507     1.0  0.40235  0.51155  0.71886  1.0000
  H   H2579     1.0  0.54484  0.55884  0.74043  1.0000
  H   H2580     1.0  0.65538  0.66878  0.80108  1.0000
  H   H2581     1.0  0.39075  0.71286  0.83471  1.0000
  H   H2582     1.0  0.62337  0.50653  0.60271  1.0000
  H   H2583     1.0  0.58712  0.58353  0.67957  1.0000
  C   C1508     1.0  0.36844  0.50803  0.71280  1.0000
  H   H2584     1.0  0.37634  0.49296  0.54091  1.0000
  H   H2585     1.0  0.64158  0.66728  0.83628  1.0000
  H   H2586     1.0  0.52607  0.68602  0.86368  1.0000
  C   C1509     1.0  0.34657  0.50276  0.72091  1.0000
  H   H2587     1.0  0.55450  0.70266  0.84432  1.0000
  H   H2588     1.0  0.52357  0.61883  0.71926  1.0000
  H   H2589     1.0  0.39926  0.62365  0.83990  1.0000
  C   C1510     1.0  0.36057  0.50580  0.51393  1.0000
  C   C1511     1.0  0.33015  0.60493  0.87355  1.0000
  H   H2590     1.0  0.56940  0.67940  0.83680  1.0000
  C   C1512     1.0  0.56493  0.70961  0.78734  1.0000
  C   C1513     1.0  0.54813  0.70066  0.78610  1.0000
  C   C1514     1.0  0.52833  0.70728  0.79677  1.0000
  H   H2591     1.0  0.62661  0.72055  0.82343  1.0000
  C   C1515     1.0  0.37643  0.49876  0.64429  1.0000
  H   H2592     1.0  0.55042  0.68901  0.77654  1.0000
  C   C1516     1.0  0.62654  0.70757  0.91659  1.0000
  C   C1517     1.0  0.56188  0.63206  0.71366  1.0000
  Fe  Fe230     1.0  0.32604  0.59848  0.47848  1.0000
  H   H2593     1.0  0.43707  0.60215  0.80073  1.0000
  H   H2594     1.0  0.36987  0.54230  0.72541  1.0000
  C   C1518     1.0  0.38625  0.52068  0.60448  1.0000
  C   C1519     1.0  0.39132  0.52678  0.62127  1.0000
  C   C1520     1.0  0.38674  0.51565  0.64122  1.0000
  H   H2595     1.0  0.36308  0.64025  0.64825  1.0000
  H   H2596     1.0  0.56933  0.64613  0.89428  1.0000
  H   H2597     1.0  0.39035  0.52912  0.58905  1.0000
  H   H2598     1.0  0.41069  0.65426  0.75543  1.0000
  H   H2599     1.0  0.55555  0.61246  0.86008  1.0000
  H   H2600     1.0  0.39543  0.53734  0.74892  1.0000
  H   H2601     1.0  0.63341  0.68437  0.94302  1.0000
  H   H2602     1.0  0.52236  0.57856  0.74606  1.0000
  H   H2603     1.0  0.53623  0.62971  0.68077  1.0000
  C   C1521     1.0  0.33766  0.57499  0.70289  1.0000
  H   H2604     1.0  0.34009  0.53630  0.49041  1.0000
  C   C1522     1.0  0.36357  0.64719  0.63170  1.0000
  C   C1523     1.0  0.33984  0.59238  0.71005  1.0000
  H   H2605     1.0  0.56667  0.61386  0.83337  1.0000
  H   H2606     1.0  0.38998  0.66844  0.78085  1.0000
  H   H2607     1.0  0.58286  0.60434  0.70679  1.0000
  H   H2608     1.0  0.56794  0.58527  0.73859  1.0000
  C   C1524     1.0  0.52722  0.61704  0.68719  1.0000
  C   C1525     1.0  0.55940  0.57786  0.70267  1.0000
  H   H2609     1.0  0.34050  0.60164  0.61775  1.0000
  H   H2610     1.0  0.36577  0.50837  0.49690  1.0000
  H   H2611     1.0  0.48419  0.65498  0.87456  1.0000
  N   N107      1.0  0.33279  0.63163  0.62725  1.0000
  S   S451      1.0  0.35670  0.60178  0.48443  1.0000
  H   H2612     1.0  0.53070  0.60548  0.67688  1.0000
  C   C1526     1.0  0.55327  0.62040  0.84435  1.0000
  H   H2613     1.0  0.32457  0.65553  0.85049  1.0000
  C   C1527     1.0  0.63718  0.48485  0.56384  1.0000
  H   H2614     1.0  0.42452  0.59664  0.82693  1.0000
  H   H2615     1.0  0.38018  0.64748  0.62496  1.0000
  C   C1528     1.0  0.32893  0.61625  0.61567  1.0000
  H   H2616     1.0  0.56819  0.64660  0.83945  1.0000
  N   N108      1.0  0.55201  0.59710  0.71242  1.0000
  H   H2617     1.0  0.54531  0.60403  0.74342  1.0000
  H   H2618     1.0  0.42167  0.71623  0.90538  1.0000
  H   H2619     1.0  0.61501  0.68647  0.87872  1.0000
  H   H2620     1.0  0.53727  0.63218  0.88615  1.0000
  H   H2621     1.0  0.44182  0.50020  0.58800  1.0000
  H   H2622     1.0  0.57328  0.56579  0.67437  1.0000
  S   S452      1.0  0.32746  0.69883  0.88330  1.0000
  H   H2623     1.0  0.36906  0.73047  0.93153  1.0000
  H   H2624     1.0  0.56817  0.61731  0.68735  1.0000
  H   H2625     1.0  0.58017  0.70470  0.77879  1.0000
  H   H2626     1.0  0.35378  0.52770  0.74490  1.0000
  H   H2627     1.0  0.56910  0.71041  0.94327  1.0000
  H   H2628     1.0  0.49589  0.72435  0.75528  1.0000
  H   H2629     1.0  0.61399  0.70302  0.52711  1.0000
  N   N109      1.0  0.38691  0.59077  0.81860  1.0000
  C   C1529     1.0  0.39262  0.56746  0.82398  1.0000
  C   C1530     1.0  0.40498  0.59839  0.80356  1.0000
  C   C1531     1.0  0.36816  0.59537  0.80819  1.0000
  C   C1532     1.0  0.38211  0.59963  0.83826  1.0000
  C   C1533     1.0  0.37527  0.55606  0.83733  1.0000
  C   C1534     1.0  0.42588  0.59298  0.81137  1.0000
  C   C1535     1.0  0.36049  0.61815  0.79933  1.0000
  C   C1536     1.0  0.38415  0.62254  0.83631  1.0000
  H   H2630     1.0  0.39807  0.56048  0.80973  1.0000
  H   H2631     1.0  0.40579  0.56296  0.83263  1.0000
  H   H2632     1.0  0.40201  0.61540  0.79861  1.0000
  H   H2633     1.0  0.40746  0.59206  0.78904  1.0000
  H   H2634     1.0  0.37109  0.58652  0.79529  1.0000
  H   H2635     1.0  0.35454  0.59017  0.81908  1.0000
  H   H2636     1.0  0.36620  0.59794  0.84647  1.0000
  H   H2637     1.0  0.39265  0.59062  0.84906  1.0000
  N   N110      1.0  0.34788  0.52529  0.52091  1.0000
  H   H2638     1.0  0.38203  0.53960  0.84243  1.0000
  H   H2639     1.0  0.44597  0.71177  0.91366  1.0000
  H   H2640     1.0  0.38390  0.55860  0.50003  1.0000
  H   H2641     1.0  0.63022  0.66310  0.86982  1.0000
  H   H2642     1.0  0.33603  0.51464  0.72907  1.0000
  H   H2643     1.0  0.37234  0.62522  0.78746  1.0000
  H   H2644     1.0  0.35433  0.62749  0.81171  1.0000
  H   H2645     1.0  0.34717  0.61882  0.79163  1.0000
  H   H2646     1.0  0.37234  0.62951  0.84834  1.0000
  H   H2647     1.0  0.38176  0.63252  0.82146  1.0000
  H   H2648     1.0  0.57246  0.62441  0.88227  1.0000
  H   H2649     1.0  0.37145  0.71168  0.79143  1.0000
  H   H2650     1.0  0.36993  0.54684  0.76071  1.0000
  C   C1537     1.0  0.53689  0.67772  0.85191  1.0000
  C   C1538     1.0  0.53017  0.60687  0.70933  1.0000
  H   H2651     1.0  0.38044  0.52028  0.76831  1.0000
  H   H2652     1.0  0.65229  0.60951  0.94361  1.0000
  H   H2653     1.0  0.60219  0.48385  0.59614  1.0000
  C   C1539     1.0  0.61106  0.72150  0.90716  1.0000
  H   H2654     1.0  0.37274  0.49012  0.65969  1.0000
  H   H2655     1.0  0.54618  0.56997  0.70322  1.0000
  C   C1540     1.0  0.60070  0.69591  0.94547  1.0000
  C   C1541     1.0  0.32939  0.62372  0.59231  1.0000
  C   C1542     1.0  0.37115  0.49277  0.62750  1.0000
  C   C1543     1.0  0.37475  0.69452  0.79500  1.0000
  C   C1544     1.0  0.56696  0.64143  0.88021  1.0000
  H   H2656     1.0  0.32684  0.61096  0.58550  1.0000
  H   H2657     1.0  0.56177  0.72376  0.59061  1.0000
  H   H2658     1.0  0.34899  0.51382  0.55330  1.0000
  H   H2659     1.0  0.41501  0.66017  0.82442  1.0000
  N   N111      1.0  0.38050  0.50898  0.72905  1.0000
  C   C1545     1.0  0.58516  0.70953  0.93582  1.0000
  H   H2660     1.0  0.42009  0.49368  0.58053  1.0000
  H   H2661     1.0  0.36793  0.56273  0.85139  1.0000
  C   C1546     1.0  0.53915  0.57351  0.74651  1.0000
  H   H2662     1.0  0.56330  0.59287  0.66955  1.0000
  C   C1547     1.0  0.56693  0.61213  0.70427  1.0000
  C   C1548     1.0  0.57131  0.58048  0.68024  1.0000
  H   H2663     1.0  0.37942  0.68941  0.81037  1.0000
  C   C1549     1.0  0.51616  0.65060  0.85849  1.0000
  C   C1550     1.0  0.55742  0.68558  0.84912  1.0000
  H   H2664     1.0  0.54609  0.64079  0.71219  1.0000
  H   H2665     1.0  0.56397  0.62881  0.73001  1.0000
  H   H2666     1.0  0.42509  0.72211  0.81925  1.0000
  H   H2667     1.0  0.33058  0.54937  0.55421  1.0000
  C   C1551     1.0  0.37989  0.53309  0.75487  1.0000
  C   C1552     1.0  0.41633  0.49326  0.70947  1.0000
  H   H2668     1.0  0.50177  0.65952  0.88892  1.0000
  S   S453      1.0  0.64849  0.64211  0.96658  1.0000
  H   H2669     1.0  0.40243  0.72039  0.78155  1.0000
  H   H2670     1.0  0.40201  0.52527  0.70628  1.0000
  H   H2671     1.0  0.54071  0.57001  0.76305  1.0000
  S   S454      1.0  0.34063  0.63574  0.88846  1.0000
  H   H2672     1.0  0.33969  0.50192  0.70755  1.0000
  C   C1553     1.0  0.55182  0.59067  0.73533  1.0000
  H   H2673     1.0  0.41346  0.69280  0.80687  1.0000
  C   C1554     1.0  0.63060  0.67661  0.87659  1.0000
  S   S455      1.0  0.36622  0.50694  0.82094  1.0000
  H   H2674     1.0  0.35794  0.64175  0.60340  1.0000
  H   H2675     1.0  0.38513  0.69130  0.76304  1.0000
  H   H2676     1.0  0.57030  0.56623  0.71155  1.0000
  C   C1555     1.0  0.35515  0.63431  0.61990  1.0000
  C   C1556     1.0  0.62656  0.49006  0.61048  1.0000
  C   C1557     1.0  0.37640  0.50351  0.60745  1.0000
  Fe  Fe231     1.0  0.34020  0.60625  0.51621  1.0000
  H   H2677     1.0  0.40759  0.65287  0.80386  1.0000
  H   H2678     1.0  0.64427  0.69550  0.80105  1.0000
  H   H2679     1.0  0.36554  0.61896  0.62076  1.0000
  H   H2680     1.0  0.43776  0.65023  0.74616  1.0000
  C   C1558     1.0  0.57301  0.72147  0.57622  1.0000
  H   H2681     1.0  0.44373  0.71315  0.75125  1.0000
  C   C1559     1.0  0.49836  0.66166  0.87315  1.0000
  C   C1560     1.0  0.65327  0.55756  0.95287  1.0000
  H   H2682     1.0  0.36524  0.55434  0.48667  1.0000
  H   H2683     1.0  0.51977  0.59520  0.71427  1.0000
  H   H2684     1.0  0.43762  0.68327  0.79342  1.0000
  H   H2685     1.0  0.51551  0.63379  0.86324  1.0000
  H   H2686     1.0  0.35546  0.66350  0.63013  1.0000
  C   C1561     1.0  0.43322  0.71923  0.76453  1.0000
  C   C1562     1.0  0.54350  0.64669  0.87902  1.0000
  C   C1563     1.0  0.33737  0.51970  0.54294  1.0000
  C   C1564     1.0  0.43517  0.72359  0.90494  1.0000
  H   H2687     1.0  0.42403  0.68719  0.74353  1.0000
  H   H2688     1.0  0.34629  0.48284  0.80194  1.0000
  H   H2689     1.0  0.36324  0.55577  0.82836  1.0000
  H   H2690     1.0  0.58845  0.72149  0.57950  1.0000
  H   H2691     1.0  0.41106  0.51448  0.72993  1.0000
  C   C1565     1.0  0.64700  0.68948  0.86408  1.0000
  H   H2692     1.0  0.49434  0.67840  0.86684  1.0000
  H   H2693     1.0  0.56329  0.68270  0.86385  1.0000
  H   H2694     1.0  0.36671  0.52310  0.70191  1.0000
  C   C1566     1.0  0.37482  0.54703  0.49872  1.0000
  H   H2695     1.0  0.32884  0.50671  0.54476  1.0000
  C   C1567     1.0  0.38002  0.49626  0.52389  1.0000
  H   H2696     1.0  0.44938  0.71504  0.87592  1.0000
  C   C1568     1.0  0.33091  0.59506  0.73026  1.0000
  C   C1569     1.0  0.62531  0.70870  0.83778  1.0000
  C   C1570     1.0  0.37025  0.52835  0.73786  1.0000
  H   H2697     1.0  0.62497  0.49785  0.56837  1.0000
  N   N112      1.0  0.64640  0.69661  0.84136  1.0000
  C   C1571     1.0  0.60915  0.69619  0.83577  1.0000
  C   C1572     1.0  0.52558  0.72237  0.80915  1.0000
  H   H2698     1.0  0.32305  0.58017  0.86169  1.0000
  H   H2699     1.0  0.54760  0.65093  0.82599  1.0000
  H   H2700     1.0  0.59359  0.48969  0.62145  1.0000
  C   C1573     1.0  0.65104  0.57755  0.95696  1.0000
  H   H2701     1.0  0.43108  0.49827  0.70104  1.0000
  H   H2702     1.0  0.58674  0.70653  0.53715  1.0000
  H   H2703     1.0  0.57243  0.70578  0.57372  1.0000
  H   H2704     1.0  0.43288  0.57642  0.81146  1.0000
  H   H2705     1.0  0.44020  0.73095  0.84343  1.0000
  S   S456      1.0  0.33223  0.55435  0.79504  1.0000
  H   H2706     1.0  0.63435  0.67049  0.89230  1.0000
  H   H2707     1.0  0.35094  0.49345  0.51719  1.0000
  C   C1574     1.0  0.59939  0.71458  0.52793  1.0000
  S   S457      1.0  0.33203  0.64074  0.50727  1.0000
  H   H2708     1.0  0.34447  0.57290  0.68726  1.0000
  H   H2709     1.0  0.61816  0.71771  0.85036  1.0000
  H   H2710     1.0  0.61304  0.69014  0.82107  1.0000
  H   H2711     1.0  0.59396  0.70663  0.83554  1.0000
  H   H2712     1.0  0.60678  0.68320  0.84864  1.0000
  N   N113      1.0  0.53766  0.65464  0.85792  1.0000
  H   H2713     1.0  0.35981  0.68931  0.79622  1.0000
  H   H2714     1.0  0.44346  0.67860  0.75924  1.0000
  H   H2715     1.0  0.43461  0.64946  0.80495  1.0000
  H   H2716     1.0  0.51064  0.62420  0.68735  1.0000
  H   H2717     1.0  0.57733  0.64905  0.86717  1.0000
  Fe  Fe232     1.0  0.33425  0.52434  0.81725  1.0000
  H   H2718     1.0  0.53925  0.61652  0.84083  1.0000
  N   N114      1.0  0.41274  0.68878  0.77589  1.0000
  C   C1575     1.0  0.41212  0.71187  0.76940  1.0000
  C   C1576     1.0  0.39089  0.68510  0.77791  1.0000
  C   C1577     1.0  0.42695  0.67842  0.75897  1.0000
  C   C1578     1.0  0.42096  0.68204  0.79591  1.0000
  C   C1579     1.0  0.39171  0.72751  0.82454  1.0000
  H   H2719     1.0  0.59661  0.71992  0.51184  1.0000
  C   C1580     1.0  0.42572  0.65576  0.75885  1.0000
  C   C1581     1.0  0.41940  0.65988  0.80763  1.0000
  H   H2720     1.0  0.46190  0.73231  0.88355  1.0000
  H   H2721     1.0  0.53071  0.68357  0.83724  1.0000
  H   H2722     1.0  0.64255  0.70673  0.90909  1.0000
  C   C1582     1.0  0.36135  0.54094  0.51991  1.0000
  H   H2723     1.0  0.53605  0.65795  0.88955  1.0000
  H   H2724     1.0  0.37169  0.53554  0.53167  1.0000
  C   C1583     1.0  0.65404  0.59404  0.94058  1.0000
  S   S458      1.0  0.37279  0.49490  0.58555  1.0000
  H   H2725     1.0  0.34687  0.48752  0.73117  1.0000
  H   H2726     1.0  0.64476  0.70277  0.87206  1.0000
  H   H2727     1.0  0.55754  0.73056  0.55011  1.0000
  H   H2728     1.0  0.32824  0.63590  0.65912  1.0000
  C   C1584     1.0  0.59030  0.72224  0.91666  1.0000
  H   H2729     1.0  0.65065  0.49115  0.55378  1.0000
  C   C1585     1.0  0.65285  0.67799  0.83087  1.0000
  H   H2730     1.0  0.65096  0.54478  0.96547  1.0000
  H   H2731     1.0  0.33535  0.59481  0.88696  1.0000
  H   H2732     1.0  0.44102  0.71535  0.77816  1.0000
  H   H2733     1.0  0.51034  0.72746  0.81754  1.0000
  H   H2734     1.0  0.40970  0.48831  0.69799  1.0000
  H   H2735     1.0  0.37666  0.49676  0.70270  1.0000
  C   C1586     1.0  0.32624  0.56050  0.71586  1.0000
  C   C1587     1.0  0.32418  0.63914  0.85303  1.0000
  C   C1588     1.0  0.33228  0.53467  0.50683  1.0000
  H   H2736     1.0  0.34455  0.62769  0.58415  1.0000
  H   H2737     1.0  0.60974  0.72542  0.55097  1.0000
  H   H2738     1.0  0.32491  0.55072  0.50913  1.0000
  H   H2739     1.0  0.32417  0.54738  0.71008  1.0000
  H   H2740     1.0  0.65316  0.71055  0.96020  1.0000
  H   H2741     1.0  0.40467  0.71789  0.75548  1.0000
  H   H2742     1.0  0.36517  0.49212  0.75710  1.0000
  C   C1589     1.0  0.44636  0.72948  0.88260  1.0000
  C   C1590     1.0  0.37522  0.48423  0.81019  1.0000
  C   C1591     1.0  0.56206  0.72492  0.79951  1.0000
  H   H2743     1.0  0.65429  0.50729  0.58042  1.0000
  H   H2744     1.0  0.41046  0.73184  0.86838  1.0000
  C   C1592     1.0  0.32314  0.59660  0.85927  1.0000
  C   C1593     1.0  0.60215  0.73258  0.53749  1.0000
  H   H2745     1.0  0.41926  0.86932  0.32343  1.0000
  Fe  Fe233     1.0  0.35135  0.78706  0.33869  1.0000
  S   S459      1.0  0.37004  0.78213  0.36389  1.0000
  H   H2746     1.0  0.50712  0.74811  0.36401  1.0000
  H   H2747     1.0  0.51611  0.76237  0.39094  1.0000
  H   H2748     1.0  0.46801  0.73751  0.36944  1.0000
  Fe  Fe234     1.0  0.35529  0.75395  0.37723  1.0000
  C   C1594     1.0  0.49762  0.80544  0.24397  1.0000
  Fe  Fe235     1.0  0.39306  0.76120  0.34451  1.0000
  S   S460      1.0  0.42775  0.75982  0.33740  1.0000
  S   S461      1.0  0.33431  0.76094  0.35392  1.0000
  S   S462      1.0  0.37531  0.76805  0.31836  1.0000
  Fe  Fe236     1.0  0.52559  0.82207  0.28879  1.0000
  S   S463      1.0  0.52227  0.82935  0.32033  1.0000
  S   S464      1.0  0.53575  0.78996  0.28133  1.0000
  Fe  Fe237     1.0  0.50350  0.86468  0.27165  1.0000
  S   S465      1.0  0.49899  0.87587  0.30187  1.0000
  S   S466      1.0  0.48972  0.88285  0.24346  1.0000
  Fe  Fe238     1.0  0.53204  0.85971  0.30383  1.0000
  S   S467      1.0  0.55271  0.87020  0.32152  1.0000
  Fe  Fe239     1.0  0.49009  0.84488  0.31602  1.0000
  S   S468      1.0  0.46105  0.84066  0.33915  1.0000
  S   S469      1.0  0.53750  0.85112  0.27212  1.0000
  S   S470      1.0  0.49257  0.83501  0.28598  1.0000
  Fe  Fe240     1.0  0.32459  0.84344  0.00048  1.0000
  C   C1595     1.0  0.36598  0.86856  0.24441  1.0000
  H   H2749     1.0  0.34867  0.81639  0.40887  1.0000
  H   H2750     1.0  0.59618  0.93979  0.36913  1.0000
  S   S471      1.0  0.63572  0.90904  0.29936  1.0000
  H   H2751     1.0  0.60763  0.82594  0.39537  1.0000
  H   H2752     1.0  0.33108  0.79074  0.40327  1.0000
  H   H2753     1.0  0.38101  0.86905  0.23360  1.0000
  Fe  Fe241     1.0  0.34121  0.79763  0.00369  1.0000
  S   S472      1.0  0.35423  0.82411  0.00912  1.0000
  Fe  Fe242     1.0  0.38697  0.91615  0.16272  1.0000
  S   S473      1.0  0.36196  0.90656  0.15159  1.0000
  S   S474      1.0  0.39260  0.94889  0.15486  1.0000
  Fe  Fe243     1.0  0.40188  0.87326  0.18505  1.0000
  S   S475      1.0  0.37844  0.85952  0.17489  1.0000
  S   S476      1.0  0.42071  0.85398  0.20925  1.0000
  Fe  Fe244     1.0  0.38583  0.87916  0.14362  1.0000
  S   S477      1.0  0.38817  0.87375  0.11065  1.0000
  Fe  Fe245     1.0  0.35624  0.88783  0.18321  1.0000
  N   N115      1.0  0.59266  0.78754  0.39897  1.0000
  S   S478      1.0  0.41171  0.89014  0.15290  1.0000
  S   S479      1.0  0.37887  0.90024  0.19530  1.0000
  C   C1596     1.0  0.35487  0.83467  0.08374  1.0000
  C   C1597     1.0  0.35345  0.83243  0.10525  1.0000
  C   C1598     1.0  0.36322  0.84445  0.11377  1.0000
  C   C1599     1.0  0.37507  0.85851  0.10085  1.0000
  C   C1600     1.0  0.37660  0.86068  0.07935  1.0000
  C   C1601     1.0  0.36643  0.84899  0.07083  1.0000
  H   H2754     1.0  0.34920  0.88566  0.26952  1.0000
  H   H2755     1.0  0.36205  0.84246  0.13031  1.0000
  H   H2756     1.0  0.38581  0.87142  0.06919  1.0000
  H   H2757     1.0  0.36784  0.85078  0.05428  1.0000
  C   C1602     1.0  0.46884  0.87612  0.23523  1.0000
  C   C1603     1.0  0.46257  0.88692  0.21664  1.0000
  C   C1604     1.0  0.44713  0.88097  0.20890  1.0000
  C   C1605     1.0  0.43800  0.86395  0.21958  1.0000
  C   C1606     1.0  0.44379  0.85357  0.23846  1.0000
  C   C1607     1.0  0.45892  0.85974  0.24632  1.0000
  H   H2758     1.0  0.46994  0.89974  0.20797  1.0000
  H   H2759     1.0  0.44281  0.88913  0.19433  1.0000
  H   H2760     1.0  0.43692  0.84034  0.24683  1.0000
  H   H2761     1.0  0.46318  0.85144  0.26077  1.0000
  C   C1608     1.0  0.57686  0.87923  0.31467  1.0000
  C   C1609     1.0  0.58730  0.88004  0.33049  1.0000
  C   C1610     1.0  0.60583  0.88820  0.32604  1.0000
  C   C1611     1.0  0.61405  0.89596  0.30565  1.0000
  C   C1612     1.0  0.60379  0.89487  0.28981  1.0000
  C   C1613     1.0  0.58537  0.88649  0.29425  1.0000
  H   H2762     1.0  0.58089  0.87446  0.34635  1.0000
  H   H2763     1.0  0.61355  0.88881  0.33840  1.0000
  H   H2764     1.0  0.60992  0.90090  0.27399  1.0000
  H   H2765     1.0  0.57752  0.88607  0.28190  1.0000
  S   S480      1.0  0.34013  0.74554  0.41039  1.0000
  H   H2766     1.0  0.36557  0.86060  0.35313  1.0000
  H   H2767     1.0  0.59131  0.91397  0.37602  1.0000
  C   C1614     1.0  0.56248  0.78078  0.30892  1.0000
  C   C1615     1.0  0.35081  0.92383  0.08343  1.0000
  H   H2768     1.0  0.32805  0.78626  0.43854  1.0000
  S   S481      1.0  0.60807  0.83945  0.43947  1.0000
  H   H2769     1.0  0.60202  0.73878  0.38407  1.0000
  H   H2770     1.0  0.40738  0.93251  0.27001  1.0000
  C   C1616     1.0  0.60829  0.79786  0.38273  1.0000
  S   S482      1.0  0.37001  0.96322  0.25811  1.0000
  C   C1617     1.0  0.32266  0.91095  0.22561  1.0000
  C   C1618     1.0  0.35195  0.84112  0.34010  1.0000
  C   C1619     1.0  0.50055  0.77189  0.39502  1.0000
  H   H2771     1.0  0.36239  0.82713  0.34500  1.0000
  C   C1620     1.0  0.43616  0.78312  0.33654  1.0000
  C   C1621     1.0  0.45647  0.78534  0.32703  1.0000
  C   C1622     1.0  0.46399  0.80327  0.32724  1.0000
  C   C1623     1.0  0.45128  0.81899  0.33715  1.0000
  C   C1624     1.0  0.43092  0.81685  0.34651  1.0000
  C   C1625     1.0  0.42333  0.79902  0.34608  1.0000
  H   H2772     1.0  0.46649  0.77311  0.31964  1.0000
  H   H2773     1.0  0.47982  0.80458  0.32028  1.0000
  H   H2774     1.0  0.42107  0.82890  0.35429  1.0000
  H   H2775     1.0  0.40774  0.79740  0.35359  1.0000
  C   C1626     1.0  0.38289  0.84293  0.26976  1.0000
  C   C1627     1.0  0.50915  0.82393  0.23478  1.0000
  C   C1628     1.0  0.37124  0.83145  0.24288  1.0000
  C   C1629     1.0  0.37686  0.96383  0.13748  1.0000
  H   H2776     1.0  0.51625  0.81976  0.18299  1.0000
  N   N116      1.0  0.51944  0.82578  0.21238  1.0000
  H   H2777     1.0  0.62441  0.79096  0.38522  1.0000
  H   H2778     1.0  0.40837  0.97704  0.24168  1.0000
  C   C1630     1.0  0.59187  0.79283  0.41980  1.0000
  C   C1631     1.0  0.39928  0.88579  0.30038  1.0000
  H   H2779     1.0  0.36310  0.82175  0.21737  1.0000
  H   H2780     1.0  0.56434  0.79684  0.30460  1.0000
  C   C1632     1.0  0.54921  0.77339  0.29987  1.0000
  C   C1633     1.0  0.54688  0.75255  0.30548  1.0000
  C   C1634     1.0  0.55787  0.73911  0.32009  1.0000
  C   C1635     1.0  0.33656  0.84036  0.32930  1.0000
  H   H2781     1.0  0.51533  0.77603  0.33422  1.0000
  H   H2782     1.0  0.53658  0.74686  0.29852  1.0000
  H   H2783     1.0  0.36880  0.94596  0.08764  1.0000
  C   C1636     1.0  0.61540  0.86343  0.42777  1.0000
  C   C1637     1.0  0.61774  0.86909  0.40628  1.0000
  C   C1638     1.0  0.62432  0.88773  0.39634  1.0000
  C   C1639     1.0  0.62809  0.90112  0.40786  1.0000
  C   C1640     1.0  0.62515  0.89578  0.42945  1.0000
  C   C1641     1.0  0.61912  0.87679  0.43939  1.0000
  H   H2784     1.0  0.61471  0.85895  0.39721  1.0000
  H   H2785     1.0  0.62617  0.89185  0.37977  1.0000
  H   H2786     1.0  0.40191  0.97743  0.11756  1.0000
  H   H2787     1.0  0.43912  0.87730  0.28224  1.0000
  H   H2788     1.0  0.53153  0.87510  0.20830  1.0000
  H   H2789     1.0  0.39305  0.87958  0.33451  1.0000
  H   H2790     1.0  0.33755  0.91399  0.21700  1.0000
  Fe  Fe246     1.0  0.32909  0.92913  0.32044  1.0000
  C   C1642     1.0  0.35568  0.96304  0.14089  1.0000
  H   H2791     1.0  0.49778  0.75055  0.42481  1.0000
  S   S483      1.0  0.34446  0.90226  0.34160  1.0000
  H   H2792     1.0  0.52661  0.85051  0.18678  1.0000
  C   C1643     1.0  0.39210  0.91988  0.30972  1.0000
  H   H2793     1.0  0.61923  0.77082  0.42933  1.0000
  C   C1644     1.0  0.58606  0.75389  0.46815  1.0000
  C   C1645     1.0  0.61267  0.78758  0.42774  1.0000
  C   C1646     1.0  0.41699  0.90597  0.25590  1.0000
  H   H2794     1.0  0.56016  0.78301  0.21472  1.0000
  C   C1647     1.0  0.59907  0.76439  0.40020  1.0000
  H   H2795     1.0  0.39507  0.80935  0.27270  1.0000
  C   C1648     1.0  0.57153  0.79509  0.39305  1.0000
  H   H2796     1.0  0.58083  0.78454  0.43171  1.0000
  H   H2797     1.0  0.57919  0.96578  0.29063  1.0000
  H   H2798     1.0  0.35195  0.84056  0.39239  1.0000
  H   H2799     1.0  0.60802  0.92108  0.35242  1.0000
  H   H2800     1.0  0.38235  0.88806  0.30004  1.0000
  C   C1649     1.0  0.60568  0.74143  0.46820  1.0000
  H   H2801     1.0  0.41230  0.91464  0.24113  1.0000
  H   H2802     1.0  0.34116  0.89004  0.10796  1.0000
  H   H2803     1.0  0.57844  0.75665  0.38240  1.0000
  C   C1650     1.0  0.55301  0.95454  0.32824  1.0000
  C   C1651     1.0  0.54123  0.81358  0.21037  1.0000
  H   H2804     1.0  0.53156  0.94191  0.31627  1.0000
  H   H2805     1.0  0.37564  0.92022  0.10131  1.0000
  C   C1652     1.0  0.54707  0.93662  0.32087  1.0000
  H   H2806     1.0  0.39262  0.95206  0.29293  1.0000
  H   H2807     1.0  0.38710  0.91853  0.27201  1.0000
  H   H2808     1.0  0.50362  0.79148  0.23688  1.0000
  H   H2809     1.0  0.54193  0.78450  0.39835  1.0000
  H   H2810     1.0  0.60263  0.76307  0.36701  1.0000
  H   H2811     1.0  0.56682  0.81206  0.39281  1.0000
  C   C1653     1.0  0.50755  0.81891  0.19911  1.0000
  H   H2812     1.0  0.33839  0.98087  0.22871  1.0000
  Fe  Fe247     1.0  0.33584  0.81974  0.04157  1.0000
  C   C1654     1.0  0.60601  0.82154  0.38093  1.0000
  H   H2813     1.0  0.57160  0.79350  0.37690  1.0000
  C   C1655     1.0  0.48555  0.83147  0.19790  1.0000
  H   H2814     1.0  0.48981  0.73480  0.39645  1.0000
  C   C1656     1.0  0.35630  0.83309  0.22790  1.0000
  Fe  Fe248     1.0  0.65455  0.91626  0.32085  1.0000
  H   H2815     1.0  0.37937  0.85360  0.28112  1.0000
  H   H2816     1.0  0.54065  0.95879  0.34134  1.0000
  H   H2817     1.0  0.52062  0.82344  0.24476  1.0000
  H   H2818     1.0  0.61713  0.87261  0.45602  1.0000
  H   H2819     1.0  0.36062  0.90891  0.08002  1.0000
  N   N117      1.0  0.36584  0.84714  0.25708  1.0000
  H   H2820     1.0  0.55846  0.76920  0.41513  1.0000
  C   C1657     1.0  0.38552  0.97687  0.12020  1.0000
  H   H2821     1.0  0.61590  0.75950  0.40086  1.0000
  S   S484      1.0  0.36110  0.77509  0.98311  1.0000
  C   C1658     1.0  0.49587  0.76748  0.41881  1.0000
  C   C1659     1.0  0.59523  0.75554  0.38227  1.0000
  C   C1660     1.0  0.45331  0.79211  0.40011  1.0000
  H   H2822     1.0  0.38572  0.94947  0.32009  1.0000
  C   C1661     1.0  0.59368  0.92677  0.36276  1.0000
  H   H2823     1.0  0.40662  0.87589  0.28871  1.0000
  H   H2824     1.0  0.34892  0.95309  0.15433  1.0000
  Fe  Fe249     1.0  0.35976  0.74148  0.33572  1.0000
  H   H2825     1.0  0.35133  0.93419  0.06811  1.0000
  C   C1662     1.0  0.54349  0.79004  0.21800  1.0000
  C   C1663     1.0  0.40282  0.87251  0.32148  1.0000
  H   H2826     1.0  0.43422  0.91957  0.29086  1.0000
  H   H2827     1.0  0.33559  0.90905  0.12357  1.0000
  S   S485      1.0  0.33872  0.96015  0.31445  1.0000
  H   H2828     1.0  0.39266  0.91276  0.32610  1.0000
  H   H2829     1.0  0.39829  0.85723  0.32273  1.0000
  H   H2830     1.0  0.42899  0.90327  0.31503  1.0000
  H   H2831     1.0  0.53094  0.85503  0.23033  1.0000
  S   S486      1.0  0.64556  0.79815  0.46521  1.0000
  C   C1664     1.0  0.40365  0.91664  0.27362  1.0000
  C   C1665     1.0  0.55359  0.78530  0.40752  1.0000
  H   H2832     1.0  0.37677  0.88606  0.26302  1.0000
  C   C1666     1.0  0.53457  0.85801  0.21330  1.0000
  H   H2833     1.0  0.39754  0.82076  0.29340  1.0000
  N   N118      1.0  0.40646  0.90643  0.29532  1.0000
  H   H2834     1.0  0.50520  0.85820  0.20584  1.0000
  H   H2835     1.0  0.38699  0.83213  0.23343  1.0000
  H   H2836     1.0  0.56055  0.93454  0.36431  1.0000
  H   H2837     1.0  0.41488  0.88985  0.25700  1.0000
  C   C1667     1.0  0.57104  0.74831  0.45951  1.0000
  C   C1668     1.0  0.47678  0.74814  0.39483  1.0000
  H   H2838     1.0  0.49740  0.83800  0.23710  1.0000
  H   H2839     1.0  0.47687  0.82314  0.19096  1.0000
  C   C1669     1.0  0.52083  0.84826  0.20374  1.0000
  H   H2840     1.0  0.43364  0.90666  0.25439  1.0000
  H   H2841     1.0  0.41227  0.94239  0.30918  1.0000
  H   H2842     1.0  0.58552  0.80953  0.42008  1.0000
  H   H2843     1.0  0.55791  0.93198  0.30708  1.0000
  C   C1670     1.0  0.32591  0.87770  0.32612  1.0000
  H   H2844     1.0  0.55149  0.96800  0.31552  1.0000
  C   C1671     1.0  0.32974  0.90400  0.11157  1.0000
  H   H2845     1.0  0.62793  0.90617  0.43844  1.0000
  H   H2846     1.0  0.37565  0.92133  0.30791  1.0000
  C   C1672     1.0  0.34551  0.84510  0.27148  1.0000
  H   H2847     1.0  0.35416  0.87293  0.23430  1.0000
  H   H2848     1.0  0.35008  0.81919  0.38141  1.0000
  C   C1673     1.0  0.42846  0.90489  0.29831  1.0000
  S   S487      1.0  0.32378  0.88444  0.19898  1.0000
  C   C1674     1.0  0.44485  0.88705  0.29026  1.0000
  H   H2849     1.0  0.45183  0.87673  0.30318  1.0000
  C   C1675     1.0  0.59345  0.96128  0.29753  1.0000
  H   H2850     1.0  0.35985  0.90136  0.24635  1.0000
  H   H2851     1.0  0.54925  0.81615  0.19400  1.0000
  C   C1676     1.0  0.39624  0.94210  0.30753  1.0000
  N   N119      1.0  0.57404  0.95041  0.33458  1.0000
  H   H2852     1.0  0.59120  0.82999  0.37613  1.0000
  H   H2853     1.0  0.58496  0.77275  0.32921  1.0000
  S   S488      1.0  0.33437  0.92674  0.28714  1.0000
  H   H2854     1.0  0.60599  0.95459  0.28584  1.0000
  H   H2855     1.0  0.44701  0.75390  0.38339  1.0000
  H   H2856     1.0  0.45984  0.80246  0.40692  1.0000
  C   C1677     1.0  0.34112  0.87846  0.33715  1.0000
  S   S489      1.0  0.33322  0.81687  0.32408  1.0000
  Fe  Fe250     1.0  0.34129  0.95880  0.28115  1.0000
  H   H2857     1.0  0.54563  0.92287  0.33321  1.0000
  H   H2858     1.0  0.52388  0.77881  0.35661  1.0000
  H   H2859     1.0  0.57381  0.91773  0.34671  1.0000
  H   H2860     1.0  0.34522  0.85120  0.28563  1.0000
  H   H2861     1.0  0.37266  0.81609  0.29210  1.0000
  H   H2862     1.0  0.60654  0.94114  0.32217  1.0000
  C   C1678     1.0  0.59121  0.94486  0.31719  1.0000
  H   H2863     1.0  0.32688  0.97465  0.12963  1.0000
  H   H2864     1.0  0.40645  0.97818  0.19496  1.0000
  C   C1679     1.0  0.57411  0.76715  0.32285  1.0000
  H   H2865     1.0  0.34405  0.82849  0.27671  1.0000
  S   S490      1.0  0.34216  0.81901  0.07400  1.0000
  H   H2866     1.0  0.58931  0.93064  0.31252  1.0000
  N   N120      1.0  0.48515  0.76748  0.38375  1.0000
  C   C1680     1.0  0.49652  0.76341  0.36269  1.0000
  H   H2867     1.0  0.46906  0.74930  0.41089  1.0000
  C   C1681     1.0  0.46806  0.78591  0.38069  1.0000
  C   C1682     1.0  0.50984  0.77952  0.35006  1.0000
  C   C1683     1.0  0.57183  0.74634  0.32842  1.0000
  Fe  Fe251     1.0  0.65517  0.92371  0.36331  1.0000
  H   H2868     1.0  0.48548  0.76251  0.35282  1.0000
  H   H2869     1.0  0.48029  0.77515  0.42529  1.0000
  C   C1684     1.0  0.36237  0.93216  0.09671  1.0000
  H   H2870     1.0  0.50282  0.78831  0.39010  1.0000
  H   H2871     1.0  0.47457  0.80004  0.37280  1.0000
  H   H2872     1.0  0.45844  0.78405  0.36989  1.0000
  H   H2873     1.0  0.50102  0.79553  0.34841  1.0000
  Fe  Fe252     1.0  0.61823  0.82355  0.46962  1.0000
  H   H2874     1.0  0.50734  0.77333  0.42481  1.0000
  H   H2875     1.0  0.61861  0.82710  0.36877  1.0000
  S   S491      1.0  0.64542  0.94512  0.33515  1.0000
  C   C1685     1.0  0.57446  0.93210  0.35207  1.0000
  H   H2876     1.0  0.55132  0.85264  0.20798  1.0000
  H   H2877     1.0  0.53868  0.78639  0.23499  1.0000
  H   H2878     1.0  0.37007  0.96517  0.19220  1.0000
  H   H2879     1.0  0.57102  0.96778  0.35923  1.0000
  H   H2880     1.0  0.37192  0.81544  0.25182  1.0000
  C   C1686     1.0  0.38703  0.82095  0.28259  1.0000
  H   H2881     1.0  0.45778  0.89349  0.27933  1.0000
  H   H2882     1.0  0.39786  0.84589  0.25969  1.0000
  H   H2883     1.0  0.44921  0.77880  0.41194  1.0000
  H   H2884     1.0  0.62421  0.79677  0.41794  1.0000
  C   C1687     1.0  0.35391  0.86010  0.34443  1.0000
  H   H2885     1.0  0.48070  0.81031  0.24396  1.0000
  H   H2886     1.0  0.54603  0.79467  0.41971  1.0000
  H   H2887     1.0  0.53515  0.78241  0.21007  1.0000
  H   H2888     1.0  0.34503  0.82106  0.11541  1.0000
  H   H2889     1.0  0.47658  0.83361  0.21328  1.0000
  H   H2890     1.0  0.50588  0.80247  0.20411  1.0000
  H   H2891     1.0  0.48602  0.84687  0.18790  1.0000
  H   H2892     1.0  0.60760  0.79512  0.36719  1.0000
  H   H2893     1.0  0.55058  0.81886  0.21941  1.0000
  H   H2894     1.0  0.55579  0.75783  0.46000  1.0000
  H   H2895     1.0  0.59133  0.75584  0.41476  1.0000
  C   C1688     1.0  0.36270  0.88622  0.25680  1.0000
  H   H2896     1.0  0.49896  0.80053  0.26052  1.0000
  H   H2897     1.0  0.33154  0.97319  0.20714  1.0000
  C   C1689     1.0  0.46100  0.74177  0.38473  1.0000
  H   H2898     1.0  0.34122  0.82887  0.23622  1.0000
  H   H2899     1.0  0.32644  0.85935  0.24652  1.0000
  H   H2900     1.0  0.43829  0.80058  0.39569  1.0000
  N   N121      1.0  0.32891  0.92081  0.09283  1.0000
  H   H2901     1.0  0.59423  0.96887  0.34091  1.0000
  H   H2902     1.0  0.59833  0.97505  0.30036  1.0000
  C   C1690     1.0  0.57734  0.96880  0.34241  1.0000
  C   C1691     1.0  0.34317  0.97540  0.12702  1.0000
  S   S492      1.0  0.63705  0.92424  0.39554  1.0000
  C   C1692     1.0  0.32342  0.85864  0.32251  1.0000
  H   H2903     1.0  0.34670  0.95505  0.22400  1.0000
  S   S493      1.0  0.32390  0.87218  0.97649  1.0000
  H   H2904     1.0  0.32582  0.80811  0.36976  1.0000
  C   C1693     1.0  0.34412  0.82698  0.39489  1.0000
  S   S494      1.0  0.32580  0.79114  0.03696  1.0000
  H   H2905     1.0  0.37585  0.97336  0.21340  1.0000
  H   H2906     1.0  0.60991  0.79158  0.44339  1.0000
  H   H2907     1.0  0.35392  0.84847  0.21792  1.0000
  H   H2908     1.0  0.35275  0.93670  0.11102  1.0000
  H   H2909     1.0  0.34555  0.89408  0.06187  1.0000
  C   C1694     1.0  0.32542  0.85667  0.26340  1.0000
  H   H2910     1.0  0.58230  0.76767  0.47504  1.0000
  H   H2911     1.0  0.65170  0.82972  0.41342  1.0000
  H   H2912     1.0  0.32897  0.88074  0.08309  1.0000
  C   C1695     1.0  0.32938  0.89401  0.07011  1.0000
  C   C1696     1.0  0.36450  0.97672  0.20274  1.0000
  C   C1697     1.0  0.34392  0.97150  0.21627  1.0000
  H   H2913     1.0  0.50046  0.73516  0.31500  1.0000
  H   H2914     1.0  0.33258  0.96439  0.07956  1.0000
  Fe  Fe253     1.0  0.54803  0.76871  0.86279  1.0000
  S   S495      1.0  0.55412  0.78284  0.82938  1.0000
  S   S496      1.0  0.51606  0.76807  0.88128  1.0000
  Fe  Fe254     1.0  0.59343  0.75512  0.86539  1.0000
  S   S497      1.0  0.60350  0.76812  0.83189  1.0000
  C   C1698     1.0  0.46743  0.89922  0.68401  1.0000
  Fe  Fe255     1.0  0.57900  0.79578  0.83784  1.0000
  S   S498      1.0  0.58019  0.82931  0.82282  1.0000
  Fe  Fe256     1.0  0.57792  0.75422  0.82640  1.0000
  S   S499      1.0  0.64492  0.88383  0.82989  1.0000
  S   S500      1.0  0.57080  0.78393  0.87180  1.0000
  C   C1699     1.0  0.33088  0.85280  0.81751  1.0000
  S   S501      1.0  0.61174  0.93453  0.80355  1.0000
  Fe  Fe257     1.0  0.61570  0.96083  0.81716  1.0000
  H   H2915     1.0  0.53286  0.88562  0.67123  1.0000
  C   C1700     1.0  0.49898  0.78526  0.74298  1.0000
  H   H2916     1.0  0.48105  0.80319  0.82304  1.0000
  Fe  Fe258     1.0  0.61245  0.86486  0.68565  1.0000
  S   S502      1.0  0.57815  0.87301  0.69534  1.0000
  S   S503      1.0  0.63419  0.87010  0.70493  1.0000
  Fe  Fe259     1.0  0.60771  0.84382  0.65045  1.0000
  S   S504      1.0  0.57289  0.85001  0.65832  1.0000
  S   S505      1.0  0.62684  0.82795  0.62407  1.0000
  Fe  Fe260     1.0  0.57749  0.88132  0.66143  1.0000
  S   S506      1.0  0.55977  0.91041  0.64582  1.0000
  Fe  Fe261     1.0  0.57722  0.84091  0.69152  1.0000
  S   S507      1.0  0.56048  0.82143  0.71901  1.0000
  S   S508      1.0  0.61202  0.87582  0.65182  1.0000
  S   S509      1.0  0.61178  0.83204  0.68354  1.0000
  Fe  Fe262     1.0  0.61202  0.81037  0.51664  1.0000
  S   S510      1.0  0.63842  0.78335  0.51504  1.0000
  S   S511      1.0  0.59149  0.81733  0.54673  1.0000
  C   C1701     1.0  0.32688  0.94684  0.80381  1.0000
  H   H2917     1.0  0.43958  0.76943  0.90401  1.0000
  H   H2918     1.0  0.60243  0.77391  0.57251  1.0000
  C   C1702     1.0  0.63798  0.89056  0.73477  1.0000
  C   C1703     1.0  0.39925  0.76455  0.85978  1.0000
  C   C1704     1.0  0.55307  0.96429  0.73031  1.0000
  S   S512      1.0  0.62921  0.83382  0.49453  1.0000
  Fe  Fe263     1.0  0.43789  0.82664  0.81224  1.0000
  S   S513      1.0  0.45981  0.80930  0.78912  1.0000
  S   S514      1.0  0.44664  0.83259  0.84056  1.0000
  Fe  Fe264     1.0  0.40122  0.83249  0.79053  1.0000
  S   S515      1.0  0.42014  0.81593  0.76522  1.0000
  S   S516      1.0  0.36684  0.84272  0.79093  1.0000
  Fe  Fe265     1.0  0.43324  0.79335  0.79068  1.0000
  S   S517      1.0  0.43711  0.75903  0.79351  1.0000
  Fe  Fe266     1.0  0.44489  0.83364  0.76575  1.0000
  S   S518      1.0  0.46287  0.84755  0.73552  1.0000
  S   S519      1.0  0.41259  0.80836  0.81607  1.0000
  S   S520      1.0  0.42473  0.85248  0.78882  1.0000
  H   H2919     1.0  0.50846  0.77780  0.83910  1.0000
  C   C1705     1.0  0.42910  0.77507  0.89246  1.0000
  S   S521      1.0  0.62511  0.95027  0.74410  1.0000
  H   H2920     1.0  0.63682  0.81156  0.71795  1.0000
  C   C1706     1.0  0.35261  0.84962  0.81421  1.0000
  C   C1707     1.0  0.36267  0.85266  0.82919  1.0000
  C   C1708     1.0  0.35102  0.85936  0.84720  1.0000
  H   H2921     1.0  0.58782  0.75396  0.58363  1.0000
  H   H2922     1.0  0.35191  0.88683  0.90986  1.0000
  H   H2923     1.0  0.37944  0.85032  0.82667  1.0000
  H   H2924     1.0  0.35892  0.86215  0.85849  1.0000
  H   H2925     1.0  0.64355  0.90717  0.75670  1.0000
  C   C1709     1.0  0.41270  0.75201  0.80318  1.0000
  H   H2926     1.0  0.47794  0.80133  0.72202  1.0000
  H   H2927     1.0  0.49426  0.92479  0.65709  1.0000
  C   C1710     1.0  0.63258  0.86493  0.56108  1.0000
  C   C1711     1.0  0.49304  0.75296  0.76764  1.0000
  H   H2928     1.0  0.40013  0.77983  0.86302  1.0000
  H   H2929     1.0  0.47977  0.76395  0.77450  1.0000
  H   H2930     1.0  0.63070  0.92735  0.57381  1.0000
  C   C1712     1.0  0.53341  0.82885  0.72368  1.0000
  C   C1713     1.0  0.52267  0.82867  0.74398  1.0000
  C   C1714     1.0  0.50096  0.83443  0.74785  1.0000
  C   C1715     1.0  0.48996  0.83999  0.73144  1.0000
  C   C1716     1.0  0.50071  0.83988  0.71124  1.0000
  C   C1717     1.0  0.52240  0.83439  0.70734  1.0000
  H   H2931     1.0  0.53114  0.82430  0.75667  1.0000
  H   H2932     1.0  0.49274  0.83467  0.76347  1.0000
  H   H2933     1.0  0.49219  0.84391  0.69856  1.0000
  H   H2934     1.0  0.53061  0.83418  0.69169  1.0000
  C   C1718     1.0  0.61660  0.82481  0.60289  1.0000
  C   C1719     1.0  0.59577  0.83208  0.60113  1.0000
  C   C1720     1.0  0.58831  0.82961  0.58390  1.0000
  C   C1721     1.0  0.60164  0.82024  0.56805  1.0000
  C   C1722     1.0  0.62250  0.81300  0.56978  1.0000
  C   C1723     1.0  0.62987  0.81510  0.58722  1.0000
  H   H2935     1.0  0.58537  0.83957  0.61306  1.0000
  H   H2936     1.0  0.57214  0.83520  0.58274  1.0000
  H   H2937     1.0  0.63293  0.80566  0.55777  1.0000
  H   H2938     1.0  0.32955  0.87604  0.91114  1.0000
  C   C1724     1.0  0.56557  0.93204  0.65257  1.0000
  H   H2939     1.0  0.32651  0.95979  0.81187  1.0000
  C   C1725     1.0  0.48341  0.78512  0.72925  1.0000
  S   S522      1.0  0.34933  0.73374  0.82998  1.0000
  C   C1726     1.0  0.57147  0.93051  0.67161  1.0000
  H   H2940     1.0  0.50658  0.79502  0.78011  1.0000
  C   C1727     1.0  0.57449  0.75707  0.52295  1.0000
  H   H2941     1.0  0.57253  0.91602  0.68222  1.0000
  H   H2942     1.0  0.57824  0.73291  0.90950  1.0000
  C   C1728     1.0  0.62498  0.92717  0.73542  1.0000
  C   C1729     1.0  0.63590  0.90815  0.74383  1.0000
  C   C1730     1.0  0.32548  0.83677  0.93290  1.0000
  C   C1731     1.0  0.62864  0.89167  0.71767  1.0000
  C   C1732     1.0  0.61667  0.91039  0.71005  1.0000
  C   C1733     1.0  0.61519  0.92814  0.71867  1.0000
  H   H2943     1.0  0.52588  0.77868  0.79356  1.0000
  H   H2944     1.0  0.58236  0.97919  0.77230  1.0000
  H   H2945     1.0  0.60946  0.91149  0.69684  1.0000
  H   H2946     1.0  0.60707  0.94283  0.71182  1.0000
  H   H2947     1.0  0.40333  0.76455  0.84299  1.0000
  C   C1734     1.0  0.48391  0.90009  0.69647  1.0000
  H   H2948     1.0  0.63669  0.83044  0.73293  1.0000
  C   C1735     1.0  0.41256  0.74655  0.87218  1.0000
  C   C1736     1.0  0.63302  0.81491  0.73390  1.0000
  H   H2949     1.0  0.49957  0.74304  0.78100  1.0000
  C   C1737     1.0  0.59837  0.84395  0.82534  1.0000
  C   C1738     1.0  0.59721  0.86443  0.81469  1.0000
  C   C1739     1.0  0.61145  0.87662  0.81585  1.0000
  C   C1740     1.0  0.62694  0.86860  0.82788  1.0000
  C   C1741     1.0  0.62820  0.84802  0.83845  1.0000
  C   C1742     1.0  0.61399  0.83571  0.83719  1.0000
  H   H2950     1.0  0.58528  0.87095  0.80539  1.0000
  H   H2951     1.0  0.61045  0.89222  0.80732  1.0000
  C   C1743     1.0  0.62682  0.91942  0.58995  1.0000
  H   H2952     1.0  0.61509  0.81993  0.84544  1.0000
  C   C1744     1.0  0.49620  0.78462  0.86965  1.0000
  C   C1745     1.0  0.48034  0.79622  0.88176  1.0000
  C   C1746     1.0  0.46509  0.81072  0.87266  1.0000
  C   C1747     1.0  0.46524  0.81327  0.85150  1.0000
  C   C1748     1.0  0.48070  0.80115  0.83942  1.0000
  C   C1749     1.0  0.49632  0.78692  0.84847  1.0000
  H   H2953     1.0  0.48023  0.79444  0.89813  1.0000
  H   H2954     1.0  0.45319  0.82007  0.88205  1.0000
  H   H2955     1.0  0.48989  0.95786  0.66645  1.0000
  N   N122      1.0  0.51293  0.85220  0.84175  1.0000
  C   C1750     1.0  0.52205  0.83102  0.85230  1.0000
  C   C1751     1.0  0.50989  0.84988  0.82084  1.0000
  C   C1752     1.0  0.49224  0.85920  0.85468  1.0000
  C   C1753     1.0  0.52789  0.86654  0.84039  1.0000
  C   C1754     1.0  0.52332  0.82887  0.87530  1.0000
  C   C1755     1.0  0.52975  0.84270  0.80595  1.0000
  C   C1756     1.0  0.47628  0.87557  0.84377  1.0000
  C   C1757     1.0  0.52314  0.88863  0.82811  1.0000
  H   H2956     1.0  0.51301  0.81933  0.85132  1.0000
  H   H2957     1.0  0.53811  0.82582  0.84449  1.0000
  H   H2958     1.0  0.50206  0.86447  0.81245  1.0000
  H   H2959     1.0  0.49918  0.83870  0.82266  1.0000
  H   H2960     1.0  0.48411  0.84581  0.86148  1.0000
  H   H2961     1.0  0.49443  0.86536  0.86803  1.0000
  H   H2962     1.0  0.52891  0.86857  0.85609  1.0000
  H   H2963     1.0  0.54410  0.85965  0.83434  1.0000
  H   H2964     1.0  0.52966  0.81248  0.88117  1.0000
  H   H2965     1.0  0.53399  0.83840  0.87761  1.0000
  H   H2966     1.0  0.50790  0.83241  0.88503  1.0000
  H   H2967     1.0  0.52560  0.84271  0.79083  1.0000
  H   H2968     1.0  0.54114  0.85324  0.80311  1.0000
  H   H2969     1.0  0.53711  0.82665  0.81151  1.0000
  H   H2970     1.0  0.48249  0.88957  0.83535  1.0000
  H   H2971     1.0  0.46284  0.88056  0.85555  1.0000
  H   H2972     1.0  0.46998  0.86890  0.83315  1.0000
  H   H2973     1.0  0.51288  0.89920  0.83816  1.0000
  H   H2974     1.0  0.51636  0.88949  0.81432  1.0000
  H   H2975     1.0  0.53795  0.89454  0.82202  1.0000
  C   C1758     1.0  0.51772  0.90624  0.69945  1.0000
  C   C1759     1.0  0.52351  0.88629  0.71492  1.0000
  H   H2976     1.0  0.53256  0.91126  0.69100  1.0000
  H   H2977     1.0  0.50979  0.91819  0.70902  1.0000
  H   H2978     1.0  0.48589  0.88471  0.70671  1.0000
  H   H2979     1.0  0.47695  0.91086  0.70758  1.0000
  H   H2980     1.0  0.50977  0.88147  0.72579  1.0000
  H   H2981     1.0  0.53216  0.87330  0.70710  1.0000
  H   H2982     1.0  0.53391  0.88925  0.72440  1.0000
  H   H2983     1.0  0.33308  0.88955  0.78476  1.0000
  H   H2984     1.0  0.50057  0.94808  0.68930  1.0000
  C   C1760     1.0  0.46792  0.74334  0.84025  1.0000
  C   C1761     1.0  0.58798  0.76536  0.55046  1.0000
  H   H2985     1.0  0.50196  0.77030  0.79561  1.0000
  H   H2986     1.0  0.64014  0.84161  0.84776  1.0000
  H   H2987     1.0  0.52863  0.73609  0.74580  1.0000
  H   H2988     1.0  0.64361  0.90781  0.67157  1.0000
  C   C1762     1.0  0.39464  0.76568  0.79872  1.0000
  H   H2989     1.0  0.49044  0.77636  0.71654  1.0000
  C   C1763     1.0  0.43934  0.76781  0.87185  1.0000
  H   H2990     1.0  0.38167  0.83182  0.95129  1.0000
  C   C1764     1.0  0.32787  0.80229  0.85959  1.0000
  C   C1765     1.0  0.57218  0.97431  0.72877  1.0000
  H   H2991     1.0  0.55403  0.75032  0.56493  1.0000
  H   H2992     1.0  0.59601  0.87369  0.75112  1.0000
  H   H2993     1.0  0.32309  0.85040  0.80592  1.0000
  N   N123      1.0  0.64924  0.88498  0.58030  1.0000
  C   C1766     1.0  0.36528  0.75048  0.95395  1.0000
  H   H2994     1.0  0.46945  0.77918  0.73848  1.0000
  C   C1767     1.0  0.56409  0.95098  0.63897  1.0000
  H   H2995     1.0  0.32970  0.76558  0.88634  1.0000
  N   N124      1.0  0.50911  0.76449  0.75324  1.0000
  C   C1768     1.0  0.62982  0.87904  0.57707  1.0000
  H   H2996     1.0  0.61404  0.74066  0.52644  1.0000
  H   H2997     1.0  0.64922  0.90647  0.55135  1.0000
  H   H2998     1.0  0.49022  0.79475  0.75468  1.0000
  H   H2999     1.0  0.61869  0.89292  0.57164  1.0000
  H   H3000     1.0  0.55747  0.94719  0.73426  1.0000
  H   H3001     1.0  0.55226  0.76180  0.73093  1.0000
  H   H3002     1.0  0.51088  0.79419  0.73348  1.0000
  H   H3003     1.0  0.64321  0.80299  0.74306  1.0000
  N   N125      1.0  0.60179  0.81934  0.76358  1.0000
  C   C1769     1.0  0.57899  0.81803  0.76881  1.0000
  C   C1770     1.0  0.60378  0.84117  0.76430  1.0000
  C   C1771     1.0  0.61262  0.80400  0.77962  1.0000
  C   C1772     1.0  0.60999  0.81399  0.74239  1.0000
  C   C1773     1.0  0.57357  0.79627  0.77111  1.0000
  H   H3004     1.0  0.61087  0.91591  0.59294  1.0000
  S   S523      1.0  0.61834  0.73808  0.88383  1.0000
  H   H3005     1.0  0.38178  0.74952  0.95292  1.0000
  H   H3006     1.0  0.57187  0.82383  0.78347  1.0000
  H   H3007     1.0  0.57047  0.82808  0.75681  1.0000
  H   H3008     1.0  0.62020  0.84334  0.76058  1.0000
  H   H3009     1.0  0.59809  0.84443  0.78023  1.0000
  H   H3010     1.0  0.60187  0.80173  0.79464  1.0000
  H   H3011     1.0  0.63726  0.87314  0.54519  1.0000
  H   H3012     1.0  0.60816  0.79800  0.74204  1.0000
  H   H3013     1.0  0.60080  0.82417  0.73098  1.0000
  H   H3014     1.0  0.57694  0.79085  0.75612  1.0000
  H   H3015     1.0  0.58143  0.78447  0.78250  1.0000
  H   H3016     1.0  0.55665  0.79716  0.77670  1.0000
  C   C1774     1.0  0.34693  0.79475  0.84392  1.0000
  H   H3017     1.0  0.62159  0.87132  0.59197  1.0000
  S   S524      1.0  0.56996  0.73892  0.85928  1.0000
  C   C1775     1.0  0.37365  0.74090  0.81972  1.0000
  C   C1776     1.0  0.35812  0.73967  0.94178  1.0000
  C   C1777     1.0  0.55599  0.77524  0.52398  1.0000
  H   H3018     1.0  0.38276  0.76258  0.86433  1.0000
  C   C1778     1.0  0.33000  0.76312  0.96900  1.0000
  H   H3019     1.0  0.35297  0.86919  0.89307  1.0000
  C   C1779     1.0  0.56598  0.73817  0.55814  1.0000
  C   C1780     1.0  0.57570  0.94793  0.67714  1.0000
  H   H3020     1.0  0.33604  0.93284  0.81162  1.0000
  H   H3021     1.0  0.41385  0.77051  0.89905  1.0000
  H   H3022     1.0  0.51822  0.92806  0.66140  1.0000
  H   H3023     1.0  0.49487  0.89033  0.65051  1.0000
  C   C1781     1.0  0.59215  0.85873  0.74992  1.0000
  C   C1782     1.0  0.37514  0.75995  0.80666  1.0000
  N   N126      1.0  0.58266  0.74791  0.54280  1.0000
  H   H3024     1.0  0.64354  0.81385  0.77152  1.0000
  H   H3025     1.0  0.54736  0.96831  0.71536  1.0000
  H   H3026     1.0  0.34432  0.83679  0.89476  1.0000
  C   C1783     1.0  0.51363  0.77863  0.78476  1.0000
  H   H3027     1.0  0.42599  0.79227  0.88983  1.0000
  H   H3028     1.0  0.33722  0.89677  0.80718  1.0000
  H   H3029     1.0  0.55951  0.95222  0.62423  1.0000
  S   S525      1.0  0.59811  0.80298  0.49186  1.0000
  C   C1784     1.0  0.52182  0.75153  0.73765  1.0000
  H   H3030     1.0  0.54001  0.74276  0.82015  1.0000
  H   H3031     1.0  0.32481  0.74400  0.87885  1.0000
  C   C1785     1.0  0.49147  0.94427  0.67909  1.0000
  C   C1786     1.0  0.64280  0.89977  0.59555  1.0000
  C   C1787     1.0  0.50259  0.92501  0.66957  1.0000
  C   C1788     1.0  0.33682  0.74034  0.94335  1.0000
  H   H3032     1.0  0.46702  0.91117  0.66996  1.0000
  H   H3033     1.0  0.47212  0.74132  0.82383  1.0000
  C   C1789     1.0  0.51574  0.88714  0.67300  1.0000
  S   S526      1.0  0.64319  0.94330  0.83137  1.0000
  C   C1790     1.0  0.56586  0.97889  0.77237  1.0000
  H   H3034     1.0  0.56928  0.74516  0.51696  1.0000
  N   N127      1.0  0.34879  0.83411  0.92639  1.0000
  H   H3035     1.0  0.64376  0.73909  0.84244  1.0000
  C   C1791     1.0  0.35486  0.85475  0.92534  1.0000
  C   C1792     1.0  0.35844  0.81804  0.94269  1.0000
  C   C1793     1.0  0.35424  0.82703  0.90580  1.0000
  H   H3036     1.0  0.39567  0.78059  0.78894  1.0000
  C   C1794     1.0  0.34670  0.87250  0.90883  1.0000
  C   C1795     1.0  0.38096  0.81839  0.94440  1.0000
  C   C1796     1.0  0.37705  0.82541  0.89489  1.0000
  H   H3037     1.0  0.61335  0.74863  0.56750  1.0000
  H   H3038     1.0  0.58009  0.94670  0.69192  1.0000
  H   H3039     1.0  0.37189  0.85385  0.92242  1.0000
  H   H3040     1.0  0.34957  0.85989  0.94055  1.0000
  H   H3041     1.0  0.34935  0.81965  0.95835  1.0000
  H   H3042     1.0  0.54728  0.75000  0.71168  1.0000
  H   H3043     1.0  0.57384  0.77685  0.55461  1.0000
  H   H3044     1.0  0.62824  0.95027  0.62790  1.0000
  H   H3045     1.0  0.36123  0.77042  0.80293  1.0000
  C   C1797     1.0  0.52374  0.76819  0.76581  1.0000
  C   C1798     1.0  0.59851  0.75962  0.56961  1.0000
  C   C1799     1.0  0.32930  0.86282  0.85041  1.0000
  H   H3046     1.0  0.55718  0.98152  0.78784  1.0000
  S   S527      1.0  0.64508  0.97799  0.58477  1.0000
  H   H3047     1.0  0.39180  0.81839  0.92960  1.0000
  C   C1800     1.0  0.44419  0.74504  0.84678  1.0000
  H   H3048     1.0  0.34534  0.80200  0.82779  1.0000
  H   H3049     1.0  0.38613  0.80996  0.90003  1.0000
  H   H3050     1.0  0.38475  0.83767  0.89690  1.0000
  H   H3051     1.0  0.37767  0.82755  0.87797  1.0000
  C   C1801     1.0  0.53990  0.76064  0.72278  1.0000
  H   H3052     1.0  0.32573  0.81947  0.85710  1.0000
  C   C1802     1.0  0.32944  0.90249  0.79360  1.0000
  H   H3053     1.0  0.58322  0.96351  0.73799  1.0000
  H   H3054     1.0  0.45180  0.90245  0.69356  1.0000
  H   H3055     1.0  0.35023  0.77764  0.84544  1.0000
  H   H3056     1.0  0.53464  0.77588  0.71351  1.0000
  Fe  Fe267     1.0  0.64094  0.91789  0.81505  1.0000
  H   H3057     1.0  0.53469  0.77828  0.75621  1.0000
  H   H3058     1.0  0.43051  0.73639  0.76026  1.0000
  Fe  Fe268     1.0  0.63322  0.94716  0.77573  1.0000
  H   H3059     1.0  0.61739  0.86057  0.56148  1.0000
  H   H3060     1.0  0.53355  0.75328  0.77146  1.0000
  H   H3061     1.0  0.47711  0.74539  0.74496  1.0000
  Fe  Fe269     1.0  0.62582  0.77789  0.48831  1.0000
  H   H3062     1.0  0.56072  0.78956  0.52577  1.0000
  H   H3063     1.0  0.36080  0.79951  0.84682  1.0000
  N   N128      1.0  0.50459  0.90464  0.68437  1.0000
  S   S528      1.0  0.62443  0.74660  0.48083  1.0000
  H   H3064     1.0  0.63624  0.89172  0.61104  1.0000
  S   S529      1.0  0.58874  0.97940  0.83509  1.0000
  H   H3065     1.0  0.57509  0.86018  0.75441  1.0000
  H   H3066     1.0  0.51227  0.87208  0.68204  1.0000
  C   C1803     1.0  0.63181  0.80954  0.78512  1.0000
  H   H3067     1.0  0.46957  0.88361  0.67993  1.0000
  H   H3068     1.0  0.54293  0.77142  0.53641  1.0000
  H   H3069     1.0  0.62716  0.82237  0.79412  1.0000
  H   H3070     1.0  0.51853  0.90075  0.64001  1.0000
  H   H3071     1.0  0.47558  0.94269  0.68741  1.0000
  C   C1804     1.0  0.56896  0.96827  0.64425  1.0000
  H   H3072     1.0  0.51921  0.87351  0.64569  1.0000
  C   C1805     1.0  0.48402  0.73801  0.75881  1.0000
  H   H3073     1.0  0.62367  0.94647  0.65531  1.0000
  H   H3074     1.0  0.35794  0.80212  0.94066  1.0000
  H   H3075     1.0  0.61729  0.78838  0.77516  1.0000
  H   H3076     1.0  0.33244  0.79720  0.87498  1.0000
  S   S530      1.0  0.58299  0.73669  0.80016  1.0000
  H   H3077     1.0  0.59705  0.85698  0.73355  1.0000
  H   H3078     1.0  0.62651  0.93070  0.59998  1.0000
  C   C1806     1.0  0.51154  0.88825  0.65112  1.0000
  H   H3079     1.0  0.45625  0.76725  0.87072  1.0000
  H   H3080     1.0  0.64600  0.80941  0.58845  1.0000
  H   H3081     1.0  0.35055  0.81133  0.90741  1.0000
  H   H3082     1.0  0.43520  0.78061  0.85905  1.0000
  H   H3083     1.0  0.58705  0.76261  0.51067  1.0000
  H   H3084     1.0  0.54014  0.96885  0.74260  1.0000
  H   H3085     1.0  0.63036  0.92445  0.64206  1.0000
  H   H3086     1.0  0.38664  0.80430  0.95513  1.0000
  H   H3087     1.0  0.40506  0.74604  0.88855  1.0000
  C   C1807     1.0  0.32285  0.75232  0.95686  1.0000
  H   H3088     1.0  0.33571  0.95079  0.78800  1.0000
  N   N129      1.0  0.43538  0.74745  0.86886  1.0000
  C   C1808     1.0  0.35129  0.76211  0.96777  1.0000
  H   H3089     1.0  0.58049  0.97438  0.71269  1.0000
  H   H3090     1.0  0.33641  0.91534  0.78324  1.0000
  C   C1809     1.0  0.57471  0.96675  0.66336  1.0000
  H   H3091     1.0  0.56421  0.96325  0.77078  1.0000
  H   H3092     1.0  0.65346  0.85843  0.60465  1.0000
  H   H3093     1.0  0.59825  0.77405  0.53797  1.0000
  C   C1810     1.0  0.63344  0.94009  0.64185  1.0000
  H   H3094     1.0  0.64358  0.85033  0.56435  1.0000
  H   H3095     1.0  0.51205  0.74825  0.72776  1.0000
  H   H3096     1.0  0.64729  0.87616  0.74077  1.0000
  S   S531      1.0  0.63437  0.97527  0.78831  1.0000
  H   H3097     1.0  0.55012  0.77893  0.50914  1.0000
  H   H3098     1.0  0.64062  0.94122  0.68115  1.0000
  H   H3099     1.0  0.43736  0.75836  0.83592  1.0000
  H   H3100     1.0  0.63938  0.79595  0.79517  1.0000
  H   H3101     1.0  0.47322  0.75762  0.84112  1.0000
  H   H3102     1.0  0.43016  0.73679  0.91328  1.0000
  Fe  Fe270     1.0  0.65505  0.80656  0.49198  1.0000
  C   C1811     1.0  0.41121  0.73283  0.81589  1.0000
  Fe  Fe271     1.0  0.69492  0.10420  0.04064  1.0000
  S   S532      1.0  0.71995  0.07757  0.03297  1.0000
  S   S533      1.0  0.69813  0.13715  0.03890  1.0000
  H   H3103     1.0  0.92002  0.08120  0.29689  1.0000
  Fe  Fe272     1.0  0.70211  0.05867  0.05978  1.0000
  Fe  Fe273     1.0  0.69796  0.07156  0.01509  1.0000
  S   S534      1.0  0.67885  0.08600  0.06912  1.0000
  H   H3104     1.0  0.83945  0.15999  0.14139  1.0000
  Fe  Fe274     1.0  0.87783  0.06096  0.16513  1.0000
  S   S535      1.0  0.86231  0.08926  0.14663  1.0000
  S   S536      1.0  0.86306  0.03262  0.16874  1.0000
  Fe  Fe275     1.0  0.90515  0.08559  0.17936  1.0000
  S   S537      1.0  0.89152  0.11564  0.16094  1.0000
  S   S538      1.0  0.92703  0.08094  0.20297  1.0000
  Fe  Fe276     1.0  0.86096  0.10509  0.17296  1.0000
  S   S539      1.0  0.83111  0.12692  0.18058  1.0000
  Fe  Fe277     1.0  0.89390  0.09733  0.13572  1.0000
  S   S540      1.0  0.90042  0.11213  0.10188  1.0000
  S   S541      1.0  0.87397  0.07614  0.19279  1.0000
  S   S542      1.0  0.91017  0.06769  0.15295  1.0000
  C   C1812     1.0  0.85987  0.98635  0.26239  1.0000
  S   S543      1.0  0.81350  0.10658  0.99969  1.0000
  H   H3105     1.0  0.74433  0.01180  0.02167  1.0000
  H   H3106     1.0  0.89654  0.00813  0.10372  1.0000
  H   H3107     1.0  0.86422  0.14516  0.34366  1.0000
  H   H3108     1.0  0.93791  0.07624  0.27439  1.0000
  H   H3109     1.0  0.80862  0.02733  0.99925  1.0000
  Fe  Fe278     1.0  0.84228  0.11055  0.00990  1.0000
  S   S544      1.0  0.84869  0.09240  0.04133  1.0000
  H   H3110     1.0  0.84340  0.17231  0.30377  1.0000
  S   S545      1.0  0.83788  0.14507  0.99916  1.0000
  S   S546      1.0  0.95852  0.11474  0.33250  1.0000
  H   H3111     1.0  0.73906  0.99589  0.10242  1.0000
  C   C1813     1.0  0.80021  0.04051  0.98950  1.0000
  N   N130      1.0  0.77366  0.01909  0.98557  1.0000
  C   C1814     1.0  0.96143  0.10343  0.23419  1.0000
  Fe  Fe279     1.0  0.83609  0.18343  0.38171  1.0000
  S   S547      1.0  0.85069  0.18163  0.40968  1.0000
  S   S548      1.0  0.81401  0.16552  0.37422  1.0000
  C   C1815     1.0  0.66628  0.15394  0.98094  1.0000
  H   H3112     1.0  0.93784  0.22352  0.42062  1.0000
  Fe  Fe280     1.0  0.87784  0.19126  0.38604  1.0000
  S   S549      1.0  0.91208  0.18277  0.38637  1.0000
  Fe  Fe281     1.0  0.81071  0.14061  0.98683  1.0000
  S   S550      1.0  0.86434  0.19037  0.35856  1.0000
  Fe  Fe282     1.0  0.82222  0.03952  0.29559  1.0000
  S   S551      1.0  0.79042  0.04310  0.28799  1.0000
  H   H3113     1.0  0.90295  0.01608  0.18116  1.0000
  Fe  Fe283     1.0  0.80812  0.06725  0.32813  1.0000
  S   S552      1.0  0.77471  0.07279  0.32396  1.0000
  S   S553      1.0  0.82453  0.07701  0.34992  1.0000
  Fe  Fe284     1.0  0.77938  0.03876  0.32222  1.0000
  S   S554      1.0  0.75855  0.01564  0.34033  1.0000
  Fe  Fe285     1.0  0.78821  0.07642  0.29001  1.0000
  S   S555      1.0  0.77436  0.10115  0.26618  1.0000
  S   S556      1.0  0.81164  0.03288  0.32963  1.0000
  S   S557      1.0  0.82095  0.07329  0.29440  1.0000
  S   S558      1.0  0.97102  0.14216  0.23480  1.0000
  H   H3114     1.0  0.78228  0.02554  0.03834  1.0000
  C   C1816     1.0  0.94568  0.13275  0.21169  1.0000
  C   C1817     1.0  0.81954  0.14173  0.36504  1.0000
  C   C1818     1.0  0.83423  0.12514  0.37231  1.0000
  C   C1819     1.0  0.83619  0.10561  0.36679  1.0000
  C   C1820     1.0  0.82361  0.10251  0.35385  1.0000
  C   C1821     1.0  0.80954  0.11930  0.34586  1.0000
  C   C1822     1.0  0.80731  0.13872  0.35170  1.0000
  H   H3115     1.0  0.84345  0.12713  0.38290  1.0000
  H   H3116     1.0  0.84705  0.09268  0.37315  1.0000
  H   H3117     1.0  0.79972  0.11713  0.33593  1.0000
  H   H3118     1.0  0.79575  0.15142  0.34617  1.0000
  H   H3119     1.0  0.78384  0.16910  0.13418  1.0000
  C   C1823     1.0  0.66559  0.06684  0.98445  1.0000
  C   C1824     1.0  0.85760  0.16031  0.30192  1.0000
  C   C1825     1.0  0.74036  0.00535  0.33133  1.0000
  H   H3120     1.0  0.96108  0.22041  0.38772  1.0000
  H   H3121     1.0  0.76574  0.05266  0.21705  1.0000
  C   C1826     1.0  0.89570  0.01929  0.21296  1.0000
  H   H3122     1.0  0.81207  0.18364  0.10861  1.0000
  H   H3123     1.0  0.89833  0.98556  0.15974  1.0000
  H   H3124     1.0  0.92232  0.11583  0.36415  1.0000
  C   C1827     1.0  0.94602  0.13345  0.34782  1.0000
  C   C1828     1.0  0.92804  0.13016  0.36214  1.0000
  C   C1829     1.0  0.91735  0.14544  0.37378  1.0000
  C   C1830     1.0  0.92483  0.16388  0.37136  1.0000
  C   C1831     1.0  0.94296  0.16707  0.35724  1.0000
  C   C1832     1.0  0.95341  0.15198  0.34531  1.0000
  H   H3125     1.0  0.90350  0.14283  0.38487  1.0000
  H   H3126     1.0  0.94881  0.18131  0.35531  1.0000
  C   C1833     1.0  0.84506  0.99910  0.27436  1.0000
  H   H3127     1.0  0.91415  0.03176  0.24710  1.0000
  H   H3128     1.0  0.92700  0.04792  0.25575  1.0000
  C   C1834     1.0  0.79102  0.10919  0.24326  1.0000
  C   C1835     1.0  0.81234  0.10130  0.24020  1.0000
  C   C1836     1.0  0.82492  0.10697  0.22111  1.0000
  C   C1837     1.0  0.81618  0.12044  0.20504  1.0000
  C   C1838     1.0  0.79499  0.12868  0.20830  1.0000
  C   C1839     1.0  0.78246  0.12304  0.22731  1.0000
  H   H3129     1.0  0.81908  0.09071  0.25242  1.0000
  H   H3130     1.0  0.84131  0.10081  0.21876  1.0000
  H   H3131     1.0  0.78817  0.13924  0.19601  1.0000
  H   H3132     1.0  0.76601  0.12922  0.22959  1.0000
  C   C1840     1.0  0.93899  0.09834  0.21164  1.0000
  H   H3133     1.0  0.92610  0.12624  0.19284  1.0000
  H   H3134     1.0  0.90949  0.03228  0.27395  1.0000
  C   C1841     1.0  0.88677  0.10631  0.08460  1.0000
  C   C1842     1.0  0.88483  0.11967  0.06568  1.0000
  C   C1843     1.0  0.87325  0.11573  0.05214  1.0000
  C   C1844     1.0  0.86397  0.09808  0.05723  1.0000
  C   C1845     1.0  0.86651  0.08446  0.07584  1.0000
  C   C1846     1.0  0.87758  0.08864  0.08957  1.0000
  H   H3135     1.0  0.89215  0.13322  0.06157  1.0000
  H   H3136     1.0  0.87161  0.12625  0.03777  1.0000
  H   H3137     1.0  0.85999  0.07050  0.07967  1.0000
  H   H3138     1.0  0.87934  0.07798  0.10383  1.0000
  H   H3139     1.0  0.81374  0.00392  0.29086  1.0000
  H   H3140     1.0  0.80515  0.16864  0.14630  1.0000
  C   C1847     1.0  0.90848  0.00766  0.19565  1.0000
  H   H3141     1.0  0.90805  0.12455  0.32539  1.0000
  Fe  Fe286     1.0  0.66024  0.07927  0.04808  1.0000
  C   C1848     1.0  0.88437  0.00671  0.11708  1.0000
  C   C1849     1.0  0.88088  0.02039  0.13118  1.0000
  C   C1850     1.0  0.86585  0.01806  0.14899  1.0000
  C   C1851     1.0  0.85369  0.00262  0.15206  1.0000
  H   H3142     1.0  0.96723  0.15468  0.33423  1.0000
  C   C1852     1.0  0.73772  0.02313  0.00916  1.0000
  H   H3143     1.0  0.89038  0.03218  0.12866  1.0000
  C   C1853     1.0  0.73411  0.01346  0.31224  1.0000
  H   H3144     1.0  0.94344  0.20947  0.37871  1.0000
  C   C1854     1.0  0.72182  0.14408  0.02543  1.0000
  C   C1855     1.0  0.72355  0.16502  0.02049  1.0000
  C   C1856     1.0  0.74199  0.17107  0.00906  1.0000
  C   C1857     1.0  0.75889  0.15619  0.00270  1.0000
  C   C1858     1.0  0.75720  0.13522  0.00763  1.0000
  C   C1859     1.0  0.73867  0.12918  0.01897  1.0000
  H   H3145     1.0  0.71057  0.17663  0.02538  1.0000
  H   H3146     1.0  0.74321  0.18731  0.00518  1.0000
  H   H3147     1.0  0.77004  0.12369  0.00248  1.0000
  H   H3148     1.0  0.73753  0.11303  0.02274  1.0000
  H   H3149     1.0  0.92265  0.05727  0.28767  1.0000
  C   C1860     1.0  0.75277  0.02934  0.05851  1.0000
  H   H3150     1.0  0.82141  0.00819  0.20150  1.0000
  H   H3151     1.0  0.74705  0.04396  0.04961  1.0000
  H   H3152     1.0  0.78122  0.00422  0.01539  1.0000
  H   H3153     1.0  0.70753  0.13011  0.99465  1.0000
  Fe  Fe287     1.0  0.83890  0.21610  0.40720  1.0000
  C   C1861     1.0  0.87254  0.99096  0.12040  1.0000
  H   H3154     1.0  0.66704  0.05494  0.99795  1.0000
  C   C1862     1.0  0.71905  0.00525  0.30616  1.0000
  C   C1863     1.0  0.73162  0.98872  0.34404  1.0000
  H   H3155     1.0  0.84212  0.00061  0.16585  1.0000
  C   C1864     1.0  0.82709  0.12090  0.10874  1.0000
  C   C1865     1.0  0.76874  0.05832  0.23020  1.0000
  C   C1866     1.0  0.76843  0.99159  0.08172  1.0000
  H   H3156     1.0  0.82288  0.99384  0.22677  1.0000
  H   H3157     1.0  0.90558  0.16860  0.32753  1.0000
  Fe  Fe288     1.0  0.85094  0.22349  0.36019  1.0000
  H   H3158     1.0  0.97138  0.09693  0.24555  1.0000
  C   C1867     1.0  0.81341  0.16650  0.11310  1.0000
  H   H3159     1.0  0.80062  0.05479  0.99516  1.0000
  C   C1868     1.0  0.82498  0.99479  0.28089  1.0000
  C   C1869     1.0  0.75050  0.02097  0.98754  1.0000
  H   H3160     1.0  0.69016  0.16572  0.98951  1.0000
  H   H3161     1.0  0.83998  0.01191  0.21571  1.0000
  N   N131      1.0  0.76311  0.07692  0.39188  1.0000
  C   C1870     1.0  0.77712  0.05918  0.38256  1.0000
  C   C1871     1.0  0.77641  0.09261  0.39141  1.0000
  C   C1872     1.0  0.74717  0.08642  0.37817  1.0000
  C   C1873     1.0  0.75299  0.06853  0.41341  1.0000
  C   C1874     1.0  0.76655  0.04176  0.38003  1.0000
  C   C1875     1.0  0.79456  0.08486  0.40349  1.0000
  C   C1876     1.0  0.73144  0.10545  0.38412  1.0000
  C   C1877     1.0  0.74479  0.08405  0.42858  1.0000
  H   H3162     1.0  0.78561  0.06498  0.36704  1.0000
  H   H3163     1.0  0.78930  0.05139  0.39197  1.0000
  H   H3164     1.0  0.76738  0.10668  0.39717  1.0000
  H   H3165     1.0  0.78313  0.09847  0.37519  1.0000
  H   H3166     1.0  0.75503  0.09108  0.36201  1.0000
  H   H3167     1.0  0.73756  0.07502  0.37759  1.0000
  H   H3168     1.0  0.73985  0.06107  0.41279  1.0000
  H   H3169     1.0  0.76424  0.05601  0.42096  1.0000
  H   H3170     1.0  0.75704  0.04688  0.36764  1.0000
  H   H3171     1.0  0.77873  0.02882  0.37512  1.0000
  H   H3172     1.0  0.75707  0.03531  0.39459  1.0000
  H   H3173     1.0  0.78968  0.07685  0.41938  1.0000
  H   H3174     1.0  0.80737  0.07455  0.39528  1.0000
  H   H3175     1.0  0.80116  0.09837  0.40459  1.0000
  H   H3176     1.0  0.73888  0.11850  0.38471  1.0000
  H   H3177     1.0  0.72079  0.10132  0.39876  1.0000
  H   H3178     1.0  0.72155  0.11127  0.37205  1.0000
  H   H3179     1.0  0.72983  0.08050  0.43807  1.0000
  H   H3180     1.0  0.74178  0.10055  0.42144  1.0000
  H   H3181     1.0  0.75546  0.08195  0.43972  1.0000
  H   H3182     1.0  0.71416  0.01181  0.29148  1.0000
  C   C1878     1.0  0.84563  0.16518  0.12480  1.0000
  C   C1879     1.0  0.84698  0.16183  0.08912  1.0000
  H   H3183     1.0  0.72172  0.02060  0.00981  1.0000
  C   C1880     1.0  0.86946  0.15950  0.12268  1.0000
  H   H3184     1.0  0.96861  0.22101  0.24938  1.0000
  H   H3185     1.0  0.84172  0.18242  0.12206  1.0000
  H   H3186     1.0  0.85009  0.17797  0.08610  1.0000
  H   H3187     1.0  0.86249  0.15174  0.08667  1.0000
  H   H3188     1.0  0.88770  0.14788  0.35080  1.0000
  H   H3189     1.0  0.87754  0.16606  0.10731  1.0000
  H   H3190     1.0  0.87451  0.16599  0.13427  1.0000
  H   H3191     1.0  0.87478  0.14257  0.12583  1.0000
  H   H3192     1.0  0.73612  0.03903  0.01224  1.0000
  H   H3193     1.0  0.67486  0.03013  0.11091  1.0000
  H   H3194     1.0  0.72855  0.09897  0.98578  1.0000
  C   C1881     1.0  0.93478  0.21421  0.41020  1.0000
  H   H3195     1.0  0.80033  0.99699  0.99445  1.0000
  H   H3196     1.0  0.82226  0.17329  0.07030  1.0000
  C   C1882     1.0  0.77735  0.03862  0.99095  1.0000
  H   H3197     1.0  0.92965  0.18806  0.30317  1.0000
  H   H3198     1.0  0.81202  0.12938  0.10487  1.0000
  H   H3199     1.0  0.87546  0.98956  0.25758  1.0000
  H   H3200     1.0  0.87881  0.02126  0.21304  1.0000
  H   H3201     1.0  0.74060  0.02630  0.30232  1.0000
  H   H3202     1.0  0.66688  0.14069  0.99392  1.0000
  S   S559      1.0  0.70647  0.06728  0.98227  1.0000
  H   H3203     1.0  0.85538  0.12621  0.11446  1.0000
  S   S560      1.0  0.78144  0.16439  0.98780  1.0000
  C   C1883     1.0  0.85687  0.98926  0.13772  1.0000
  H   H3204     1.0  0.90501  0.19533  0.29520  1.0000
  N   N132      1.0  0.83593  0.15636  0.11102  1.0000
  C   C1884     1.0  0.88066  0.13803  0.34405  1.0000
  H   H3205     1.0  0.91801  0.21377  0.41237  1.0000
  H   H3206     1.0  0.83140  0.14559  0.07288  1.0000
  C   C1885     1.0  0.78042  0.99973  0.06334  1.0000
  S   S561      1.0  0.86678  0.22523  0.38551  1.0000
  C   C1886     1.0  0.91154  0.16333  0.31245  1.0000
  H   H3207     1.0  0.84683  0.16311  0.05667  1.0000
  C   C1887     1.0  0.83875  0.13322  0.11799  1.0000
  C   C1888     1.0  0.91816  0.18232  0.29707  1.0000
  C   C1889     1.0  0.78324  0.00056  0.99970  1.0000
  H   H3208     1.0  0.68233  0.06148  0.11407  1.0000
  H   H3209     1.0  0.80067  0.14505  0.14036  1.0000
  H   H3210     1.0  0.92591  0.17839  0.28180  1.0000
  H   H3211     1.0  0.83690  0.11533  0.09487  1.0000
  C   C1890     1.0  0.90354  0.14703  0.28581  1.0000
  C   C1891     1.0  0.92495  0.13286  0.28303  1.0000
  H   H3212     1.0  0.95455  0.07387  0.23241  1.0000
  H   H3213     1.0  0.90407  0.16087  0.27334  1.0000
  H   H3214     1.0  0.89253  0.13852  0.28231  1.0000
  H   H3215     1.0  0.92567  0.11833  0.29451  1.0000
  H   H3216     1.0  0.92837  0.12849  0.26749  1.0000
  H   H3217     1.0  0.93749  0.14091  0.28366  1.0000
  C   C1892     1.0  0.94434  0.22142  0.38759  1.0000
  C   C1893     1.0  0.66971  0.06292  0.12763  1.0000
  H   H3218     1.0  0.87816  0.18217  0.29345  1.0000
  N   N133      1.0  0.82398  0.03622  0.07915  1.0000
  C   C1894     1.0  0.81155  0.04002  0.06206  1.0000
  C   C1895     1.0  0.81912  0.01678  0.09375  1.0000
  C   C1896     1.0  0.84693  0.03331  0.07075  1.0000
  C   C1897     1.0  0.81824  0.05472  0.08987  1.0000
  C   C1898     1.0  0.81584  0.05803  0.04422  1.0000
  C   C1899     1.0  0.79705  0.01835  0.10669  1.0000
  C   C1900     1.0  0.85547  0.01561  0.05827  1.0000
  C   C1901     1.0  0.82682  0.05211  0.11012  1.0000
  H   H3219     1.0  0.81381  0.02593  0.05513  1.0000
  H   H3220     1.0  0.79466  0.04339  0.06819  1.0000
  H   H3221     1.0  0.83040  0.01101  0.10455  1.0000
  H   H3222     1.0  0.82088  0.00399  0.08504  1.0000
  H   H3223     1.0  0.85131  0.04779  0.06087  1.0000
  H   H3224     1.0  0.85609  0.03007  0.08340  1.0000
  H   H3225     1.0  0.82364  0.06848  0.07937  1.0000
  H   H3226     1.0  0.80105  0.05924  0.09349  1.0000
  H   H3227     1.0  0.80572  0.05905  0.03281  1.0000
  H   H3228     1.0  0.81196  0.07313  0.04956  1.0000
  H   H3229     1.0  0.83204  0.05563  0.03584  1.0000
  H   H3230     1.0  0.79518  0.00296  0.11619  1.0000
  H   H3231     1.0  0.79419  0.02933  0.11754  1.0000
  H   H3232     1.0  0.78488  0.02257  0.09693  1.0000
  H   H3233     1.0  0.84820  0.01779  0.04447  1.0000
  H   H3234     1.0  0.85378  0.00030  0.06796  1.0000
  H   H3235     1.0  0.87236  0.01528  0.05273  1.0000
  H   H3236     1.0  0.83404  0.06565  0.10980  1.0000
  H   H3237     1.0  0.83869  0.03812  0.11310  1.0000
  H   H3238     1.0  0.81399  0.05206  0.12359  1.0000
  N   N134      1.0  0.80781  0.04783  0.21585  1.0000
  C   C1902     1.0  0.82841  0.05391  0.21497  1.0000
  C   C1903     1.0  0.80441  0.04985  0.19403  1.0000
  C   C1904     1.0  0.80741  0.02582  0.22674  1.0000
  C   C1905     1.0  0.79118  0.06204  0.22757  1.0000
  C   C1906     1.0  0.83701  0.04860  0.23529  1.0000
  C   C1907     1.0  0.80020  0.07218  0.18200  1.0000
  H   H3239     1.0  0.84058  0.04665  0.20348  1.0000
  H   H3240     1.0  0.82763  0.07079  0.20946  1.0000
  H   H3241     1.0  0.79154  0.04202  0.19347  1.0000
  H   H3242     1.0  0.81822  0.04165  0.18468  1.0000
  H   H3243     1.0  0.80887  0.02401  0.24322  1.0000
  H   H3244     1.0  0.79216  0.02147  0.22725  1.0000
  H   H3245     1.0  0.79400  0.06082  0.24345  1.0000
  H   H3246     1.0  0.79161  0.07861  0.22089  1.0000
  H   H3247     1.0  0.84246  0.03174  0.23926  1.0000
  H   H3248     1.0  0.85068  0.05614  0.23334  1.0000
  H   H3249     1.0  0.82574  0.05399  0.24844  1.0000
  H   H3250     1.0  0.78495  0.08079  0.18837  1.0000
  H   H3251     1.0  0.81261  0.08095  0.18161  1.0000
  H   H3252     1.0  0.79977  0.07160  0.16575  1.0000
  N   N135      1.0  0.88807  0.07512  0.26944  1.0000
  C   C1908     1.0  0.87044  0.09136  0.26226  1.0000
  C   C1909     1.0  0.87983  0.06416  0.29063  1.0000
  C   C1910     1.0  0.89395  0.05986  0.25475  1.0000
  C   C1911     1.0  0.90596  0.08564  0.26916  1.0000
  C   C1912     1.0  0.87536  0.10463  0.24065  1.0000
  C   C1913     1.0  0.87211  0.07781  0.30748  1.0000
  C   C1914     1.0  0.91219  0.04206  0.25851  1.0000
  C   C1915     1.0  0.92216  0.07412  0.28294  1.0000
  H   H3253     1.0  0.85695  0.08409  0.26227  1.0000
  H   H3254     1.0  0.86471  0.10268  0.27296  1.0000
  H   H3255     1.0  0.89138  0.05109  0.29661  1.0000
  H   H3256     1.0  0.86671  0.05665  0.28998  1.0000
  H   H3257     1.0  0.88036  0.05275  0.25468  1.0000
  H   H3258     1.0  0.89854  0.06769  0.23869  1.0000
  H   H3259     1.0  0.91448  0.08911  0.25310  1.0000
  H   H3260     1.0  0.89997  0.10094  0.27410  1.0000
  H   H3261     1.0  0.88891  0.11228  0.23890  1.0000
  H   H3262     1.0  0.87774  0.09560  0.22811  1.0000
  H   H3263     1.0  0.86184  0.11716  0.23819  1.0000
  H   H3264     1.0  0.88334  0.08755  0.30795  1.0000
  H   H3265     1.0  0.85686  0.08774  0.30571  1.0000
  H   H3266     1.0  0.86963  0.06764  0.32281  1.0000
  C   C1916     1.0  0.93585  0.11972  0.20436  1.0000
  H   H3267     1.0  0.88074  0.12297  0.35480  1.0000
  H   H3268     1.0  0.89959  0.03506  0.21003  1.0000
  C   C1917     1.0  0.77271  0.01880  0.05205  1.0000
  C   C1918     1.0  0.95184  0.09035  0.22665  1.0000
  C   C1919     1.0  0.74846  0.00232  0.08835  1.0000
  S   S562      1.0  0.68211  0.05037  0.04098  1.0000
  H   H3269     1.0  0.85411  0.14617  0.31292  1.0000
  S   S563      1.0  0.71515  0.03400  0.08442  1.0000
  C   C1920     1.0  0.87594  0.16861  0.30591  1.0000
  S   S564      1.0  0.97239  0.15606  0.28652  1.0000
  C   C1921     1.0  0.83594  0.16074  0.07157  1.0000
  H   H3270     1.0  0.76488  0.04714  0.24457  1.0000
  H   H3271     1.0  0.87080  0.17520  0.32034  1.0000
  H   H3272     1.0  0.92483  0.01001  0.19327  1.0000
  C   C1922     1.0  0.74046  0.02106  0.07654  1.0000
  C   C1923     1.0  0.95863  0.12478  0.22660  1.0000
  H   H3273     1.0  0.94337  0.14918  0.20560  1.0000
  H   H3274     1.0  0.88479  0.12402  0.31719  1.0000
  H   H3275     1.0  0.76986  0.04019  0.00703  1.0000
  H   H3276     1.0  0.86018  0.15737  0.28591  1.0000
  H   H3277     1.0  0.75786  0.07325  0.23116  1.0000
  H   H3278     1.0  0.80536  0.16216  0.10232  1.0000
  S   S565      1.0  0.85123  0.02107  0.28018  1.0000
  Fe  Fe289     1.0  0.98305  0.12692  0.30731  1.0000
  H   H3279     1.0  0.89913  0.01163  0.22841  1.0000
  C   C1924     1.0  0.89282  0.13419  0.32265  1.0000
  H   H3280     1.0  0.83494  0.12909  0.13509  1.0000
  H   H3281     1.0  0.94233  0.19800  0.41517  1.0000
  H   H3282     1.0  0.91953  0.99988  0.15277  1.0000
  H   H3283     1.0  0.87542  0.98766  0.21471  1.0000
  S   S566      1.0  0.86276  0.10351  0.98034  1.0000
  H   H3284     1.0  0.87795  0.99366  0.18777  1.0000
  N   N136      1.0  0.89593  0.15331  0.30669  1.0000
  H   H3285     1.0  0.82339  0.10714  0.12034  1.0000
  H   H3286     1.0  0.92594  0.15192  0.31468  1.0000
  S   S567      1.0  0.82185  0.21708  0.38154  1.0000
  C   C1925     1.0  0.82399  0.00923  0.21694  1.0000
  S   S568      1.0  0.67435  0.09969  0.02049  1.0000
  C   C1926     1.0  0.80029  0.16189  0.13481  1.0000
  C   C1927     1.0  0.70803  0.12806  0.97858  1.0000
  H   H3287     1.0  0.89048  0.22186  0.33419  1.0000
  H   H3288     1.0  0.97691  0.22620  0.35456  1.0000
  H   H3289     1.0  0.65864  0.15444  0.06165  1.0000
  C   C1928     1.0  0.88504  0.98295  0.20030  1.0000
  H   H3290     1.0  0.69504  0.11985  0.97930  1.0000
  H   H3291     1.0  0.72683  0.15939  0.97801  1.0000
  C   C1929     1.0  0.91503  0.98453  0.15950  1.0000
  H   H3292     1.0  0.67044  0.07713  0.13320  1.0000
  H   H3293     1.0  0.67283  0.04944  0.13998  1.0000
  H   H3294     1.0  0.77001  0.05260  0.98105  1.0000
  S   S569      1.0  0.80496  0.98654  0.05366  1.0000
  H   H3295     1.0  0.67192  0.00856  0.08885  1.0000
  N   N137      1.0  0.90730  0.98501  0.19881  1.0000
  H   H3296     1.0  0.93516  0.99275  0.22352  1.0000
  H   H3297     1.0  0.92632  0.22833  0.32012  1.0000
  C   C1930     1.0  0.98006  0.23155  0.24298  1.0000
  H   H3298     1.0  0.74623  0.00770  0.98311  1.0000
  C   C1931     1.0  0.66047  0.03527  0.10407  1.0000
  H   H3299     1.0  0.66441  0.04670  0.08986  1.0000
  C   C1932     1.0  0.71025  0.98867  0.31893  1.0000
  H   H3300     1.0  0.91083  0.23063  0.36953  1.0000
  H   H3301     1.0  0.74435  0.03465  0.97647  1.0000
  H   H3302     1.0  0.98335  0.23200  0.27372  1.0000
  C   C1933     1.0  0.65691  0.01609  0.09701  1.0000
  H   H3303     1.0  0.83515  0.15520  0.90981  1.0000
  Fe  Fe290     1.0  0.74871  0.03010  0.85826  1.0000
  S   S570      1.0  0.76499  0.04913  0.83005  1.0000
  C   C1934     1.0  0.87510  0.17970  0.93796  1.0000
  Fe  Fe291     1.0  0.76179  0.05275  0.88778  1.0000
  S   S571      1.0  0.77817  0.07311  0.86188  1.0000
  S   S572      1.0  0.75827  0.06017  0.91974  1.0000
  Fe  Fe292     1.0  0.75126  0.07615  0.84630  1.0000
  S   S573      1.0  0.73880  0.10866  0.83196  1.0000
  Fe  Fe293     1.0  0.79097  0.04471  0.84819  1.0000
  S   S574      1.0  0.82513  0.04233  0.83398  1.0000
  S   S575      1.0  0.73357  0.05788  0.87323  1.0000
  S   S576      1.0  0.77599  0.02341  0.87533  1.0000
  Fe  Fe294     1.0  0.95052  0.09047  0.81298  1.0000
  S   S577      1.0  0.93726  0.08495  0.84684  1.0000
  C   C1935     1.0  0.69912  0.98319  0.81489  1.0000
  Fe  Fe295     1.0  0.93448  0.13649  0.80873  1.0000
  S   S578      1.0  0.92022  0.13493  0.84211  1.0000
  S   S579      1.0  0.93489  0.16574  0.78543  1.0000
  Fe  Fe296     1.0  0.94967  0.11323  0.84772  1.0000
  S   S580      1.0  0.83531  0.07934  0.94859  1.0000
  Fe  Fe297     1.0  0.90882  0.10692  0.83817  1.0000
  S   S581      1.0  0.87620  0.10311  0.85495  1.0000
  S   S582      1.0  0.96491  0.11707  0.81461  1.0000
  S   S583      1.0  0.92102  0.11018  0.80408  1.0000
  H   H3304     1.0  0.76067  0.17231  0.89406  1.0000
  H   H3305     1.0  0.87402  0.10844  0.89795  1.0000
  H   H3306     1.0  0.71172  0.19245  0.95908  1.0000
  H   H3307     1.0  0.93408  0.12394  0.90880  1.0000
  H   H3308     1.0  0.71453  0.03878  0.94392  1.0000
  H   H3309     1.0  0.75124  0.10457  0.90421  1.0000
  S   S584      1.0  0.82874  0.13632  0.95554  1.0000
  H   H3310     1.0  0.86236  0.20581  0.83580  1.0000
  H   H3311     1.0  0.67993  0.01735  0.87767  1.0000
  N   N138      1.0  0.67338  0.14306  0.81087  1.0000
  H   H3312     1.0  0.85541  0.16909  0.90824  1.0000
  C   C1936     1.0  0.72248  0.18119  0.95012  1.0000
  S   S585      1.0  0.68127  0.16218  0.89551  1.0000
  H   H3313     1.0  0.91061  0.19904  0.76246  1.0000
  Fe  Fe298     1.0  0.85623  0.13779  0.96872  1.0000
  H   H3314     1.0  0.95982  0.22384  0.88568  1.0000
  C   C1937     1.0  0.95789  0.99881  0.78093  1.0000
  H   H3315     1.0  0.95973  0.18601  0.87227  1.0000
  H   H3316     1.0  0.94016  0.02867  0.78729  1.0000
  H   H3317     1.0  0.81762  0.10850  0.90020  1.0000
  H   H3318     1.0  0.87758  0.07409  0.90414  1.0000
  H   H3319     1.0  0.89623  0.21935  0.90553  1.0000
  C   C1938     1.0  0.87138  0.11400  0.91271  1.0000
  H   H3320     1.0  0.90016  0.07738  0.88387  1.0000
  H   H3321     1.0  0.78534  0.16383  0.86024  1.0000
  C   C1939     1.0  0.84064  0.17003  0.90291  1.0000
  C   C1940     1.0  0.86782  0.17349  0.83559  1.0000
  H   H3322     1.0  0.71385  0.17153  0.86192  1.0000
  H   H3323     1.0  0.94919  0.15475  0.86649  1.0000
  H   H3324     1.0  0.88424  0.17097  0.83733  1.0000
  C   C1941     1.0  0.91845  0.18797  0.79273  1.0000
  C   C1942     1.0  0.91610  0.19230  0.81260  1.0000
  H   H3325     1.0  0.82157  0.20970  0.87122  1.0000
  C   C1943     1.0  0.67299  0.01060  0.75349  1.0000
  H   H3326     1.0  0.92382  0.18136  0.82405  1.0000
  C   C1944     1.0  0.67015  0.02752  0.88834  1.0000
  H   H3327     1.0  0.90660  0.13400  0.91138  1.0000
  C   C1945     1.0  0.72366  0.12293  0.85053  1.0000
  C   C1946     1.0  0.72530  0.14365  0.84895  1.0000
  C   C1947     1.0  0.71270  0.15544  0.86327  1.0000
  C   C1948     1.0  0.69797  0.14672  0.87879  1.0000
  C   C1949     1.0  0.69650  0.12593  0.88053  1.0000
  C   C1950     1.0  0.70948  0.11399  0.86651  1.0000
  H   H3328     1.0  0.73623  0.15062  0.83658  1.0000
  C   C1951     1.0  0.78743  0.12541  0.85079  1.0000
  H   H3329     1.0  0.69451  0.07083  0.89875  1.0000
  H   H3330     1.0  0.70810  0.09806  0.86765  1.0000
  C   C1952     1.0  0.83973  0.05868  0.84020  1.0000
  C   C1953     1.0  0.83399  0.06638  0.85872  1.0000
  C   C1954     1.0  0.84579  0.07927  0.86336  1.0000
  C   C1955     1.0  0.86320  0.08504  0.84936  1.0000
  C   C1956     1.0  0.86927  0.07700  0.83103  1.0000
  C   C1957     1.0  0.85765  0.06377  0.82655  1.0000
  H   H3331     1.0  0.82073  0.06200  0.86970  1.0000
  H   H3332     1.0  0.84142  0.08472  0.87792  1.0000
  H   H3333     1.0  0.88271  0.08121  0.82013  1.0000
  H   H3334     1.0  0.86236  0.05774  0.81229  1.0000
  C   C1958     1.0  0.77958  0.06781  0.92584  1.0000
  C   C1959     1.0  0.77635  0.07946  0.94163  1.0000
  C   C1960     1.0  0.79326  0.08402  0.94813  1.0000
  C   C1961     1.0  0.81356  0.07646  0.93919  1.0000
  C   C1962     1.0  0.81675  0.06513  0.92317  1.0000
  C   C1963     1.0  0.79984  0.06098  0.91640  1.0000
  H   H3335     1.0  0.76072  0.08447  0.94921  1.0000
  C   C1964     1.0  0.68411  0.01580  0.71600  1.0000
  H   H3336     1.0  0.83239  0.05918  0.91620  1.0000
  H   H3337     1.0  0.80251  0.05168  0.90448  1.0000
  H   H3338     1.0  0.92153  0.05760  0.95297  1.0000
  H   H3339     1.0  0.67070  0.06762  0.66854  1.0000
  H   H3340     1.0  0.88856  0.23159  0.77140  1.0000
  H   H3341     1.0  0.68328  0.17780  0.96508  1.0000
  S   S586      1.0  0.72609  0.00757  0.86134  1.0000
  C   C1965     1.0  0.75662  0.11500  0.88982  1.0000
  H   H3342     1.0  0.89637  0.05247  0.89760  1.0000
  C   C1966     1.0  0.81185  0.12943  0.87125  1.0000
  H   H3343     1.0  0.69457  0.01867  0.68278  1.0000
  N   N139      1.0  0.85278  0.19158  0.86751  1.0000
  C   C1967     1.0  0.84915  0.21078  0.93296  1.0000
  H   H3344     1.0  0.82149  0.11709  0.86286  1.0000
  H   H3345     1.0  0.81731  0.14393  0.86269  1.0000
  H   H3346     1.0  0.95079  0.20544  0.90803  1.0000
  H   H3347     1.0  0.83527  0.12597  0.89015  1.0000
  C   C1968     1.0  0.72792  0.11250  0.97303  1.0000
  H   H3348     1.0  0.78210  0.11643  0.90345  1.0000
  C   C1969     1.0  0.85462  0.18999  0.94209  1.0000
  H   H3349     1.0  0.74709  0.13051  0.89069  1.0000
  H   H3350     1.0  0.80974  0.13544  0.90286  1.0000
  H   H3351     1.0  0.79063  0.09260  0.96062  1.0000
  H   H3352     1.0  0.87232  0.13070  0.90989  1.0000
  H   H3353     1.0  0.65677  0.22781  0.48711  1.0000
  H   H3354     1.0  0.76492  0.99962  0.95437  1.0000
  H   H3355     1.0  0.97341  0.21375  0.84612  1.0000
  H   H3356     1.0  0.72758  0.10637  0.95911  1.0000
  H   H3357     1.0  0.69279  0.16203  0.93662  1.0000
  C   C1970     1.0  0.98793  0.05388  0.85096  1.0000
  N   N140      1.0  0.78907  0.13074  0.87101  1.0000
  H   H3358     1.0  0.71044  0.06192  0.92577  1.0000
  C   C1971     1.0  0.79680  0.13914  0.83105  1.0000
  H   H3359     1.0  0.94675  0.22534  0.82565  1.0000
  H   H3360     1.0  0.73595  0.01145  0.81594  1.0000
  H   H3361     1.0  0.65807  0.01887  0.89789  1.0000
  H   H3362     1.0  0.68552  0.14076  0.77882  1.0000
  C   C1972     1.0  0.65887  0.15550  0.84569  1.0000
  N   N141      1.0  0.97991  0.98738  0.77702  1.0000
  H   H3363     1.0  0.77100  0.12613  0.84951  1.0000
  N   N142      1.0  0.67444  0.04881  0.91492  1.0000
  H   H3364     1.0  0.86125  0.15915  0.84181  1.0000
  C   C1973     1.0  0.68403  0.03248  0.90163  1.0000
  H   H3365     1.0  0.82809  0.17367  0.87512  1.0000
  H   H3366     1.0  0.80870  0.04233  0.97340  1.0000
  Fe  Fe299     1.0  0.83369  0.10261  0.96914  1.0000
  S   S587      1.0  0.96914  0.11149  0.87173  1.0000
  H   H3367     1.0  0.66270  0.04132  0.87865  1.0000
  C   C1974     1.0  0.97582  0.21843  0.92996  1.0000
  C   C1975     1.0  0.89431  0.22539  0.80256  1.0000
  H   H3368     1.0  0.92309  0.06216  0.91092  1.0000
  C   C1976     1.0  0.88464  0.21123  0.91570  1.0000
  H   H3369     1.0  0.66134  0.00505  0.76677  1.0000
  H   H3370     1.0  0.86799  0.17658  0.81868  1.0000
  N   N143      1.0  0.97777  0.20980  0.81431  1.0000
  H   H3371     1.0  0.85502  0.11306  0.91988  1.0000
  H   H3372     1.0  0.79536  0.10921  0.84971  1.0000
  H   H3373     1.0  0.85274  0.15827  0.87488  1.0000
  H   H3374     1.0  0.69033  0.15287  0.83009  1.0000
  C   C1977     1.0  0.71592  0.99872  0.84289  1.0000
  H   H3375     1.0  0.97870  0.20664  0.91991  1.0000
  H   H3376     1.0  0.78811  0.15525  0.82926  1.0000
  C   C1978     1.0  0.77741  0.15244  0.87208  1.0000
  C   C1979     1.0  0.84352  0.17294  0.87919  1.0000
  C   C1980     1.0  0.70086  0.14689  0.94410  1.0000
  H   H3377     1.0  0.89957  0.07639  0.96200  1.0000
  C   C1981     1.0  0.85494  0.19248  0.84460  1.0000
  H   H3378     1.0  0.68282  0.16606  0.78439  1.0000
  C   C1982     1.0  0.81865  0.12469  0.89248  1.0000
  H   H3379     1.0  0.78850  0.09900  0.88619  1.0000
  H   H3380     1.0  0.68633  0.03214  0.71398  1.0000
  H   H3381     1.0  0.90601  0.18251  0.92164  1.0000
  C   C1983     1.0  0.87317  0.19223  0.87323  1.0000
  C   C1984     1.0  0.88940  0.17201  0.87486  1.0000
  H   H3382     1.0  0.88088  0.20426  0.86225  1.0000
  H   H3383     1.0  0.87040  0.19740  0.88831  1.0000
  H   H3384     1.0  0.82878  0.18237  0.90929  1.0000
  H   H3385     1.0  0.90396  0.17450  0.86393  1.0000
  H   H3386     1.0  0.88477  0.15831  0.87176  1.0000
  H   H3387     1.0  0.89342  0.16794  0.89056  1.0000
  H   H3388     1.0  0.69429  0.09747  0.94765  1.0000
  C   C1985     1.0  0.68204  0.01249  0.69459  1.0000
  C   C1986     1.0  0.98631  0.21105  0.83294  1.0000
  H   H3389     1.0  0.65998  0.11025  0.93673  1.0000
  C   C1987     1.0  0.95972  0.22762  0.81238  1.0000
  C   C1988     1.0  0.66873  0.07788  0.88346  1.0000
  H   H3390     1.0  0.79558  0.13280  0.81747  1.0000
  H   H3391     1.0  0.71565  0.12821  0.92049  1.0000
  H   H3392     1.0  0.81352  0.13903  0.83028  1.0000
  C   C1989     1.0  0.67777  0.07007  0.90344  1.0000
  C   C1990     1.0  0.89013  0.19040  0.92484  1.0000
  H   H3393     1.0  0.68548  0.11903  0.89280  1.0000
  H   H3394     1.0  0.87699  0.08984  0.93883  1.0000
  C   C1991     1.0  0.67478  0.15662  0.82558  1.0000
  H   H3395     1.0  0.90019  0.06041  0.92990  1.0000
  H   H3396     1.0  0.78985  0.98561  0.96104  1.0000
  C   C1992     1.0  0.98636  0.98877  0.81320  1.0000
  H   H3397     1.0  0.71396  0.15587  0.80123  1.0000
  C   C1993     1.0  0.66489  0.10675  0.83044  1.0000
  H   H3398     1.0  0.67316  0.09122  0.83658  1.0000
  H   H3399     1.0  0.96465  0.21291  0.94381  1.0000
  H   H3400     1.0  0.97362  0.02699  0.86725  1.0000
  C   C1994     1.0  0.97716  0.13432  0.87367  1.0000
  H   H3401     1.0  0.84296  0.18191  0.95227  1.0000
  C   C1995     1.0  0.71967  0.13981  0.92787  1.0000
  H   H3402     1.0  0.72270  0.15304  0.91525  1.0000
  H   H3403     1.0  0.68263  0.02817  0.77226  1.0000
  H   H3404     1.0  0.71719  0.12960  0.79691  1.0000
  S   S588      1.0  0.88204  0.15327  0.94825  1.0000
  H   H3405     1.0  0.77202  0.14820  0.90647  1.0000
  C   C1996     1.0  0.83749  0.21052  0.87309  1.0000
  H   H3406     1.0  0.92281  0.13526  0.88648  1.0000
  C   C1997     1.0  0.78000  0.11487  0.88803  1.0000
  C   C1998     1.0  0.90441  0.21124  0.81736  1.0000
  C   C1999     1.0  0.77479  0.16016  0.89264  1.0000
  H   H3407     1.0  0.67058  0.09426  0.87772  1.0000
  H   H3408     1.0  0.78838  0.16689  0.89322  1.0000
  C   C2000     1.0  0.90868  0.20229  0.77788  1.0000
  C   C2001     1.0  0.70806  0.04558  0.92958  1.0000
  C   C2002     1.0  0.86406  0.22141  0.91959  1.0000
  C   C2003     1.0  0.92000  0.12557  0.90195  1.0000
  C   C2004     1.0  0.96412  0.15357  0.87074  1.0000
  C   C2005     1.0  0.72351  0.00263  0.82167  1.0000
  H   H3409     1.0  0.94849  0.99493  0.77099  1.0000
  H   H3410     1.0  0.83934  0.19516  0.84018  1.0000
  H   H3411     1.0  0.95285  0.02923  0.76082  1.0000
  H   H3412     1.0  0.68967  0.01737  0.91109  1.0000
  H   H3413     1.0  0.66370  0.16337  0.85636  1.0000
  H   H3414     1.0  0.88657  0.11283  0.93775  1.0000
  C   C2006     1.0  0.95454  0.02267  0.77708  1.0000
  C   C2007     1.0  0.89629  0.22073  0.78291  1.0000
  H   H3415     1.0  0.68378  0.02812  0.94216  1.0000
  C   C2008     1.0  0.71064  0.14600  0.79148  1.0000
  H   H3416     1.0  0.76186  0.15485  0.86763  1.0000
  H   H3417     1.0  0.73839  0.14998  0.95518  1.0000
  N   N144      1.0  0.90700  0.09152  0.91934  1.0000
  C   C2009     1.0  0.92111  0.08910  0.93483  1.0000
  C   C2010     1.0  0.91637  0.10427  0.89970  1.0000
  C   C2011     1.0  0.90690  0.07018  0.91556  1.0000
  C   C2012     1.0  0.88550  0.10158  0.92820  1.0000
  C   C2013     1.0  0.91627  0.07393  0.95519  1.0000
  C   C2014     1.0  0.89445  0.06891  0.89928  1.0000
  H   H3418     1.0  0.93761  0.08396  0.92792  1.0000
  H   H3419     1.0  0.92065  0.10425  0.93937  1.0000
  H   H3420     1.0  0.90697  0.10706  0.88738  1.0000
  H   H3421     1.0  0.93162  0.09564  0.89312  1.0000
  H   H3422     1.0  0.75333  0.10900  0.87702  1.0000
  H   H3423     1.0  0.66368  0.04341  0.75761  1.0000
  H   H3424     1.0  0.68747  0.99907  0.75495  1.0000
  C   C2015     1.0  0.68113  0.12041  0.81896  1.0000
  H   H3425     1.0  0.97739  0.99198  0.74468  1.0000
  C   C2016     1.0  0.78370  0.01865  0.96338  1.0000
  C   C2017     1.0  0.68090  0.09089  0.95613  1.0000
  H   H3426     1.0  0.97657  0.06276  0.86200  1.0000
  H   H3427     1.0  0.73798  0.18578  0.94712  1.0000
  H   H3428     1.0  0.69388  0.98373  0.86628  1.0000
  C   C2018     1.0  0.67757  0.03102  0.75706  1.0000
  H   H3429     1.0  0.69823  0.03673  0.89102  1.0000
  C   C2019     1.0  0.78132  0.00053  0.95391  1.0000
  H   H3430     1.0  0.96629  0.03822  0.84272  1.0000
  C   C2020     1.0  0.98572  0.07156  0.77425  1.0000
  C   C2021     1.0  0.68483  0.04410  0.93363  1.0000
  H   H3431     1.0  0.66718  0.02082  0.69001  1.0000
  H   H3432     1.0  0.90314  0.21478  0.83243  1.0000
  H   H3433     1.0  0.69907  0.00624  0.71967  1.0000
  N   N145      1.0  0.70528  0.14887  0.96459  1.0000
  H   H3434     1.0  0.69039  0.03656  0.74527  1.0000
  H   H3435     1.0  0.83634  0.21153  0.88961  1.0000
  C   C2022     1.0  0.84230  0.23165  0.86086  1.0000
  C   C2023     1.0  0.71529  0.99476  0.80783  1.0000
  C   C2024     1.0  0.66017  0.99115  0.73327  1.0000
  H   H3436     1.0  0.73417  0.13258  0.93369  1.0000
  H   H3437     1.0  0.69260  0.11881  0.82921  1.0000
  H   H3438     1.0  0.68977  0.13606  0.94634  1.0000
  H   H3439     1.0  0.92488  0.07637  0.96663  1.0000
  H   H3440     1.0  0.71925  0.15044  0.77567  1.0000
  H   H3441     1.0  0.68377  0.99586  0.69385  1.0000
  C   C2025     1.0  0.97016  0.17130  0.87394  1.0000
  H   H3442     1.0  0.68979  0.11216  0.80614  1.0000
  C   C2026     1.0  0.68286  0.07537  0.97347  1.0000
  H   H3443     1.0  0.71776  0.18254  0.93502  1.0000
  H   H3444     1.0  0.67669  0.05450  0.94472  1.0000
  H   H3445     1.0  0.78849  0.00309  0.93731  1.0000
  H   H3446     1.0  0.94607  0.21827  0.78903  1.0000
  H   H3447     1.0  0.96027  0.18995  0.80603  1.0000
  S   S589      1.0  0.97090  0.06394  0.79860  1.0000
  H   H3448     1.0  0.65818  0.13955  0.85384  1.0000
  C   C2027     1.0  0.68724  0.14933  0.79067  1.0000
  H   H3449     1.0  0.67758  0.06919  0.87115  1.0000
  H   H3450     1.0  0.96680  0.02895  0.78107  1.0000
  H   H3451     1.0  0.97080  0.99786  0.81783  1.0000
  C   C2028     1.0  0.98281  0.09215  0.76418  1.0000
  H   H3452     1.0  0.71719  0.03696  0.91733  1.0000
  H   H3453     1.0  0.67134  0.08181  0.91365  1.0000
  C   C2029     1.0  0.69982  0.98704  0.84993  1.0000
  H   H3454     1.0  0.98741  0.20754  0.78209  1.0000
  C   C2030     1.0  0.98429  0.16943  0.81955  1.0000
  H   H3455     1.0  0.97125  0.10368  0.77123  1.0000
  H   H3456     1.0  0.80069  0.01813  0.96118  1.0000
  H   H3457     1.0  0.77750  0.03309  0.95344  1.0000
  C   C2031     1.0  0.66151  0.09808  0.94997  1.0000
  N   N146      1.0  0.66630  0.01150  0.73327  1.0000
  H   H3458     1.0  0.74237  0.11856  0.97166  1.0000
  H   H3459     1.0  0.94982  0.99353  0.79682  1.0000
  C   C2032     1.0  0.97954  0.03410  0.85121  1.0000
  C   C2033     1.0  0.96892  0.19013  0.81830  1.0000
  H   H3460     1.0  0.95741  0.18924  0.83294  1.0000
  C   C2034     1.0  0.72390  0.15893  0.96248  1.0000
  H   H3461     1.0  0.67275  0.17314  0.81788  1.0000
  C   C2035     1.0  0.94788  0.22164  0.89971  1.0000
  H   H3462     1.0  0.66196  0.14950  0.96771  1.0000
  H   H3463     1.0  0.98697  0.06378  0.83565  1.0000
  H   H3464     1.0  0.93284  0.22385  0.89441  1.0000
  H   H3465     1.0  0.72159  0.99762  0.79153  1.0000
  H   H3466     1.0  0.83325  0.21863  0.93617  1.0000
  H   H3467     1.0  0.97525  0.15660  0.82454  1.0000
  C   C2036     1.0  0.68680  0.16245  0.97508  1.0000
  H   H3468     1.0  0.98835  0.02535  0.74909  1.0000
  C   C2037     1.0  0.95054  0.23199  0.79236  1.0000
  H   H3469     1.0  0.65577  0.08609  0.69785  1.0000
  Fe  Fe300     1.0  0.94923  0.34185  0.29282  1.0000
  S   S590      1.0  0.92585  0.35375  0.31881  1.0000
  H   H3470     1.0  0.97471  0.24197  0.22928  1.0000
  Fe  Fe301     1.0  0.93731  0.29935  0.30409  1.0000
  S   S591      1.0  0.91333  0.30783  0.33089  1.0000
  S   S592      1.0  0.94145  0.26629  0.30048  1.0000
  Fe  Fe302     1.0  0.90454  0.33718  0.30942  1.0000
  S   S593      1.0  0.87072  0.34731  0.30729  1.0000
  Fe  Fe303     1.0  0.93706  0.32308  0.33754  1.0000
  S   S594      1.0  0.94089  0.31931  0.37061  1.0000
  S   S595      1.0  0.92699  0.32768  0.28179  1.0000
  S   S596      1.0  0.96197  0.31240  0.31221  1.0000
  Fe  Fe304     1.0  0.73726  0.41136  0.36918  1.0000
  S   S597      1.0  0.76027  0.38302  0.36172  1.0000
  H   H3471     1.0  0.91377  0.25262  0.41472  1.0000
  Fe  Fe305     1.0  0.74117  0.40129  0.41431  1.0000
  S   S598      1.0  0.76385  0.37221  0.41059  1.0000
  S   S599      1.0  0.73472  0.40747  0.44661  1.0000
  Fe  Fe306     1.0  0.77882  0.39093  0.38215  1.0000
  S   S600      1.0  0.81324  0.38930  0.37899  1.0000
  Fe  Fe307     1.0  0.74313  0.36690  0.39102  1.0000
  S   S601      1.0  0.73811  0.33411  0.39548  1.0000
  S   S602      1.0  0.75745  0.42075  0.38710  1.0000
  S   S603      1.0  0.71883  0.39452  0.39713  1.0000
  H   H3472     1.0  0.96163  0.27999  0.24049  1.0000
  H   H3473     1.0  0.71185  0.37678  0.44246  1.0000
  H   H3474     1.0  0.66404  0.47950  0.17950  1.0000
  C   C2038     1.0  0.89294  0.23681  0.32526  1.0000
  C   C2039     1.0  0.81351  0.44137  0.29171  1.0000
  C   C2040     1.0  0.98790  0.34839  0.33202  1.0000
  C   C2041     1.0  0.69875  0.44795  0.34891  1.0000
  H   H3475     1.0  0.93823  0.27427  0.37600  1.0000
  C   C2042     1.0  0.69120  0.46458  0.33434  1.0000
  H   H3476     1.0  0.83938  0.39896  0.31939  1.0000
  S   S604      1.0  0.85058  0.24883  0.33271  1.0000
  C   C2043     1.0  0.77692  0.43393  0.32602  1.0000
  N   N147      1.0  0.93516  0.24262  0.37726  1.0000
  H   H3477     1.0  0.82194  0.47368  0.17000  1.0000
  H   H3478     1.0  0.77746  0.26415  0.35860  1.0000
  C   C2044     1.0  0.91323  0.24047  0.31732  1.0000
  H   H3479     1.0  0.95474  0.25579  0.39092  1.0000
  C   C2045     1.0  0.65644  0.43000  0.43731  1.0000
  H   H3480     1.0  0.70661  0.44376  0.46000  1.0000
  H   H3481     1.0  0.84818  0.41748  0.29831  1.0000
  H   H3482     1.0  0.79862  0.44448  0.28581  1.0000
  C   C2046     1.0  0.79986  0.42645  0.32826  1.0000
  H   H3483     1.0  0.95773  0.36347  0.34583  1.0000
  N   N148      1.0  0.80889  0.29317  0.37221  1.0000
  H   H3484     1.0  0.72205  0.29833  0.45971  1.0000
  H   H3485     1.0  0.79090  0.29694  0.34793  1.0000
  H   H3486     1.0  0.90592  0.26530  0.34909  1.0000
  H   H3487     1.0  0.72329  0.35183  0.43783  1.0000
  C   C2047     1.0  0.69120  0.44358  0.46993  1.0000
  C   C2048     1.0  0.71274  0.32902  0.40462  1.0000
  C   C2049     1.0  0.70991  0.30838  0.40984  1.0000
  C   C2050     1.0  0.69008  0.30357  0.41768  1.0000
  C   C2051     1.0  0.67285  0.31935  0.42015  1.0000
  C   C2052     1.0  0.67557  0.34007  0.41497  1.0000
  C   C2053     1.0  0.69554  0.34490  0.40721  1.0000
  H   H3488     1.0  0.72311  0.29603  0.40789  1.0000
  H   H3489     1.0  0.68809  0.28754  0.42164  1.0000
  H   H3490     1.0  0.70086  0.46853  0.31954  1.0000
  H   H3491     1.0  0.69753  0.36085  0.40312  1.0000
  C   C2054     1.0  0.75919  0.40132  0.45393  1.0000
  H   H3492     1.0  0.76784  0.43731  0.34111  1.0000
  H   H3493     1.0  0.79358  0.41045  0.29594  1.0000
  H   H3494     1.0  0.77018  0.42189  0.32203  1.0000
  C   C2055     1.0  0.79594  0.40286  0.44558  1.0000
  C   C2056     1.0  0.77607  0.40857  0.44042  1.0000
  H   H3495     1.0  0.82688  0.40770  0.26966  1.0000
  N   N149      1.0  0.66898  0.34155  0.10093  1.0000
  H   H3496     1.0  0.80891  0.40872  0.43518  1.0000
  H   H3497     1.0  0.77384  0.41870  0.42599  1.0000
  C   C2057     1.0  0.85526  0.35653  0.32891  1.0000
  C   C2058     1.0  0.86378  0.36501  0.34173  1.0000
  C   C2059     1.0  0.85071  0.37477  0.35736  1.0000
  C   C2060     1.0  0.82926  0.37540  0.36064  1.0000
  C   C2061     1.0  0.82087  0.36597  0.34852  1.0000
  C   C2062     1.0  0.83385  0.35686  0.33241  1.0000
  H   H3498     1.0  0.88028  0.36498  0.33892  1.0000
  H   H3499     1.0  0.85713  0.38242  0.36649  1.0000
  H   H3500     1.0  0.80435  0.36633  0.35105  1.0000
  H   H3501     1.0  0.82728  0.35038  0.32239  1.0000
  C   C2063     1.0  0.91649  0.26017  0.30674  1.0000
  C   C2064     1.0  0.89952  0.27573  0.30293  1.0000
  C   C2065     1.0  0.87930  0.27179  0.31004  1.0000
  H   H3502     1.0  0.98191  0.35117  0.31728  1.0000
  H   H3503     1.0  0.90193  0.29094  0.29463  1.0000
  H   H3504     1.0  0.86630  0.28392  0.30697  1.0000
  H   H3505     1.0  0.69443  0.30299  0.46629  1.0000
  H   H3506     1.0  0.97551  0.30120  0.23530  1.0000
  H   H3507     1.0  0.97734  0.36187  0.36052  1.0000
  H   H3508     1.0  0.83161  0.26449  0.37353  1.0000
  H   H3509     1.0  0.82791  0.31713  0.36691  1.0000
  C   C2066     1.0  0.69549  0.33234  0.12613  1.0000
  C   C2067     1.0  0.80871  0.40534  0.30144  1.0000
  H   H3510     1.0  0.89725  0.37357  0.39940  1.0000
  C   C2068     1.0  0.66506  0.33415  0.08263  1.0000
  C   C2069     1.0  0.87597  0.25255  0.32173  1.0000
  C   C2070     1.0  0.97886  0.29394  0.36241  1.0000
  C   C2071     1.0  0.68610  0.44279  0.36787  1.0000
  C   C2072     1.0  0.65897  0.47156  0.35826  1.0000
  H   H3511     1.0  0.69156  0.42961  0.37884  1.0000
  C   C2073     1.0  0.82420  0.39604  0.28383  1.0000
  H   H3512     1.0  0.65956  0.35338  0.14142  1.0000
  C   C2074     1.0  0.96724  0.29985  0.39747  1.0000
  C   C2075     1.0  0.96387  0.30329  0.37713  1.0000
  H   H3513     1.0  0.85003  0.26762  0.39746  1.0000
  H   H3514     1.0  0.95568  0.30681  0.40903  1.0000
  H   H3515     1.0  0.83926  0.38824  0.28855  1.0000
  C   C2076     1.0  0.97540  0.28608  0.23108  1.0000
  H   H3516     1.0  0.87793  0.32793  0.45782  1.0000
  H   H3517     1.0  0.66238  0.35233  0.41700  1.0000
  H   H3518     1.0  0.83537  0.42132  0.34426  1.0000
  C   C2077     1.0  0.82362  0.26133  0.45847  1.0000
  H   H3519     1.0  0.84447  0.29401  0.38756  1.0000
  C   C2078     1.0  0.67741  0.43275  0.46163  1.0000
  C   C2079     1.0  0.76228  0.38802  0.47249  1.0000
  H   H3520     1.0  0.81767  0.38388  0.27972  1.0000
  C   C2080     1.0  0.86640  0.26010  0.44945  1.0000
  H   H3521     1.0  0.86929  0.31999  0.37095  1.0000
  C   C2081     1.0  0.85722  0.24864  0.43965  1.0000
  C   C2082     1.0  0.96978  0.24280  0.35135  1.0000
  C   C2083     1.0  0.91256  0.24330  0.37708  1.0000
  H   H3522     1.0  0.80394  0.43795  0.33562  1.0000
  S   S605      1.0  0.72392  0.43375  0.34310  1.0000
  H   H3523     1.0  0.82890  0.28334  0.41141  1.0000
  H   H3524     1.0  0.97626  0.27992  0.27168  1.0000
  H   H3525     1.0  0.85035  0.28711  0.34993  1.0000
  H   H3526     1.0  0.84836  0.31214  0.33424  1.0000
  H   H3527     1.0  0.76885  0.27933  0.37856  1.0000
  H   H3528     1.0  0.81105  0.31536  0.40360  1.0000
  H   H3529     1.0  0.79872  0.33496  0.38489  1.0000
  C   C2084     1.0  0.84331  0.42612  0.32823  1.0000
  C   C2085     1.0  0.66629  0.45458  0.37254  1.0000
  H   H3530     1.0  0.81078  0.27467  0.34876  1.0000
  H   H3531     1.0  0.90325  0.34704  0.39832  1.0000
  C   C2086     1.0  0.90122  0.26376  0.36603  1.0000
  H   H3532     1.0  0.88810  0.33091  0.37806  1.0000
  H   H3533     1.0  0.81082  0.32103  0.34942  1.0000
  C   C2087     1.0  0.94592  0.24561  0.35501  1.0000
  H   H3534     1.0  0.83360  0.46286  0.29302  1.0000
  H   H3535     1.0  0.75086  0.30852  0.47268  1.0000
  H   H3536     1.0  0.78946  0.25699  0.38086  1.0000
  C   C2088     1.0  0.79175  0.30390  0.38689  1.0000
  C   C2089     1.0  0.82121  0.30869  0.35821  1.0000
  H   H3537     1.0  0.81033  0.46415  0.31244  1.0000
  H   H3538     1.0  0.69602  0.35700  0.44919  1.0000
  C   C2090     1.0  0.82223  0.27538  0.38378  1.0000
  N   N150      1.0  0.81476  0.42270  0.30868  1.0000
  H   H3539     1.0  0.71220  0.32541  0.12515  1.0000
  H   H3540     1.0  0.68428  0.44430  0.40898  1.0000
  C   C2091     1.0  0.79890  0.28430  0.35871  1.0000
  H   H3541     1.0  0.75896  0.35330  0.45573  1.0000
  H   H3542     1.0  0.72728  0.36623  0.47148  1.0000
  C   C2092     1.0  0.68712  0.32678  0.10875  1.0000
  H   H3543     1.0  0.93244  0.26608  0.41846  1.0000
  C   C2093     1.0  0.83669  0.41574  0.31290  1.0000
  H   H3544     1.0  0.78390  0.32506  0.40879  1.0000
  C   C2094     1.0  0.78280  0.27047  0.37014  1.0000
  C   C2095     1.0  0.92350  0.26434  0.40697  1.0000
  H   H3545     1.0  0.86018  0.42073  0.32824  1.0000
  C   C2096     1.0  0.79703  0.32066  0.39647  1.0000
  H   H3546     1.0  0.68363  0.46921  0.11045  1.0000
  H   H3547     1.0  0.83375  0.29444  0.33053  1.0000
  H   H3548     1.0  0.90247  0.31388  0.44840  1.0000
  H   H3549     1.0  0.68616  0.41676  0.46116  1.0000
  N   N151      1.0  0.67095  0.44271  0.44114  1.0000
  H   H3550     1.0  0.80658  0.47442  0.15080  1.0000
  C   C2097     1.0  0.70316  0.45918  0.42115  1.0000
  C   C2098     1.0  0.98087  0.24371  0.25972  1.0000
  H   H3551     1.0  0.68301  0.31116  0.11491  1.0000
  H   H3552     1.0  0.67951  0.33175  0.07106  1.0000
  H   H3553     1.0  0.65821  0.43878  0.33817  1.0000
  H   H3554     1.0  0.80067  0.41203  0.34006  1.0000
  H   H3555     1.0  0.78533  0.29240  0.39990  1.0000
  C   C2099     1.0  0.69259  0.36576  0.07665  1.0000
  H   H3556     1.0  0.97308  0.28872  0.21482  1.0000
  H   H3557     1.0  0.91331  0.27958  0.40361  1.0000
  H   H3558     1.0  0.82535  0.43832  0.27790  1.0000
  H   H3559     1.0  0.67401  0.39823  0.44567  1.0000
  H   H3560     1.0  0.69452  0.38227  0.07327  1.0000
  H   H3561     1.0  0.97623  0.29578  0.34696  1.0000
  H   H3562     1.0  0.97540  0.25174  0.36041  1.0000
  H   H3563     1.0  0.67139  0.43837  0.30121  1.0000
  C   C2100     1.0  0.83696  0.28079  0.39575  1.0000
  H   H3564     1.0  0.98432  0.33303  0.34024  1.0000
  H   H3565     1.0  0.65975  0.37355  0.08733  1.0000
  H   H3566     1.0  0.90344  0.24024  0.39276  1.0000
  H   H3567     1.0  0.96499  0.25239  0.26405  1.0000
  H   H3568     1.0  0.94050  0.26142  0.34672  1.0000
  H   H3569     1.0  0.77848  0.31191  0.37892  1.0000
  H   H3570     1.0  0.89661  0.34104  0.43882  1.0000
  S   S606      1.0  0.82319  0.23505  0.43244  1.0000
  C   C2101     1.0  0.68944  0.44256  0.42394  1.0000
  H   H3571     1.0  0.81241  0.26546  0.39540  1.0000
  C   C2102     1.0  0.66616  0.40794  0.43315  1.0000
  H   H3572     1.0  0.88850  0.36434  0.38012  1.0000
  C   C2103     1.0  0.83936  0.29981  0.34247  1.0000
  H   H3573     1.0  0.68712  0.32610  0.14152  1.0000
  H   H3574     1.0  0.88306  0.30549  0.39084  1.0000
  H   H3575     1.0  0.81309  0.35179  0.44285  1.0000
  N   N152      1.0  0.86445  0.33744  0.41789  1.0000
  C   C2104     1.0  0.84577  0.33859  0.43501  1.0000
  C   C2105     1.0  0.88146  0.32134  0.42632  1.0000
  C   C2106     1.0  0.85833  0.33072  0.40034  1.0000
  C   C2107     1.0  0.87020  0.35870  0.41139  1.0000
  C   C2108     1.0  0.82550  0.35226  0.42900  1.0000
  C   C2109     1.0  0.88988  0.32668  0.44380  1.0000
  C   C2110     1.0  0.87591  0.32136  0.38430  1.0000
  C   C2111     1.0  0.89087  0.36073  0.39640  1.0000
  H   H3576     1.0  0.84221  0.32279  0.44186  1.0000
  H   H3577     1.0  0.84883  0.34480  0.44792  1.0000
  H   H3578     1.0  0.89514  0.31792  0.41426  1.0000
  H   H3579     1.0  0.87603  0.30622  0.43216  1.0000
  H   H3580     1.0  0.84835  0.31869  0.40652  1.0000
  H   H3581     1.0  0.84867  0.34386  0.39168  1.0000
  H   H3582     1.0  0.85800  0.36968  0.40373  1.0000
  H   H3583     1.0  0.87024  0.36564  0.42502  1.0000
  H   H3584     1.0  0.82707  0.36876  0.42372  1.0000
  H   H3585     1.0  0.81987  0.34670  0.41720  1.0000
  C   C2112     1.0  0.83574  0.24908  0.44425  1.0000
  H   H3586     1.0  0.80631  0.39223  0.31443  1.0000
  C   C2113     1.0  0.85425  0.27211  0.46392  1.0000
  C   C2114     1.0  0.83278  0.27277  0.46824  1.0000
  H   H3587     1.0  0.67518  0.37049  0.10619  1.0000
  C   C2115     1.0  0.98566  0.28755  0.40289  1.0000
  C   C2116     1.0  0.71169  0.36017  0.44889  1.0000
  H   H3588     1.0  0.88427  0.26379  0.36932  1.0000
  S   S607      1.0  0.97010  0.36350  0.27356  1.0000
  H   H3589     1.0  0.69502  0.34909  0.12494  1.0000
  C   C2117     1.0  0.70832  0.31052  0.46293  1.0000
  H   H3590     1.0  0.84073  0.44318  0.32424  1.0000
  H   H3591     1.0  0.90378  0.27748  0.37114  1.0000
  H   H3592     1.0  0.69979  0.42718  0.42563  1.0000
  H   H3593     1.0  0.66497  0.41378  0.33200  1.0000
  H   H3594     1.0  0.88302  0.25939  0.44609  1.0000
  C   C2118     1.0  0.93880  0.25940  0.38719  1.0000
  H   H3595     1.0  0.70697  0.32225  0.44887  1.0000
  H   H3596     1.0  0.66701  0.47390  0.44779  1.0000
  H   H3597     1.0  0.98826  0.28507  0.41862  1.0000
  H   H3598     1.0  0.71943  0.45146  0.42210  1.0000
  H   H3599     1.0  0.77628  0.32998  0.45120  1.0000
  C   C2119     1.0  0.81686  0.46178  0.29646  1.0000
  H   H3600     1.0  0.86676  0.23922  0.42880  1.0000
  S   S608      1.0  0.68550  0.46279  0.06844  1.0000
  H   H3601     1.0  0.70698  0.35648  0.08173  1.0000
  H   H3602     1.0  0.80703  0.26175  0.46219  1.0000
  H   H3603     1.0  0.98694  0.32147  0.26661  1.0000
  H   H3604     1.0  0.83906  0.47794  0.13131  1.0000
  H   H3605     1.0  0.66545  0.40882  0.36665  1.0000
  H   H3606     1.0  0.67704  0.40832  0.41826  1.0000
  H   H3607     1.0  0.77453  0.44850  0.31476  1.0000
  C   C2120     1.0  0.79912  0.38923  0.46389  1.0000
  H   H3608     1.0  0.74275  0.32419  0.45024  1.0000
  H   H3609     1.0  0.69083  0.36197  0.06195  1.0000
  C   C2121     1.0  0.67330  0.36332  0.09350  1.0000
  C   C2122     1.0  0.97427  0.36466  0.34455  1.0000
  C   C2123     1.0  0.67132  0.47639  0.33899  1.0000
  H   H3610     1.0  0.70038  0.32387  0.09599  1.0000
  H   H3611     1.0  0.65650  0.45048  0.38717  1.0000
  H   H3612     1.0  0.97538  0.24849  0.33483  1.0000
  H   H3613     1.0  0.97597  0.38069  0.33696  1.0000
  H   H3614     1.0  0.66696  0.30047  0.09449  1.0000
  C   C2124     1.0  0.69344  0.47918  0.09998  1.0000
  H   H3615     1.0  0.69852  0.46972  0.43247  1.0000
  C   C2125     1.0  0.76330  0.33676  0.46241  1.0000
  H   H3616     1.0  0.66345  0.43129  0.47379  1.0000
  C   C2126     1.0  0.65854  0.46411  0.44257  1.0000
  H   H3617     1.0  0.94205  0.23469  0.34661  1.0000
  C   C2127     1.0  0.74517  0.32488  0.46585  1.0000
  H   H3618     1.0  0.70348  0.46880  0.40550  1.0000
  C   C2128     1.0  0.69683  0.47911  0.07876  1.0000
  S   S609      1.0  0.65761  0.41658  0.10675  1.0000
  H   H3619     1.0  0.80847  0.47503  0.28670  1.0000
  C   C2129     1.0  0.71700  0.35555  0.47073  1.0000
  H   H3620     1.0  0.68369  0.45931  0.47277  1.0000
  C   C2130     1.0  0.65637  0.31377  0.08731  1.0000
  Fe  Fe308     1.0  0.65798  0.44857  0.08737  1.0000
  H   H3621     1.0  0.66429  0.47740  0.40910  1.0000
  S   S610      1.0  0.82397  0.38244  0.47029  1.0000
  H   H3622     1.0  0.98707  0.24763  0.29808  1.0000
  Fe  Fe309     1.0  0.69081  0.38675  0.57544  1.0000
  S   S611      1.0  0.70421  0.40461  0.54544  1.0000
  S   S612      1.0  0.70957  0.35904  0.59217  1.0000
  Fe  Fe310     1.0  0.68754  0.43275  0.55897  1.0000
  C   C2131     1.0  0.74539  0.47580  0.85859  1.0000
  C   C2132     1.0  0.90087  0.44916  0.72117  1.0000
  Fe  Fe311     1.0  0.80094  0.42745  0.79934  1.0000
  S   S613      1.0  0.78090  0.44725  0.77718  1.0000
  S   S614      1.0  0.80046  0.39313  0.80686  1.0000
  Fe  Fe312     1.0  0.81991  0.46366  0.80254  1.0000
  H   H3623     1.0  0.86383  0.43971  0.64788  1.0000
  H   H3624     1.0  0.79785  0.44666  0.47598  1.0000
  Fe  Fe313     1.0  0.77510  0.47094  0.79766  1.0000
  H   H3625     1.0  0.79535  0.39899  0.51881  1.0000
  Fe  Fe314     1.0  0.80939  0.46065  0.76209  1.0000
  S   S615      1.0  0.82212  0.46512  0.72828  1.0000
  S   S616      1.0  0.79257  0.44996  0.82146  1.0000
  S   S617      1.0  0.82984  0.43926  0.78262  1.0000
  Fe  Fe315     1.0  0.88266  0.30147  0.84907  1.0000
  S   S618      1.0  0.89653  0.28501  0.87709  1.0000
  S   S619      1.0  0.87846  0.33634  0.84115  1.0000
  Fe  Fe316     1.0  0.88603  0.26115  0.83369  1.0000
  H   H3626     1.0  0.76055  0.45323  0.65544  1.0000
  H   H3627     1.0  0.72867  0.43968  0.51622  1.0000
  Fe  Fe317     1.0  0.82638  0.35300  0.49322  1.0000
  H   H3628     1.0  0.86797  0.31353  0.77772  1.0000
  Fe  Fe318     1.0  0.91923  0.26690  0.85502  1.0000
  S   S620      1.0  0.95388  0.26069  0.85173  1.0000
  S   S621      1.0  0.86052  0.27959  0.85319  1.0000
  S   S622      1.0  0.90675  0.28471  0.82696  1.0000
  H   H3629     1.0  0.92849  0.36822  0.78030  1.0000
  Fe  Fe319     1.0  0.90202  0.40459  0.65830  1.0000
  S   S623      1.0  0.87744  0.39223  0.64905  1.0000
  S   S624      1.0  0.90764  0.43736  0.64741  1.0000
  Fe  Fe320     1.0  0.91778  0.36391  0.68510  1.0000
  S   S625      1.0  0.89468  0.34770  0.67761  1.0000
  S   S626      1.0  0.93789  0.34700  0.70916  1.0000
  Fe  Fe321     1.0  0.90182  0.36415  0.64475  1.0000
  S   S627      1.0  0.90735  0.34996  0.61563  1.0000
  Fe  Fe322     1.0  0.87222  0.37688  0.68217  1.0000
  S   S628      1.0  0.84082  0.37772  0.70174  1.0000
  S   S629      1.0  0.92727  0.37766  0.65168  1.0000
  S   S630      1.0  0.89448  0.39187  0.69199  1.0000
  H   H3630     1.0  0.94093  0.45428  0.75626  1.0000
  C   C2133     1.0  0.77889  0.30037  0.61682  1.0000
  Fe  Fe323     1.0  0.83881  0.33109  0.53459  1.0000
  S   S631      1.0  0.83160  0.30081  0.53062  1.0000
  S   S632      1.0  0.83995  0.34082  0.56501  1.0000
  Fe  Fe324     1.0  0.84663  0.30813  0.49720  1.0000
  Fe  Fe325     1.0  0.80309  0.32000  0.51950  1.0000
  S   S633      1.0  0.77269  0.30883  0.52916  1.0000
  S   S634      1.0  0.85681  0.33664  0.50206  1.0000
  S   S635      1.0  0.80887  0.34955  0.52544  1.0000
  C   C2134     1.0  0.88835  0.34708  0.60204  1.0000
  C   C2135     1.0  0.86719  0.35433  0.60806  1.0000
  C   C2136     1.0  0.85273  0.35243  0.59639  1.0000
  C   C2137     1.0  0.85916  0.34325  0.57859  1.0000
  C   C2138     1.0  0.88031  0.33609  0.57252  1.0000
  C   C2139     1.0  0.89478  0.33798  0.58420  1.0000
  H   H3631     1.0  0.86201  0.36145  0.62166  1.0000
  H   H3632     1.0  0.83645  0.35818  0.60120  1.0000
  H   H3633     1.0  0.88552  0.32893  0.55893  1.0000
  H   H3634     1.0  0.91110  0.33232  0.57938  1.0000
  C   C2140     1.0  0.94848  0.38081  0.71978  1.0000
  H   H3635     1.0  0.94047  0.39039  0.70778  1.0000
  C   C2141     1.0  0.96346  0.28245  0.85370  1.0000
  S   S636      1.0  0.85626  0.24711  0.90757  1.0000
  H   H3636     1.0  0.76803  0.45499  0.50293  1.0000
  H   H3637     1.0  0.80539  0.42135  0.48987  1.0000
  C   C2142     1.0  0.95996  0.31329  0.86845  1.0000
  C   C2143     1.0  0.95205  0.29610  0.86676  1.0000
  H   H3638     1.0  0.88444  0.46460  0.55121  1.0000
  H   H3639     1.0  0.87062  0.48090  0.66514  1.0000
  H   H3640     1.0  0.95095  0.32399  0.87832  1.0000
  H   H3641     1.0  0.93722  0.29331  0.87574  1.0000
  H   H3642     1.0  0.94642  0.31550  0.80739  1.0000
  H   H3643     1.0  0.75117  0.46826  0.87309  1.0000
  H   H3644     1.0  0.82383  0.29082  0.63011  1.0000
  C   C2144     1.0  0.77523  0.41440  0.70733  1.0000
  C   C2145     1.0  0.95262  0.39544  0.81181  1.0000
  C   C2146     1.0  0.77015  0.42811  0.63857  1.0000
  C   C2147     1.0  0.82180  0.37739  0.81702  1.0000
  C   C2148     1.0  0.82277  0.35585  0.82211  1.0000
  C   C2149     1.0  0.83993  0.34301  0.82987  1.0000
  C   C2150     1.0  0.85623  0.35171  0.83237  1.0000
  C   C2151     1.0  0.85518  0.37324  0.82734  1.0000
  C   C2152     1.0  0.83804  0.38605  0.81969  1.0000
  H   H3645     1.0  0.81014  0.34911  0.82019  1.0000
  H   H3646     1.0  0.84055  0.32643  0.83386  1.0000
  H   H3647     1.0  0.86753  0.38013  0.82958  1.0000
  H   H3648     1.0  0.83728  0.40264  0.81609  1.0000
  C   C2153     1.0  0.82664  0.44104  0.72059  1.0000
  C   C2154     1.0  0.81817  0.42454  0.73353  1.0000
  C   C2155     1.0  0.82187  0.40522  0.72743  1.0000
  C   C2156     1.0  0.83480  0.40216  0.70878  1.0000
  C   C2157     1.0  0.84341  0.41860  0.69587  1.0000
  C   C2158     1.0  0.83901  0.43814  0.70159  1.0000
  H   H3649     1.0  0.80874  0.42655  0.74827  1.0000
  H   H3650     1.0  0.81515  0.39255  0.73745  1.0000
  H   H3651     1.0  0.85335  0.41633  0.68139  1.0000
  H   H3652     1.0  0.84538  0.45090  0.69140  1.0000
  H   H3653     1.0  0.92822  0.39413  0.78353  1.0000
  H   H3654     1.0  0.70601  0.35606  0.51387  1.0000
  H   H3655     1.0  0.95547  0.33829  0.79311  1.0000
  C   C2159     1.0  0.72707  0.34530  0.57445  1.0000
  C   C2160     1.0  0.73912  0.35571  0.55744  1.0000
  C   C2161     1.0  0.75344  0.34455  0.54358  1.0000
  C   C2162     1.0  0.75525  0.32302  0.54643  1.0000
  C   C2163     1.0  0.74301  0.31265  0.56326  1.0000
  C   C2164     1.0  0.72924  0.32374  0.57749  1.0000
  H   H3656     1.0  0.73772  0.37229  0.55527  1.0000
  H   H3657     1.0  0.76270  0.35261  0.53044  1.0000
  H   H3658     1.0  0.74440  0.29600  0.56543  1.0000
  H   H3659     1.0  0.71993  0.31568  0.59061  1.0000
  N   N153      1.0  0.89331  0.45318  0.74293  1.0000
  C   C2165     1.0  0.88918  0.43314  0.75684  1.0000
  H   H3660     1.0  0.79126  0.29455  0.56579  1.0000
  C   C2166     1.0  0.89043  0.45317  0.63182  1.0000
  H   H3661     1.0  0.77377  0.27155  0.63741  1.0000
  C   C2167     1.0  0.71664  0.45550  0.59285  1.0000
  H   H3662     1.0  0.84873  0.32095  0.75175  1.0000
  H   H3663     1.0  0.75458  0.43525  0.68849  1.0000
  C   C2168     1.0  0.91971  0.38094  0.78839  1.0000
  C   C2169     1.0  0.94213  0.33266  0.80382  1.0000
  C   C2170     1.0  0.86940  0.32969  0.77811  1.0000
  H   H3664     1.0  0.84020  0.46189  0.62472  1.0000
  H   H3665     1.0  0.70898  0.44218  0.59771  1.0000
  H   H3666     1.0  0.95849  0.40634  0.72749  1.0000
  H   H3667     1.0  0.76244  0.43766  0.62578  1.0000
  C   C2171     1.0  0.89192  0.32853  0.78117  1.0000
  H   H3668     1.0  0.81345  0.33341  0.60295  1.0000
  H   H3669     1.0  0.78757  0.43892  0.55178  1.0000
  H   H3670     1.0  0.78979  0.28549  0.64589  1.0000
  C   C2172     1.0  0.94921  0.35935  0.72370  1.0000
  C   C2173     1.0  0.76888  0.42343  0.68604  1.0000
  H   H3671     1.0  0.92825  0.33595  0.79642  1.0000
  C   C2174     1.0  0.73660  0.47873  0.60079  1.0000
  H   H3672     1.0  0.76755  0.29664  0.60882  1.0000
  C   C2175     1.0  0.92920  0.36863  0.84441  1.0000
  H   H3673     1.0  0.66622  0.36745  0.48075  1.0000
  H   H3674     1.0  0.70239  0.36124  0.48077  1.0000
  H   H3675     1.0  0.74930  0.38238  0.48302  1.0000
  C   C2176     1.0  0.91518  0.37446  0.81214  1.0000
  H   H3676     1.0  0.90346  0.36414  0.81573  1.0000
  H   H3677     1.0  0.87543  0.36890  0.78397  1.0000
  H   H3678     1.0  0.93915  0.25251  0.90535  1.0000
  H   H3679     1.0  0.76185  0.40860  0.71808  1.0000
  H   H3680     1.0  0.90179  0.32422  0.72182  1.0000
  C   C2177     1.0  0.82706  0.30573  0.62056  1.0000
  H   H3681     1.0  0.91392  0.46982  0.61303  1.0000
  H   H3682     1.0  0.90481  0.38620  0.78268  1.0000
  H   H3683     1.0  0.77096  0.46312  0.54473  1.0000
  C   C2178     1.0  0.86961  0.45100  0.63518  1.0000
  H   H3684     1.0  0.77931  0.42617  0.71436  1.0000
  H   H3685     1.0  0.92645  0.38556  0.84442  1.0000
  C   C2179     1.0  0.77787  0.46625  0.68396  1.0000
  H   H3686     1.0  0.74595  0.44013  0.49148  1.0000
  H   H3687     1.0  0.79712  0.40162  0.66119  1.0000
  H   H3688     1.0  0.71667  0.33554  0.53202  1.0000
  H   H3689     1.0  0.72327  0.48066  0.90063  1.0000
  C   C2180     1.0  0.80988  0.29540  0.58894  1.0000
  H   H3690     1.0  0.94996  0.28698  0.93624  1.0000
  H   H3691     1.0  0.77908  0.35293  0.60549  1.0000
  H   H3692     1.0  0.87130  0.45551  0.70949  1.0000
  S   S637      1.0  0.67580  0.41471  0.58971  1.0000
  C   C2181     1.0  0.98296  0.28586  0.84260  1.0000
  H   H3693     1.0  0.87343  0.35557  0.72721  1.0000
  H   H3694     1.0  0.86665  0.41843  0.61087  1.0000
  N   N154      1.0  0.77117  0.42554  0.52394  1.0000
  H   H3695     1.0  0.87975  0.42851  0.71963  1.0000
  H   H3696     1.0  0.74978  0.42582  0.55330  1.0000
  H   H3697     1.0  0.76573  0.35819  0.58428  1.0000
  C   C2182     1.0  0.85505  0.36603  0.76363  1.0000
  H   H3698     1.0  0.93204  0.27473  0.92900  1.0000
  H   H3699     1.0  0.78430  0.41854  0.63130  1.0000
  C   C2183     1.0  0.75887  0.43625  0.54136  1.0000
  C   C2184     1.0  0.88520  0.43333  0.78026  1.0000
  C   C2185     1.0  0.97889  0.31734  0.85638  1.0000
  C   C2186     1.0  0.92679  0.38365  0.56679  1.0000
  C   C2187     1.0  0.86350  0.41742  0.59570  1.0000
  S   S638      1.0  0.81748  0.32537  0.48626  1.0000
  C   C2188     1.0  0.71161  0.33912  0.51682  1.0000
  H   H3700     1.0  0.79147  0.44816  0.51269  1.0000
  H   H3701     1.0  0.76384  0.41071  0.68120  1.0000
  H   H3702     1.0  0.95733  0.36986  0.79563  1.0000
  S   S639      1.0  0.70379  0.46049  0.55499  1.0000
  C   C2189     1.0  0.93730  0.34106  0.82412  1.0000
  H   H3703     1.0  0.83982  0.34668  0.73987  1.0000
  S   S640      1.0  0.67576  0.39268  0.50574  1.0000
  H   H3704     1.0  0.89937  0.34186  0.77305  1.0000
  H   H3705     1.0  0.81135  0.27289  0.56952  1.0000
  H   H3706     1.0  0.73784  0.31668  0.50634  1.0000
  H   H3707     1.0  0.69334  0.32856  0.48647  1.0000
  H   H3708     1.0  0.69859  0.33079  0.51852  1.0000
  H   H3709     1.0  0.95274  0.24763  0.94909  1.0000
  C   C2190     1.0  0.78022  0.44151  0.50714  1.0000
  H   H3710     1.0  0.76574  0.40512  0.50553  1.0000
  H   H3711     1.0  0.96434  0.40148  0.79893  1.0000
  C   C2191     1.0  0.96982  0.37748  0.74609  1.0000
  S   S641      1.0  0.84413  0.47179  0.81649  1.0000
  H   H3712     1.0  0.89079  0.31049  0.74600  1.0000
  C   C2192     1.0  0.77123  0.44659  0.55200  1.0000
  S   S642      1.0  0.66236  0.38390  0.56461  1.0000
  H   H3713     1.0  0.78813  0.40098  0.70669  1.0000
  H   H3714     1.0  0.87415  0.44165  0.55344  1.0000
  C   C2193     1.0  0.89783  0.46808  0.61564  1.0000
  H   H3715     1.0  0.93893  0.44461  0.73424  1.0000
  C   C2194     1.0  0.77098  0.34581  0.59682  1.0000
  H   H3716     1.0  0.90763  0.36692  0.87350  1.0000
  H   H3717     1.0  0.77520  0.32189  0.57920  1.0000
  H   H3718     1.0  0.84204  0.36661  0.77695  1.0000
  C   C2195     1.0  0.84439  0.33722  0.75447  1.0000
  H   H3719     1.0  0.93503  0.23347  0.92797  1.0000
  H   H3720     1.0  0.80195  0.41562  0.53229  1.0000
  H   H3721     1.0  0.80549  0.45479  0.66406  1.0000
  H   H3722     1.0  0.76636  0.46114  0.69751  1.0000
  H   H3723     1.0  0.67223  0.45439  0.60756  1.0000
  C   C2196     1.0  0.78512  0.32769  0.58712  1.0000
  H   H3724     1.0  0.84887  0.37621  0.75014  1.0000
  C   C2197     1.0  0.97000  0.35616  0.75042  1.0000
  H   H3725     1.0  0.79687  0.33443  0.57463  1.0000
  H   H3726     1.0  0.93638  0.38052  0.57903  1.0000
  C   C2198     1.0  0.82455  0.33780  0.77110  1.0000
  H   H3727     1.0  0.77790  0.40217  0.56451  1.0000
  C   C2199     1.0  0.70919  0.31987  0.48171  1.0000
  H   H3728     1.0  0.85095  0.40813  0.59867  1.0000
  N   N155      1.0  0.90222  0.41575  0.57870  1.0000
  C   C2200     1.0  0.88268  0.40678  0.58213  1.0000
  C   C2201     1.0  0.91746  0.40680  0.56154  1.0000
  C   C2202     1.0  0.89796  0.43896  0.57273  1.0000
  C   C2203     1.0  0.91067  0.41036  0.59858  1.0000
  H   H3729     1.0  0.96019  0.33058  0.74263  1.0000
  H   H3730     1.0  0.83978  0.30291  0.60735  1.0000
  C   C2204     1.0  0.88857  0.44745  0.55294  1.0000
  C   C2205     1.0  0.93143  0.41722  0.59792  1.0000
  H   H3731     1.0  0.87801  0.40672  0.56724  1.0000
  H   H3732     1.0  0.88546  0.39021  0.58951  1.0000
  H   H3733     1.0  0.93049  0.41555  0.55568  1.0000
  H   H3734     1.0  0.90999  0.40842  0.54787  1.0000
  H   H3735     1.0  0.88747  0.44604  0.58545  1.0000
  H   H3736     1.0  0.91244  0.44542  0.57037  1.0000
  H   H3737     1.0  0.89954  0.41768  0.61081  1.0000
  H   H3738     1.0  0.91207  0.39353  0.60510  1.0000
  C   C2206     1.0  0.78235  0.38148  0.47717  1.0000
  H   H3739     1.0  0.81976  0.28313  0.59814  1.0000
  H   H3740     1.0  0.76906  0.31154  0.62650  1.0000
  H   H3741     1.0  0.89192  0.32745  0.79785  1.0000
  N   N156      1.0  0.86249  0.34423  0.75943  1.0000
  C   C2207     1.0  0.88722  0.32332  0.73321  1.0000
  H   H3742     1.0  0.96396  0.24246  0.81331  1.0000
  H   H3743     1.0  0.74147  0.34290  0.49942  1.0000
  H   H3744     1.0  0.89937  0.43443  0.78569  1.0000
  H   H3745     1.0  0.92875  0.43319  0.60122  1.0000
  H   H3746     1.0  0.94224  0.41649  0.58313  1.0000
  H   H3747     1.0  0.93974  0.40653  0.60974  1.0000
  N   N157      1.0  0.78522  0.43225  0.66945  1.0000
  Fe  Fe326     1.0  0.67441  0.40400  0.53543  1.0000
  H   H3748     1.0  0.67306  0.26300  0.48410  1.0000
  C   C2208     1.0  0.79386  0.44796  0.67657  1.0000
  C   C2209     1.0  0.80274  0.41487  0.66442  1.0000
  C   C2210     1.0  0.87093  0.37664  0.76892  1.0000
  S   S643      1.0  0.90079  0.24153  0.85979  1.0000
  C   C2211     1.0  0.82060  0.42083  0.64692  1.0000
  H   H3749     1.0  0.84020  0.23407  0.84457  1.0000
  H   H3750     1.0  0.79676  0.38225  0.55415  1.0000
  H   H3751     1.0  0.78510  0.45306  0.63987  1.0000
  H   H3752     1.0  0.93712  0.37861  0.55287  1.0000
  C   C2212     1.0  0.78624  0.28105  0.63222  1.0000
  H   H3753     1.0  0.76411  0.44583  0.56856  1.0000
  H   H3754     1.0  0.81024  0.40785  0.67807  1.0000
  C   C2213     1.0  0.72615  0.46169  0.60681  1.0000
  H   H3755     1.0  0.90190  0.31403  0.77696  1.0000
  H   H3756     1.0  0.74543  0.46321  0.85019  1.0000
  N   N158      1.0  0.79556  0.31032  0.60180  1.0000
  H   H3757     1.0  0.89991  0.44387  0.53902  1.0000
  H   H3758     1.0  0.85891  0.33361  0.79241  1.0000
  H   H3759     1.0  0.93736  0.40521  0.80992  1.0000
  H   H3760     1.0  0.83238  0.42591  0.65313  1.0000
  H   H3761     1.0  0.81546  0.43320  0.63441  1.0000
  H   H3762     1.0  0.82810  0.40719  0.63948  1.0000
  H   H3763     1.0  0.82773  0.32990  0.78660  1.0000
  S   S644      1.0  0.65871  0.43413  0.54571  1.0000
  C   C2214     1.0  0.95871  0.38981  0.73096  1.0000
  Fe  Fe327     1.0  0.87662  0.26127  0.87923  1.0000
  N   N159      1.0  0.93352  0.36427  0.82264  1.0000
  C   C2215     1.0  0.95311  0.37228  0.81186  1.0000
  H   H3764     1.0  0.92369  0.33433  0.83324  1.0000
  H   H3765     1.0  0.90693  0.38875  0.81826  1.0000
  C   C2216     1.0  0.80768  0.31963  0.61298  1.0000
  C   C2217     1.0  0.88496  0.44306  0.71109  1.0000
  H   H3766     1.0  0.97833  0.34664  0.76215  1.0000
  H   H3767     1.0  0.82110  0.30363  0.57711  1.0000
  H   H3768     1.0  0.79752  0.32559  0.62659  1.0000
  H   H3769     1.0  0.81622  0.35390  0.77178  1.0000
  C   C2218     1.0  0.85624  0.46367  0.62223  1.0000
  C   C2219     1.0  0.98103  0.24651  0.89959  1.0000
  H   H3770     1.0  0.95043  0.33387  0.83232  1.0000
  C   C2220     1.0  0.75685  0.41541  0.51641  1.0000
  C   C2221     1.0  0.77533  0.44269  0.65088  1.0000
  C   C2222     1.0  0.95973  0.34715  0.73933  1.0000
  S   S645      1.0  0.98670  0.34088  0.85543  1.0000
  H   H3771     1.0  0.96650  0.36332  0.81916  1.0000
  H   H3772     1.0  0.95409  0.28200  0.91042  1.0000
  C   C2223     1.0  0.78285  0.39405  0.55110  1.0000
  H   H3773     1.0  0.79978  0.27055  0.62539  1.0000
  H   H3774     1.0  0.89289  0.35005  0.74225  1.0000
  H   H3775     1.0  0.72539  0.45319  0.62243  1.0000
  H   H3776     1.0  0.77068  0.38560  0.55014  1.0000
  H   H3777     1.0  0.95673  0.39739  0.82633  1.0000
  H   H3778     1.0  0.89231  0.44036  0.69525  1.0000
  H   H3779     1.0  0.88469  0.37779  0.75657  1.0000
  H   H3780     1.0  0.94292  0.36186  0.85212  1.0000
  H   H3781     1.0  0.89585  0.36684  0.85217  1.0000
  H   H3782     1.0  0.78475  0.37083  0.49127  1.0000
  H   H3783     1.0  0.86339  0.39273  0.77078  1.0000
  H   H3784     1.0  0.91446  0.43631  0.72055  1.0000
  C   C2224     1.0  0.73024  0.33261  0.50018  1.0000
  C   C2225     1.0  0.96160  0.25440  0.93411  1.0000
  C   C2226     1.0  0.79929  0.28390  0.57772  1.0000
  H   H3785     1.0  0.88021  0.41863  0.78879  1.0000
  H   H3786     1.0  0.87530  0.42852  0.75369  1.0000
  H   H3787     1.0  0.78620  0.47649  0.68891  1.0000
  C   C2227     1.0  0.87916  0.34438  0.74043  1.0000
  H   H3788     1.0  0.91257  0.34383  0.86312  1.0000
  H   H3789     1.0  0.74895  0.40499  0.52937  1.0000
  S   S646      1.0  0.98334  0.38922  0.75913  1.0000
  H   H3790     1.0  0.81366  0.32962  0.76695  1.0000
  H   H3791     1.0  0.87260  0.44598  0.78483  1.0000
  S   S647      1.0  0.87881  0.24882  0.80813  1.0000
  C   C2228     1.0  0.78864  0.40891  0.53078  1.0000
  H   H3792     1.0  0.74667  0.44891  0.53568  1.0000
  H   H3793     1.0  0.85733  0.43316  0.58795  1.0000
  C   C2229     1.0  0.91019  0.36095  0.85884  1.0000
  H   H3794     1.0  0.91460  0.37390  0.57143  1.0000
  H   H3795     1.0  0.75673  0.34105  0.60679  1.0000
  C   C2230     1.0  0.73964  0.43008  0.50571  1.0000
  H   H3796     1.0  0.87600  0.31954  0.72519  1.0000
  H   H3797     1.0  0.97205  0.25621  0.88787  1.0000
  H   H3798     1.0  0.75930  0.41806  0.64817  1.0000
  H   H3799     1.0  0.73044  0.42056  0.50086  1.0000
  C   C2231     1.0  0.87342  0.46878  0.74448  1.0000
  H   H3800     1.0  0.78840  0.27459  0.58851  1.0000
  H   H3801     1.0  0.83301  0.31393  0.63017  1.0000
  C   C2232     1.0  0.71687  0.46668  0.57279  1.0000
  C   C2233     1.0  0.94873  0.27572  0.92682  1.0000
  H   H3802     1.0  0.80258  0.44046  0.68925  1.0000
  H   H3803     1.0  0.86025  0.46209  0.74261  1.0000
  H   H3804     1.0  0.92954  0.43177  0.75996  1.0000
  C   C2234     1.0  0.79181  0.43366  0.48714  1.0000
  H   H3805     1.0  0.71156  0.30630  0.49432  1.0000
  H   H3806     1.0  0.76983  0.47580  0.67143  1.0000
  C   C2235     1.0  0.90964  0.46160  0.74935  1.0000
  H   H3807     1.0  0.83131  0.24420  0.86793  1.0000
  H   H3808     1.0  0.85807  0.23375  0.86148  1.0000
  H   H3809     1.0  0.90214  0.42014  0.75364  1.0000
  C   C2236     1.0  0.93079  0.44699  0.74993  1.0000
  H   H3810     1.0  0.69424  0.43438  0.48512  1.0000
  N   N160      1.0  0.96666  0.23944  0.91918  1.0000
  H   H3811     1.0  0.65614  0.28164  0.49774  1.0000
  H   H3812     1.0  0.78151  0.42800  0.47954  1.0000
  N   N161      1.0  0.72534  0.33337  0.47911  1.0000
  H   H3813     1.0  0.90660  0.46285  0.71086  1.0000
  C   C2237     1.0  0.94645  0.23749  0.91375  1.0000
  C   C2238     1.0  0.65669  0.26742  0.49155  1.0000
  S   S648      1.0  0.86635  0.28603  0.47631  1.0000
  C   C2239     1.0  0.65698  0.46194  0.61532  1.0000
  H   H3814     1.0  0.88647  0.47637  0.81209  1.0000
  H   H3815     1.0  0.90400  0.46628  0.76473  1.0000
  H   H3816     1.0  0.65895  0.45965  0.57667  1.0000
  H   H3817     1.0  0.97583  0.25733  0.93809  1.0000
  H   H3818     1.0  0.91301  0.47607  0.73869  1.0000
  H   H3819     1.0  0.96139  0.23844  0.77886  1.0000
  H   H3820     1.0  0.71275  0.47676  0.87023  1.0000
  C   C2240     1.0  0.88468  0.48032  0.60240  1.0000
  H   H3821     1.0  0.93619  0.24386  0.79395  1.0000
  H   H3822     1.0  0.66042  0.46842  0.62784  1.0000
  H   H3823     1.0  0.82322  0.28170  0.47949  1.0000
  H   H3824     1.0  0.76955  0.33527  0.47675  1.0000
  C   C2241     1.0  0.86388  0.47814  0.60563  1.0000
  H   H3825     1.0  0.86894  0.47289  0.76011  1.0000
  H   H3826     1.0  0.73006  0.51407  0.06285  1.0000
  H   H3827     1.0  0.65662  0.57297  0.14127  1.0000
  H   H3828     1.0  0.84605  0.54099  0.13881  1.0000
  H   H3829     1.0  0.87010  0.64417  0.05262  1.0000
  C   C2242     1.0  0.87713  0.67964  0.02731  1.0000
  Fe  Fe328     1.0  0.90731  0.64644  0.13813  1.0000
  S   S649      1.0  0.89356  0.63779  0.11435  1.0000
  S   S650      1.0  0.90104  0.67761  0.14735  1.0000
  Fe  Fe329     1.0  0.93172  0.60360  0.14982  1.0000
  S   S651      1.0  0.91993  0.59059  0.12711  1.0000
  S   S652      1.0  0.95546  0.58462  0.16926  1.0000
  Fe  Fe330     1.0  0.92554  0.62014  0.10565  1.0000
  S   S653      1.0  0.93913  0.61935  0.07239  1.0000
  Fe  Fe331     1.0  0.88859  0.60903  0.13742  1.0000
  S   S654      1.0  0.85701  0.59910  0.14406  1.0000
  S   S655      1.0  0.93988  0.63154  0.12729  1.0000
  S   S656      1.0  0.89980  0.61927  0.16235  1.0000
  Fe  Fe332     1.0  0.74903  0.54203  0.08506  1.0000
  S   S657      1.0  0.75603  0.56669  0.09948  1.0000
  Fe  Fe333     1.0  0.76808  0.56106  0.04206  1.0000
  S   S658      1.0  0.77572  0.58749  0.05252  1.0000
  S   S659      1.0  0.77392  0.56028  0.00827  1.0000
  Fe  Fe334     1.0  0.78703  0.56359  0.07829  1.0000
  S   S660      1.0  0.82004  0.56370  0.08184  1.0000
  Fe  Fe335     1.0  0.74448  0.58849  0.07249  1.0000
  S   S661      1.0  0.72084  0.61727  0.07545  1.0000
  S   S662      1.0  0.78127  0.53661  0.06640  1.0000
  S   S663      1.0  0.73555  0.56429  0.05958  1.0000
  C   C2243     1.0  0.81519  0.68589  0.00158  1.0000
  C   C2244     1.0  0.90292  0.69338  0.03868  1.0000
  C   C2245     1.0  0.94145  0.63118  0.25582  1.0000
  H   H3830     1.0  0.66091  0.55496  0.09600  1.0000
  H   H3831     1.0  0.81712  0.49315  0.10728  1.0000
  H   H3832     1.0  0.67202  0.65445  0.02982  1.0000
  H   H3833     1.0  0.78373  0.52908  0.12142  1.0000
  C   C2246     1.0  0.95586  0.63697  0.06082  1.0000
  C   C2247     1.0  0.95908  0.65149  0.07143  1.0000
  H   H3834     1.0  0.95113  0.65214  0.08701  1.0000
  C   C2248     1.0  0.84659  0.59148  0.12531  1.0000
  C   C2249     1.0  0.82513  0.59163  0.12835  1.0000
  C   C2250     1.0  0.81649  0.58433  0.11451  1.0000
  C   C2251     1.0  0.82938  0.57624  0.09780  1.0000
  C   C2252     1.0  0.85079  0.57636  0.09461  1.0000
  C   C2253     1.0  0.85934  0.58414  0.10815  1.0000
  H   H3835     1.0  0.81516  0.59727  0.14161  1.0000
  H   H3836     1.0  0.80001  0.58427  0.11720  1.0000
  H   H3837     1.0  0.86090  0.57006  0.08178  1.0000
  H   H3838     1.0  0.87588  0.58383  0.10569  1.0000
  H   H3839     1.0  0.94339  0.71403  0.07863  1.0000
  H   H3840     1.0  0.76821  0.63809  0.99095  1.0000
  H   H3841     1.0  0.70014  0.61216  0.98109  1.0000
  C   C2254     1.0  0.96516  0.61850  0.18019  1.0000
  C   C2255     1.0  0.96790  0.59691  0.18277  1.0000
  H   H3842     1.0  0.92276  0.60924  0.19700  1.0000
  H   H3843     1.0  0.86656  0.64428  0.07934  1.0000
  C   C2256     1.0  0.96005  0.72886  0.05065  1.0000
  H   H3844     1.0  0.95577  0.62800  0.16926  1.0000
  H   H3845     1.0  0.81568  0.63241  0.04285  1.0000
  C   C2257     1.0  0.78247  0.63892  0.04991  1.0000
  H   H3846     1.0  0.78114  0.50840  0.10998  1.0000
  C   C2258     1.0  0.82665  0.58462  0.99408  1.0000
  H   H3847     1.0  0.68881  0.57426  0.14418  1.0000
  H   H3848     1.0  0.90141  0.65992  0.06964  1.0000
  C   C2259     1.0  0.88402  0.71603  0.09592  1.0000
  C   C2260     1.0  0.70238  0.64500  0.01261  1.0000
  C   C2261     1.0  0.72270  0.63493  0.01390  1.0000
  C   C2262     1.0  0.72834  0.62618  0.03319  1.0000
  C   C2263     1.0  0.71391  0.62832  0.05128  1.0000
  C   C2264     1.0  0.69368  0.63880  0.05001  1.0000
  C   C2265     1.0  0.68781  0.64678  0.03068  1.0000
  H   H3849     1.0  0.70262  0.57868  0.09707  1.0000
  H   H3850     1.0  0.74387  0.61787  0.03407  1.0000
  H   H3851     1.0  0.68239  0.64034  0.06394  1.0000
  H   H3852     1.0  0.90495  0.64428  0.02908  1.0000
  H   H3853     1.0  0.72478  0.56954  0.01470  1.0000
  H   H3854     1.0  0.95246  0.63939  0.25976  1.0000
  C   C2266     1.0  0.87730  0.71534  0.13849  1.0000
  C   C2267     1.0  0.88929  0.69822  0.13041  1.0000
  H   H3855     1.0  0.91052  0.67016  0.99635  1.0000
  H   H3856     1.0  0.77814  0.62179  0.01259  1.0000
  H   H3857     1.0  0.84873  0.62134  0.01700  1.0000
  H   H3858     1.0  0.70360  0.55427  0.12968  1.0000
  H   H3859     1.0  0.93486  0.70638  0.11250  1.0000
  C   C2268     1.0  0.79433  0.57324  0.99502  1.0000
  H   H3860     1.0  0.78551  0.50298  0.13586  1.0000
  S   S664      1.0  0.88071  0.73159  0.99238  1.0000
  H   H3861     1.0  0.89050  0.63073  0.06662  1.0000
  C   C2269     1.0  0.85691  0.69199  0.03767  1.0000
  H   H3862     1.0  0.67597  0.53991  0.13758  1.0000
  N   N162      1.0  0.89483  0.67392  0.03921  1.0000
  C   C2270     1.0  0.82455  0.64139  0.00081  1.0000
  H   H3863     1.0  0.92373  0.65215  0.03888  1.0000
  H   H3864     1.0  0.80366  0.61824  0.03111  1.0000
  H   H3865     1.0  0.73387  0.63327  0.99998  1.0000
  H   H3866     1.0  0.71276  0.49195  0.04904  1.0000
  H   H3867     1.0  0.84603  0.49128  0.14761  1.0000
  H   H3868     1.0  0.98136  0.60847  0.13444  1.0000
  H   H3869     1.0  0.68585  0.58010  0.99417  1.0000
  H   H3870     1.0  0.91750  0.67917  0.21074  1.0000
  C   C2271     1.0  0.87854  0.63247  0.23875  1.0000
  H   H3871     1.0  0.87005  0.70792  0.46430  1.0000
  C   C2272     1.0  0.97418  0.62783  0.19210  1.0000
  H   H3872     1.0  0.78938  0.66390  0.98906  1.0000
  H   H3873     1.0  0.98594  0.65106  0.01452  1.0000
  C   C2273     1.0  0.92594  0.61279  0.22779  1.0000
  S   S665      1.0  0.69490  0.65412  0.98841  1.0000
  H   H3874     1.0  0.68759  0.55035  0.09767  1.0000
  H   H3875     1.0  0.67810  0.57241  0.06592  1.0000
  H   H3876     1.0  0.94303  0.61024  0.22246  1.0000
  H   H3877     1.0  0.76851  0.63823  0.04386  1.0000
  H   H3878     1.0  0.84488  0.64792  0.02005  1.0000
  H   H3879     1.0  0.87076  0.72628  0.43327  1.0000
  H   H3880     1.0  0.66313  0.60896  0.08977  1.0000
  H   H3881     1.0  0.71396  0.57658  0.12965  1.0000
  H   H3882     1.0  0.89345  0.65386  0.24786  1.0000
  C   C2274     1.0  0.78194  0.63347  0.99872  1.0000
  C   C2275     1.0  0.81042  0.57421  0.00489  1.0000
  H   H3883     1.0  0.66353  0.60933  0.13466  1.0000
  H   H3884     1.0  0.81055  0.56662  0.02073  1.0000
  C   C2276     1.0  0.91524  0.64760  0.20759  1.0000
  H   H3885     1.0  0.65865  0.56279  0.03267  1.0000
  H   H3886     1.0  0.66420  0.54985  0.22479  1.0000
  C   C2277     1.0  0.67684  0.58839  0.06856  1.0000
  H   H3887     1.0  0.85938  0.70664  0.04109  1.0000
  C   C2278     1.0  0.96563  0.63680  0.04034  1.0000
  H   H3888     1.0  0.79097  0.67792  0.02662  1.0000
  H   H3889     1.0  0.92091  0.68361  0.06425  1.0000
  H   H3890     1.0  0.70123  0.49093  0.12427  1.0000
  C   C2279     1.0  0.66701  0.54000  0.12553  1.0000
  C   C2280     1.0  0.83268  0.53457  0.14891  1.0000
  H   H3891     1.0  0.81606  0.66792  0.03211  1.0000
  H   H3892     1.0  0.70058  0.56154  0.02715  1.0000
  H   H3893     1.0  0.83816  0.52126  0.16049  1.0000
  H   H3894     1.0  0.97163  0.64454  0.19028  1.0000
  C   C2281     1.0  0.80264  0.63402  0.03443  1.0000
  C   C2282     1.0  0.80656  0.67008  0.01987  1.0000
  C   C2283     1.0  0.78695  0.65298  0.00391  1.0000
  H   H3895     1.0  0.78287  0.62705  0.06417  1.0000
  H   H3896     1.0  0.98219  0.58925  0.11049  1.0000
  H   H3897     1.0  0.92883  0.62960  0.26933  1.0000
  C   C2284     1.0  0.71683  0.50410  0.09453  1.0000
  H   H3898     1.0  0.87723  0.67613  0.07013  1.0000
  H   H3899     1.0  0.93264  0.71670  0.13522  1.0000
  H   H3900     1.0  0.87239  0.50600  0.08687  1.0000
  H   H3901     1.0  0.91580  0.72930  0.11737  1.0000
  C   C2285     1.0  0.78967  0.51247  0.12060  1.0000
  H   H3902     1.0  0.66570  0.48939  0.32781  1.0000
  H   H3903     1.0  0.68969  0.59959  0.10972  1.0000
  C   C2286     1.0  0.71979  0.50450  0.07326  1.0000
  H   H3904     1.0  0.84962  0.68267  0.05193  1.0000
  H   H3905     1.0  0.83914  0.58521  0.00170  1.0000
  N   N163      1.0  0.82773  0.51088  0.12525  1.0000
  H   H3906     1.0  0.78080  0.65414  0.05457  1.0000
  C   C2287     1.0  0.81862  0.52898  0.13628  1.0000
  H   H3907     1.0  0.98145  0.61251  0.09264  1.0000
  C   C2288     1.0  0.97850  0.65116  0.03041  1.0000
  S   S666      1.0  0.65856  0.61709  0.01183  1.0000
  H   H3908     1.0  0.92376  0.58606  0.21546  1.0000
  C   C2289     1.0  0.88796  0.66459  0.06138  1.0000
  H   H3909     1.0  0.96307  0.62567  0.03206  1.0000
  H   H3910     1.0  0.84549  0.53155  0.10252  1.0000
  C   C2290     1.0  0.92177  0.66572  0.00713  1.0000
  H   H3911     1.0  0.79458  0.62626  0.98764  1.0000
  H   H3912     1.0  0.81419  0.54303  0.12493  1.0000
  H   H3913     1.0  0.81482  0.52007  0.09707  1.0000
  H   H3914     1.0  0.80386  0.52685  0.14685  1.0000
  H   H3915     1.0  0.80674  0.68886  0.98848  1.0000
  H   H3916     1.0  0.98264  0.56807  0.19885  1.0000
  C   C2291     1.0  0.69052  0.58273  0.11036  1.0000
  C   C2292     1.0  0.91136  0.65819  0.02941  1.0000
  H   H3917     1.0  0.90209  0.68531  0.10276  1.0000
  H   H3918     1.0  0.86172  0.48473  0.10300  1.0000
  H   H3919     1.0  0.92352  0.60309  0.24342  1.0000
  C   C2293     1.0  0.87834  0.64484  0.06496  1.0000
  H   H3920     1.0  0.92726  0.65979  0.23942  1.0000
  H   H3921     1.0  0.84549  0.72104  0.47378  1.0000
  H   H3922     1.0  0.83196  0.68085  0.99609  1.0000
  H   H3923     1.0  0.95036  0.61568  0.25340  1.0000
  H   H3924     1.0  0.84565  0.69640  0.02685  1.0000
  H   H3925     1.0  0.89985  0.62803  0.25930  1.0000
  C   C2294     1.0  0.91739  0.60293  0.21340  1.0000
  H   H3926     1.0  0.92989  0.67878  0.00604  1.0000
  C   C2295     1.0  0.69940  0.57114  0.12973  1.0000
  C   C2296     1.0  0.70996  0.49194  0.06546  1.0000
  C   C2297     1.0  0.89261  0.69845  0.10907  1.0000
  H   H3927     1.0  0.93372  0.65284  0.00178  1.0000
  H   H3928     1.0  0.82345  0.62611  0.99775  1.0000
  H   H3929     1.0  0.92272  0.72011  0.45788  1.0000
  H   H3930     1.0  0.88171  0.68923  0.01206  1.0000
  H   H3931     1.0  0.87329  0.66579  0.02341  1.0000
  H   H3932     1.0  0.84774  0.50227  0.08400  1.0000
  H   H3933     1.0  0.88665  0.71641  0.07949  1.0000
  H   H3934     1.0  0.90576  0.70220  0.02267  1.0000
  C   C2298     1.0  0.70782  0.57303  0.01487  1.0000
  N   N164      1.0  0.91766  0.63542  0.22880  1.0000
  C   C2299     1.0  0.89774  0.63793  0.24415  1.0000
  H   H3935     1.0  0.97480  0.67682  0.06981  1.0000
  H   H3936     1.0  0.90496  0.64159  0.20027  1.0000
  H   H3937     1.0  0.89107  0.70413  0.04739  1.0000
  S   S667      1.0  0.72967  0.51881  0.10521  1.0000
  H   H3938     1.0  0.82628  0.65112  0.98514  1.0000
  N   N165      1.0  0.80521  0.64961  0.01477  1.0000
  H   H3939     1.0  0.82367  0.54704  0.15741  1.0000
  H   H3940     1.0  0.70166  0.58853  0.01925  1.0000
  C   C2300     1.0  0.92294  0.69045  0.04763  1.0000
  H   H3941     1.0  0.87768  0.61583  0.24445  1.0000
  H   H3942     1.0  0.87480  0.71527  0.15491  1.0000
  H   H3943     1.0  0.86432  0.64188  0.24621  1.0000
  C   C2301     1.0  0.70229  0.57223  0.99394  1.0000
  C   C2302     1.0  0.84775  0.51553  0.11144  1.0000
  C   C2303     1.0  0.90674  0.67097  0.20648  1.0000
  H   H3944     1.0  0.92718  0.70585  0.04624  1.0000
  H   H3945     1.0  0.85787  0.64082  0.99608  1.0000
  H   H3946     1.0  0.77256  0.66060  0.01301  1.0000
  H   H3947     1.0  0.93040  0.64599  0.19692  1.0000
  H   H3948     1.0  0.85986  0.51501  0.12068  1.0000
  C   C2304     1.0  0.95525  0.72425  0.07448  1.0000
  H   H3949     1.0  0.93627  0.68113  0.03898  1.0000
  H   H3950     1.0  0.90033  0.60464  0.21646  1.0000
  C   C2305     1.0  0.84505  0.63768  0.00915  1.0000
  H   H3951     1.0  0.81358  0.70094  0.00667  1.0000
  H   H3952     1.0  0.89112  0.67398  0.21600  1.0000
  H   H3953     1.0  0.94744  0.64528  0.22396  1.0000
  H   H3954     1.0  0.72371  0.60335  0.99092  1.0000
  H   H3955     1.0  0.69256  0.59195  0.06696  1.0000
  C   C2306     1.0  0.93349  0.64385  0.23616  1.0000
  H   H3956     1.0  0.90508  0.67797  0.19029  1.0000
  C   C2307     1.0  0.93181  0.72107  0.11852  1.0000
  H   H3957     1.0  0.87768  0.63630  0.22214  1.0000
  Fe  Fe336     1.0  0.66314  0.64723  0.99168  1.0000
  H   H3958     1.0  0.74772  0.57620  0.98032  1.0000
  C   C2308     1.0  0.81522  0.48364  0.15675  1.0000
  H   H3959     1.0  0.66971  0.59905  0.05591  1.0000
  C   C2309     1.0  0.90726  0.71581  0.46457  1.0000
  H   H3960     1.0  0.80428  0.49625  0.16347  1.0000
  H   H3961     1.0  0.67108  0.52430  0.12138  1.0000
  H   H3962     1.0  0.70202  0.55584  0.99365  1.0000
  N   N166      1.0  0.66988  0.57841  0.10849  1.0000
  H   H3963     1.0  0.96399  0.71398  0.04481  1.0000
  C   C2310     1.0  0.67180  0.55616  0.10589  1.0000
  H   H3964     1.0  0.73842  0.54265  0.99728  1.0000
  H   H3965     1.0  0.96959  0.71456  0.07964  1.0000
  H   H3966     1.0  0.90191  0.71109  0.45215  1.0000
  C   C2311     1.0  0.81314  0.50874  0.11180  1.0000
  H   H3967     1.0  0.96336  0.72627  0.11067  1.0000
  C   C2312     1.0  0.98211  0.66537  0.04111  1.0000
  C   C2313     1.0  0.85769  0.50109  0.09559  1.0000
  C   C2314     1.0  0.98038  0.58478  0.19680  1.0000
  C   C2315     1.0  0.97242  0.66556  0.06164  1.0000
  C   C2316     1.0  0.70352  0.49148  0.10780  1.0000
  C   C2317     1.0  0.66325  0.59243  0.08940  1.0000
  C   C2318     1.0  0.86342  0.72565  0.97830  1.0000
  H   H3968     1.0  0.97555  0.58304  0.07913  1.0000
  C   C2319     1.0  0.83294  0.49098  0.13995  1.0000
  H   H3969     1.0  0.65992  0.51693  0.04807  1.0000
  C   C2320     1.0  0.74142  0.54640  0.98020  1.0000
  C   C2321     1.0  0.71626  0.60354  0.97759  1.0000
  C   C2322     1.0  0.98585  0.61570  0.20683  1.0000
  H   H3970     1.0  0.65576  0.65497  0.32002  1.0000
  C   C2323     1.0  0.86831  0.73250  0.12553  1.0000
  Fe  Fe337     1.0  0.87841  0.56441  0.74755  1.0000
  S   S668      1.0  0.84396  0.57082  0.75805  1.0000
  S   S669      1.0  0.89738  0.53256  0.75374  1.0000
  Fe  Fe338     1.0  0.88058  0.60916  0.72931  1.0000
  S   S670      1.0  0.84618  0.61922  0.73860  1.0000
  S   S671      1.0  0.89947  0.63366  0.71224  1.0000
  Fe  Fe339     1.0  0.85003  0.59821  0.76882  1.0000
  S   S672      1.0  0.83254  0.60341  0.80069  1.0000
  Fe  Fe340     1.0  0.84355  0.59096  0.72701  1.0000
  S   S673      1.0  0.82119  0.59382  0.70529  1.0000
  S   S674      1.0  0.88462  0.59028  0.76047  1.0000
  S   S675      1.0  0.87761  0.58254  0.71559  1.0000
  Fe  Fe341     1.0  0.82147  0.68035  0.92690  1.0000
  S   S676      1.0  0.85081  0.65865  0.91770  1.0000
  C   C2324     1.0  0.79443  0.58287  0.97442  1.0000
  Fe  Fe342     1.0  0.79444  0.65204  0.91745  1.0000
  S   S677      1.0  0.82223  0.62838  0.90851  1.0000
  S   S678      1.0  0.76367  0.64175  0.92013  1.0000
  Fe  Fe343     1.0  0.83338  0.63364  0.93573  1.0000
  S   S679      1.0  0.84563  0.60941  0.96082  1.0000
  Fe  Fe344     1.0  0.83641  0.65580  0.89118  1.0000
  S   S680      1.0  0.85434  0.65694  0.85842  1.0000
  S   S681      1.0  0.80464  0.65531  0.94618  1.0000
  S   S682      1.0  0.80801  0.67959  0.89883  1.0000
  H   H3971     1.0  0.74303  0.50835  0.74328  1.0000
  Fe  Fe345     1.0  0.86844  0.70654  0.55801  1.0000
  S   S683      1.0  0.86990  0.68854  0.58983  1.0000
  S   S684      1.0  0.89503  0.71295  0.53238  1.0000
  Fe  Fe346     1.0  0.82195  0.71957  0.56695  1.0000
  S   S685      1.0  0.81925  0.70262  0.59971  1.0000
  H   H3972     1.0  0.91371  0.69840  0.68507  1.0000
  Fe  Fe347     1.0  0.84727  0.71557  0.60038  1.0000
  C   C2325     1.0  0.71967  0.67832  0.93756  1.0000
  Fe  Fe348     1.0  0.84183  0.67676  0.58653  1.0000
  S   S686      1.0  0.84160  0.64290  0.60088  1.0000
  C   C2326     1.0  0.86293  0.70367  0.49717  1.0000
  S   S687      1.0  0.84227  0.69274  0.55346  1.0000
  Fe  Fe349     1.0  0.77105  0.50799  0.61595  1.0000
  S   S688      1.0  0.79014  0.52329  0.58729  1.0000
  H   H3973     1.0  0.71827  0.62326  0.94694  1.0000
  Fe  Fe350     1.0  0.79553  0.52053  0.64427  1.0000
  S   S689      1.0  0.81645  0.53579  0.61778  1.0000
  S   S690      1.0  0.80202  0.51686  0.67657  1.0000
  Fe  Fe351     1.0  0.78750  0.54940  0.60478  1.0000
  S   S691      1.0  0.78251  0.58374  0.59083  1.0000
  Fe  Fe352     1.0  0.81744  0.50867  0.60306  1.0000
  H   H3974     1.0  0.73016  0.52524  0.84563  1.0000
  S   S692      1.0  0.76600  0.53537  0.63238  1.0000
  S   S693      1.0  0.79893  0.49210  0.63059  1.0000
  Fe  Fe353     1.0  0.69085  0.63176  0.84948  1.0000
  S   S694      1.0  0.70674  0.59875  0.85461  1.0000
  S   S695      1.0  0.70459  0.65821  0.85413  1.0000
  H   H3975     1.0  0.75639  0.48549  0.84854  1.0000
  Fe  Fe354     1.0  0.70110  0.59805  0.82326  1.0000
  S   S696      1.0  0.72962  0.58465  0.80270  1.0000
  S   S697      1.0  0.68725  0.63173  0.81710  1.0000
  C   C2327     1.0  0.73310  0.55769  0.80497  1.0000
  C   C2328     1.0  0.71606  0.54786  0.80775  1.0000
  H   H3976     1.0  0.77537  0.53519  0.76110  1.0000
  H   H3977     1.0  0.70052  0.55681  0.80919  1.0000
  S   S698      1.0  0.67018  0.58783  0.83416  1.0000
  S   S699      1.0  0.66945  0.56476  0.89113  1.0000
  H   H3978     1.0  0.69467  0.65871  0.92241  1.0000
  H   H3979     1.0  0.66960  0.67538  0.92692  1.0000
  C   C2329     1.0  0.96041  0.68265  0.54377  1.0000
  N   N167      1.0  0.70256  0.69588  0.93181  1.0000
  H   H3980     1.0  0.74510  0.50282  0.57566  1.0000
  H   H3981     1.0  0.74434  0.49441  0.89272  1.0000
  C   C2330     1.0  0.66185  0.57030  0.91618  1.0000
  H   H3982     1.0  0.74223  0.67095  0.80100  1.0000
  C   C2331     1.0  0.82464  0.62708  0.59798  1.0000
  C   C2332     1.0  0.81021  0.63394  0.58463  1.0000
  C   C2333     1.0  0.79735  0.62056  0.58264  1.0000
  C   C2334     1.0  0.79878  0.60025  0.59395  1.0000
  C   C2335     1.0  0.81297  0.59363  0.60756  1.0000
  C   C2336     1.0  0.82586  0.60691  0.60949  1.0000
  H   H3983     1.0  0.80909  0.64943  0.57570  1.0000
  H   H3984     1.0  0.78637  0.62590  0.57215  1.0000
  H   H3985     1.0  0.81393  0.57834  0.61677  1.0000
  H   H3986     1.0  0.83683  0.60151  0.61997  1.0000
  H   H3987     1.0  0.67177  0.68670  0.80055  1.0000
  H   H3988     1.0  0.96436  0.67491  0.67610  1.0000
  H   H3989     1.0  0.73114  0.67507  0.92367  1.0000
  H   H3990     1.0  0.70594  0.51904  0.80942  1.0000
  H   H3991     1.0  0.93336  0.70562  0.50499  1.0000
  H   H3992     1.0  0.94717  0.67837  0.57609  1.0000
  C   C2337     1.0  0.73724  0.48961  0.58056  1.0000
  H   H3993     1.0  0.80754  0.72064  0.48741  1.0000
  C   C2338     1.0  0.91997  0.70109  0.53726  1.0000
  C   C2339     1.0  0.92394  0.69351  0.55735  1.0000
  N   N168      1.0  0.87198  0.52516  0.64709  1.0000
  C   C2340     1.0  0.85675  0.51106  0.64860  1.0000
  H   H3994     1.0  0.91150  0.69483  0.57037  1.0000
  H   H3995     1.0  0.69487  0.53849  0.85047  1.0000
  H   H3996     1.0  0.79645  0.63386  0.80767  1.0000
  Fe  Fe355     1.0  0.67479  0.59124  0.86528  1.0000
  H   H3997     1.0  0.94357  0.68153  0.69709  1.0000
  H   H3998     1.0  0.89648  0.73189  0.65684  1.0000
  H   H3999     1.0  0.80994  0.60161  0.94813  1.0000
  H   H4000     1.0  0.72716  0.54925  0.70532  1.0000
  H   H4001     1.0  0.95885  0.71051  0.60080  1.0000
  H   H4002     1.0  0.78212  0.58218  0.96665  1.0000
  C   C2341     1.0  0.74990  0.64501  0.89966  1.0000
  C   C2342     1.0  0.75001  0.66234  0.88388  1.0000
  C   C2343     1.0  0.73631  0.66608  0.86972  1.0000
  C   C2344     1.0  0.72275  0.65233  0.87102  1.0000
  C   C2345     1.0  0.72323  0.63462  0.88628  1.0000
  C   C2346     1.0  0.73661  0.63110  0.90063  1.0000
  H   H4003     1.0  0.76005  0.67326  0.88311  1.0000
  H   H4004     1.0  0.73602  0.67983  0.85793  1.0000
  H   H4005     1.0  0.71280  0.62397  0.88749  1.0000
  H   H4006     1.0  0.73650  0.61762  0.91271  1.0000
  C   C2347     1.0  0.81816  0.57193  0.69631  1.0000
  C   C2348     1.0  0.82368  0.55178  0.70684  1.0000
  C   C2349     1.0  0.81916  0.53486  0.70035  1.0000
  C   C2350     1.0  0.80954  0.53796  0.68306  1.0000
  C   C2351     1.0  0.80480  0.55801  0.67208  1.0000
  C   C2352     1.0  0.80889  0.57493  0.67882  1.0000
  H   H4007     1.0  0.83076  0.54930  0.72039  1.0000
  H   H4008     1.0  0.82278  0.51936  0.70896  1.0000
  H   H4009     1.0  0.79731  0.56059  0.65878  1.0000
  H   H4010     1.0  0.80459  0.59046  0.67057  1.0000
  C   C2353     1.0  0.92058  0.62682  0.69288  1.0000
  C   C2354     1.0  0.93067  0.64241  0.68015  1.0000
  H   H4011     1.0  0.85898  0.68848  0.49693  1.0000
  C   C2355     1.0  0.94467  0.60139  0.67467  1.0000
  C   C2356     1.0  0.92752  0.60628  0.69003  1.0000
  H   H4012     1.0  0.92528  0.65822  0.68246  1.0000
  H   H4013     1.0  0.95017  0.58544  0.67271  1.0000
  H   H4014     1.0  0.91998  0.59411  0.69990  1.0000
  C   C2357     1.0  0.83923  0.61830  0.81632  1.0000
  C   C2358     1.0  0.82717  0.61950  0.83594  1.0000
  C   C2359     1.0  0.83170  0.63121  0.84892  1.0000
  C   C2360     1.0  0.84841  0.64186  0.84244  1.0000
  C   C2361     1.0  0.86053  0.64064  0.82280  1.0000
  C   C2362     1.0  0.85600  0.62887  0.80979  1.0000
  H   H4015     1.0  0.81424  0.61133  0.84121  1.0000
  H   H4016     1.0  0.82214  0.63212  0.86388  1.0000
  H   H4017     1.0  0.87348  0.64882  0.81762  1.0000
  H   H4018     1.0  0.86543  0.62808  0.79471  1.0000
  C   C2363     1.0  0.88264  0.51547  0.77080  1.0000
  C   C2364     1.0  0.86183  0.51669  0.76963  1.0000
  H   H4019     1.0  0.66006  0.71379  0.93284  1.0000
  C   C2365     1.0  0.85530  0.70130  0.95966  1.0000
  C   C2366     1.0  0.65955  0.59040  0.92015  1.0000
  H   H4020     1.0  0.85499  0.52764  0.75762  1.0000
  C   C2367     1.0  0.89560  0.67787  0.88332  1.0000
  H   H4021     1.0  0.67636  0.51668  0.59826  1.0000
  H   H4022     1.0  0.98780  0.72667  0.58296  1.0000
  C   C2368     1.0  0.66593  0.71351  0.94702  1.0000
  H   H4023     1.0  0.67956  0.68133  0.95473  1.0000
  C   C2369     1.0  0.82646  0.59466  0.97362  1.0000
  H   H4024     1.0  0.85238  0.49716  0.68199  1.0000
  H   H4025     1.0  0.74558  0.57260  0.95584  1.0000
  S   S700      1.0  0.74785  0.48602  0.61938  1.0000
  H   H4026     1.0  0.85076  0.54505  0.66651  1.0000
  C   C2370     1.0  0.68481  0.67335  0.91652  1.0000
  H   H4027     1.0  0.92119  0.72009  0.62616  1.0000
  C   C2371     1.0  0.89662  0.72834  0.67355  1.0000
  C   C2372     1.0  0.73806  0.57005  0.97236  1.0000
  S   S701      1.0  0.80182  0.48631  0.78034  1.0000
  H   H4028     1.0  0.68832  0.51431  0.84792  1.0000
  C   C2373     1.0  0.71915  0.52652  0.80777  1.0000
  H   H4029     1.0  0.76644  0.55364  0.80053  1.0000
  C   C2374     1.0  0.76816  0.62343  0.78452  1.0000
  H   H4030     1.0  0.66365  0.72645  0.85778  1.0000
  C   C2375     1.0  0.66145  0.49391  0.59107  1.0000
  H   H4031     1.0  0.95407  0.69969  0.63952  1.0000
  C   C2376     1.0  0.93867  0.70039  0.64978  1.0000
  H   H4032     1.0  0.91167  0.66928  0.87976  1.0000
  C   C2377     1.0  0.95795  0.68585  0.68708  1.0000
  C   C2378     1.0  0.88128  0.54974  0.66727  1.0000
  H   H4033     1.0  0.89065  0.49141  0.58953  1.0000
  H   H4034     1.0  0.96889  0.68923  0.51071  1.0000
  H   H4035     1.0  0.70911  0.68974  0.90057  1.0000
  H   H4036     1.0  0.89043  0.69892  0.92416  1.0000
  C   C2379     1.0  0.86199  0.71764  0.47595  1.0000
  C   C2380     1.0  0.86656  0.53546  0.66585  1.0000
  H   H4037     1.0  0.83381  0.50472  0.78295  1.0000
  H   H4038     1.0  0.93818  0.68444  0.65831  1.0000
  H   H4039     1.0  0.87858  0.70066  0.50126  1.0000
  H   H4040     1.0  0.89515  0.73136  0.49018  1.0000
  H   H4041     1.0  0.88958  0.52740  0.60346  1.0000
  H   H4042     1.0  0.71950  0.52501  0.90872  1.0000
  C   C2381     1.0  0.70648  0.58334  0.95637  1.0000
  C   C2382     1.0  0.84991  0.50340  0.78375  1.0000
  S   S702      1.0  0.65905  0.62442  0.86316  1.0000
  H   H4043     1.0  0.68513  0.70610  0.90654  1.0000
  H   H4044     1.0  0.86544  0.52422  0.68046  1.0000
  H   H4045     1.0  0.74311  0.60829  0.95240  1.0000
  H   H4046     1.0  0.84076  0.52016  0.64965  1.0000
  N   N169      1.0  0.75589  0.53666  0.73866  1.0000
  C   C2383     1.0  0.77437  0.54198  0.74468  1.0000
  C   C2384     1.0  0.75705  0.51353  0.74508  1.0000
  C   C2385     1.0  0.73649  0.54809  0.75020  1.0000
  C   C2386     1.0  0.75714  0.54361  0.71572  1.0000
  C   C2387     1.0  0.77506  0.56529  0.74200  1.0000
  H   H4047     1.0  0.91633  0.50462  0.66500  1.0000
  C   C2388     1.0  0.71634  0.53928  0.75362  1.0000
  C   C2389     1.0  0.80419  0.73010  0.51676  1.0000
  H   H4048     1.0  0.78911  0.53514  0.73562  1.0000
  C   C2390     1.0  0.68502  0.69644  0.94998  1.0000
  H   H4049     1.0  0.75765  0.50885  0.76186  1.0000
  H   H4050     1.0  0.73877  0.54866  0.76590  1.0000
  H   H4051     1.0  0.73317  0.56457  0.74253  1.0000
  H   H4052     1.0  0.75512  0.56077  0.71161  1.0000
  H   H4053     1.0  0.77288  0.53846  0.70734  1.0000
  H   H4054     1.0  0.77585  0.57312  0.72569  1.0000
  H   H4055     1.0  0.76186  0.57349  0.75192  1.0000
  H   H4056     1.0  0.78944  0.56695  0.74677  1.0000
  C   C2391     1.0  0.72712  0.49648  0.89476  1.0000
  H   H4057     1.0  0.66762  0.66867  0.83517  1.0000
  H   H4058     1.0  0.68172  0.67161  0.90146  1.0000
  H   H4059     1.0  0.71702  0.52453  0.76489  1.0000
  H   H4060     1.0  0.71253  0.53701  0.73919  1.0000
  H   H4061     1.0  0.70324  0.55037  0.76051  1.0000
  S   S703      1.0  0.74248  0.48828  0.80522  1.0000
  C   C2392     1.0  0.87364  0.48950  0.72924  1.0000
  H   H4062     1.0  0.85135  0.71045  0.50941  1.0000
  C   C2393     1.0  0.95468  0.70852  0.67569  1.0000
  H   H4063     1.0  0.88219  0.69592  0.97427  1.0000
  H   H4064     1.0  0.90862  0.70541  0.87703  1.0000
  H   H4065     1.0  0.74257  0.70568  0.91194  1.0000
  C   C2394     1.0  0.95639  0.69040  0.52376  1.0000
  N   N170      1.0  0.86174  0.54798  0.83080  1.0000
  C   C2395     1.0  0.87899  0.56043  0.82259  1.0000
  C   C2396     1.0  0.84582  0.55957  0.84571  1.0000
  C   C2397     1.0  0.85240  0.54651  0.81271  1.0000
  C   C2398     1.0  0.87102  0.52676  0.84095  1.0000
  C   C2399     1.0  0.89622  0.55222  0.80556  1.0000
  C   C2400     1.0  0.85339  0.56297  0.86461  1.0000
  C   C2401     1.0  0.82963  0.54335  0.81707  1.0000
  C   C2402     1.0  0.85592  0.51179  0.85184  1.0000
  H   H4066     1.0  0.87257  0.57676  0.81625  1.0000
  H   H4067     1.0  0.88710  0.56131  0.83508  1.0000
  H   H4068     1.0  0.83211  0.55196  0.85182  1.0000
  H   H4069     1.0  0.83950  0.57510  0.83757  1.0000
  H   H4070     1.0  0.85289  0.56083  0.80085  1.0000
  H   H4071     1.0  0.86172  0.53379  0.80476  1.0000
  H   H4072     1.0  0.88203  0.51842  0.82931  1.0000
  H   H4073     1.0  0.88099  0.52759  0.85192  1.0000
  H   H4074     1.0  0.89009  0.55056  0.79209  1.0000
  H   H4075     1.0  0.90700  0.56349  0.79977  1.0000
  H   H4076     1.0  0.90564  0.53729  0.81148  1.0000
  H   H4077     1.0  0.83987  0.57007  0.87511  1.0000
  H   H4078     1.0  0.86036  0.54826  0.87357  1.0000
  H   H4079     1.0  0.86436  0.57409  0.86024  1.0000
  H   H4080     1.0  0.82672  0.52980  0.82914  1.0000
  H   H4081     1.0  0.82575  0.54060  0.80275  1.0000
  H   H4082     1.0  0.81888  0.55750  0.82117  1.0000
  H   H4083     1.0  0.85248  0.50347  0.84070  1.0000
  H   H4084     1.0  0.84127  0.51928  0.86033  1.0000
  H   H4085     1.0  0.86317  0.50016  0.86382  1.0000
  H   H4086     1.0  0.94459  0.71952  0.58031  1.0000
  H   H4087     1.0  0.66289  0.71596  0.81591  1.0000
  H   H4088     1.0  0.72077  0.55418  0.94523  1.0000
  H   H4089     1.0  0.86208  0.70109  0.91018  1.0000
  C   C2403     1.0  0.72951  0.54208  0.86971  1.0000
  H   H4090     1.0  0.66035  0.53842  0.92954  1.0000
  H   H4091     1.0  0.66926  0.72901  0.94702  1.0000
  H   H4092     1.0  0.68801  0.50143  0.88603  1.0000
  C   C2404     1.0  0.89157  0.50083  0.78602  1.0000
  H   H4093     1.0  0.67085  0.53116  0.86348  1.0000
  C   C2405     1.0  0.86822  0.70659  0.97114  1.0000
  H   H4094     1.0  0.67837  0.70137  0.83436  1.0000
  H   H4095     1.0  0.66209  0.60308  0.90755  1.0000
  C   C2406     1.0  0.90231  0.49967  0.66268  1.0000
  H   H4096     1.0  0.79066  0.50233  0.73581  1.0000
  C   C2407     1.0  0.73194  0.68126  0.95343  1.0000
  H   H4097     1.0  0.74030  0.54109  0.88046  1.0000
  H   H4098     1.0  0.69051  0.59267  0.95829  1.0000
  H   H4099     1.0  0.90169  0.71812  0.90470  1.0000
  H   H4100     1.0  0.90681  0.70209  0.64500  1.0000
  C   C2408     1.0  0.71818  0.50845  0.91282  1.0000
  H   H4101     1.0  0.98229  0.71073  0.56767  1.0000
  H   H4102     1.0  0.88567  0.67057  0.87679  1.0000
  H   H4103     1.0  0.73276  0.55451  0.85628  1.0000
  H   H4104     1.0  0.71346  0.54747  0.87709  1.0000
  C   C2409     1.0  0.86931  0.71489  0.90256  1.0000
  C   C2410     1.0  0.89403  0.51372  0.64369  1.0000
  H   H4105     1.0  0.87931  0.55364  0.62715  1.0000
  H   H4106     1.0  0.89609  0.50378  0.63188  1.0000
  N   N171      1.0  0.76630  0.62859  0.80566  1.0000
  C   C2411     1.0  0.77167  0.60841  0.82006  1.0000
  C   C2412     1.0  0.74405  0.63762  0.81319  1.0000
  C   C2413     1.0  0.76809  0.60958  0.84325  1.0000
  C   C2414     1.0  0.73468  0.65798  0.80039  1.0000
  H   H4107     1.0  0.76273  0.59672  0.81855  1.0000
  H   H4108     1.0  0.78830  0.60149  0.81599  1.0000
  H   H4109     1.0  0.75709  0.61307  0.78490  1.0000
  H   H4110     1.0  0.73385  0.62611  0.81446  1.0000
  H   H4111     1.0  0.74217  0.64114  0.82892  1.0000
  H   H4112     1.0  0.75134  0.61154  0.85008  1.0000
  H   H4113     1.0  0.77560  0.59473  0.85165  1.0000
  H   H4114     1.0  0.77492  0.62208  0.84626  1.0000
  H   H4115     1.0  0.73477  0.65662  0.78428  1.0000
  H   H4116     1.0  0.76361  0.63719  0.77305  1.0000
  C   C2415     1.0  0.93629  0.69969  0.52053  1.0000
  H   H4117     1.0  0.87680  0.48743  0.71296  1.0000
  C   C2416     1.0  0.92219  0.70456  0.63591  1.0000
  H   H4118     1.0  0.85707  0.72840  0.90602  1.0000
  H   H4119     1.0  0.85933  0.68662  0.95430  1.0000
  H   H4120     1.0  0.87140  0.54968  0.59537  1.0000
  H   H4121     1.0  0.88508  0.73197  0.59546  1.0000
  H   H4122     1.0  0.69691  0.56620  0.93729  1.0000
  H   H4123     1.0  0.71814  0.66223  0.80741  1.0000
  H   H4124     1.0  0.90768  0.49990  0.78697  1.0000
  H   H4125     1.0  0.79937  0.65698  0.77800  1.0000
  H   H4126     1.0  0.85569  0.69262  0.88109  1.0000
  H   H4127     1.0  0.71368  0.72038  0.94038  1.0000
  C   C2417     1.0  0.81026  0.59384  0.96386  1.0000
  H   H4128     1.0  0.74142  0.69358  0.94722  1.0000
  C   C2418     1.0  0.69562  0.69223  0.91317  1.0000
  N   N172      1.0  0.85266  0.64710  0.66298  1.0000
  C   C2419     1.0  0.82973  0.64654  0.66915  1.0000
  C   C2420     1.0  0.86077  0.64674  0.68230  1.0000
  C   C2421     1.0  0.86307  0.62799  0.65371  1.0000
  C   C2422     1.0  0.85528  0.66661  0.64744  1.0000
  C   C2423     1.0  0.81869  0.64421  0.65207  1.0000
  C   C2424     1.0  0.85070  0.66466  0.69422  1.0000
  C   C2425     1.0  0.88587  0.61906  0.65612  1.0000
  C   C2426     1.0  0.87720  0.67211  0.64171  1.0000
  H   H4129     1.0  0.82693  0.63360  0.68222  1.0000
  H   H4130     1.0  0.82110  0.66093  0.67478  1.0000
  H   H4131     1.0  0.87765  0.64685  0.67899  1.0000
  H   H4132     1.0  0.85894  0.63197  0.69321  1.0000
  H   H4133     1.0  0.85466  0.61481  0.66082  1.0000
  H   H4134     1.0  0.86237  0.63071  0.63696  1.0000
  H   H4135     1.0  0.85074  0.66579  0.63272  1.0000
  H   H4136     1.0  0.84464  0.68024  0.65297  1.0000
  H   H4137     1.0  0.80217  0.64344  0.65869  1.0000
  H   H4138     1.0  0.81886  0.65768  0.63930  1.0000
  H   H4139     1.0  0.82528  0.62970  0.64588  1.0000
  H   H4140     1.0  0.83444  0.66354  0.70160  1.0000
  H   H4141     1.0  0.85931  0.66355  0.70692  1.0000
  H   H4142     1.0  0.85152  0.68005  0.68439  1.0000
  H   H4143     1.0  0.88693  0.61150  0.67230  1.0000
  H   H4144     1.0  0.89618  0.63070  0.65135  1.0000
  H   H4145     1.0  0.89214  0.60691  0.64642  1.0000
  H   H4146     1.0  0.88328  0.67369  0.65524  1.0000
  H   H4147     1.0  0.87653  0.68748  0.63147  1.0000
  H   H4148     1.0  0.88818  0.66087  0.63301  1.0000
  C   C2427     1.0  0.85876  0.48880  0.79903  1.0000
  H   H4149     1.0  0.88477  0.49838  0.73180  1.0000
  H   H4150     1.0  0.89120  0.49932  0.67731  1.0000
  C   C2428     1.0  0.95589  0.72346  0.58797  1.0000
  H   H4151     1.0  0.84354  0.48452  0.66591  1.0000
  S   S704      1.0  0.97184  0.66703  0.60913  1.0000
  H   H4152     1.0  0.74935  0.51507  0.86065  1.0000
  C   C2429     1.0  0.91667  0.71459  0.68006  1.0000
  C   C2430     1.0  0.73925  0.51488  0.80540  1.0000
  H   H4153     1.0  0.74293  0.66665  0.95725  1.0000
  H   H4154     1.0  0.87683  0.55455  0.68264  1.0000
  C   C2431     1.0  0.86901  0.54224  0.62870  1.0000
  H   H4155     1.0  0.85285  0.55120  0.63075  1.0000
  C   C2432     1.0  0.95490  0.61699  0.66204  1.0000
  C   C2433     1.0  0.94777  0.63755  0.66474  1.0000
  H   H4156     1.0  0.77556  0.65001  0.82049  1.0000
  N   N173      1.0  0.71984  0.50555  0.87443  1.0000
  C   C2434     1.0  0.75321  0.54606  0.80273  1.0000
  H   H4157     1.0  0.90489  0.52486  0.63693  1.0000
  C   C2435     1.0  0.74145  0.53731  0.70551  1.0000
  C   C2436     1.0  0.78069  0.64288  0.80633  1.0000
  H   H4158     1.0  0.69276  0.52537  0.88858  1.0000
  H   H4159     1.0  0.73730  0.52200  0.71262  1.0000
  C   C2437     1.0  0.75627  0.52461  0.80322  1.0000
  H   H4160     1.0  0.95568  0.64957  0.65513  1.0000
  C   C2438     1.0  0.73249  0.52148  0.86192  1.0000
  C   C2439     1.0  0.77551  0.50010  0.73339  1.0000
  C   C2440     1.0  0.65967  0.73002  0.84209  1.0000
  H   H4161     1.0  0.77178  0.51569  0.80177  1.0000
  H   H4162     1.0  0.96966  0.68381  0.69715  1.0000
  H   H4163     1.0  0.78976  0.61162  0.75889  1.0000
  H   H4164     1.0  0.78411  0.67486  0.79342  1.0000
  H   H4165     1.0  0.72619  0.71302  0.51573  1.0000
  H   H4166     1.0  0.68091  0.49204  0.61421  1.0000
  C   C2441     1.0  0.78981  0.61282  0.77508  1.0000
  C   C2442     1.0  0.71002  0.71632  0.92651  1.0000
  C   C2443     1.0  0.78387  0.66060  0.78767  1.0000
  C   C2444     1.0  0.74270  0.71455  0.51356  1.0000
  H   H4167     1.0  0.85967  0.50407  0.63454  1.0000
  H   H4168     1.0  0.89769  0.54190  0.66586  1.0000
  C   C2445     1.0  0.68755  0.52498  0.85864  1.0000
  S   S705      1.0  0.82116  0.70988  0.93929  1.0000
  H   H4169     1.0  0.87980  0.56422  0.65573  1.0000
  C   C2446     1.0  0.94419  0.68431  0.56061  1.0000
  H   H4170     1.0  0.80199  0.62181  0.77466  1.0000
  H   H4171     1.0  0.77188  0.66470  0.77781  1.0000
  H   H4172     1.0  0.86240  0.52604  0.60588  1.0000
  H   H4173     1.0  0.92661  0.69323  0.62519  1.0000
  C   C2447     1.0  0.87344  0.53557  0.60737  1.0000
  C   C2448     1.0  0.87957  0.48763  0.80027  1.0000
  C   C2449     1.0  0.65862  0.55395  0.93256  1.0000
  C   C2450     1.0  0.89502  0.70090  0.87347  1.0000
  H   H4174     1.0  0.80647  0.71442  0.52525  1.0000
  H   H4175     1.0  0.71348  0.66372  0.94396  1.0000
  H   H4176     1.0  0.69755  0.72908  0.92148  1.0000
  H   H4177     1.0  0.79398  0.59678  0.78333  1.0000
  H   H4178     1.0  0.75111  0.71075  0.49841  1.0000
  H   H4179     1.0  0.71537  0.59162  0.94235  1.0000
  H   H4180     1.0  0.74865  0.53579  0.68931  1.0000
  C   C2451     1.0  0.83651  0.72212  0.87501  1.0000
  H   H4181     1.0  0.69030  0.69872  0.96377  1.0000
  H   H4182     1.0  0.66254  0.68037  0.86642  1.0000
  H   H4183     1.0  0.72188  0.68443  0.96811  1.0000
  S   S706      1.0  0.97675  0.61038  0.64331  1.0000
  C   C2452     1.0  0.85620  0.49256  0.66661  1.0000
  H   H4184     1.0  0.85800  0.49925  0.73182  1.0000
  C   C2453     1.0  0.72899  0.71786  0.90898  1.0000
  H   H4185     1.0  0.74975  0.70263  0.52549  1.0000
  C   C2454     1.0  0.69687  0.51402  0.87802  1.0000
  C   C2455     1.0  0.70517  0.56275  0.95060  1.0000
  C   C2456     1.0  0.83749  0.71517  0.95478  1.0000
  C   C2457     1.0  0.72796  0.61683  0.95905  1.0000
  H   H4186     1.0  0.70169  0.50704  0.91893  1.0000
  H   H4187     1.0  0.72684  0.50151  0.92571  1.0000
  N   N174      1.0  0.93645  0.71523  0.66440  1.0000
  H   H4188     1.0  0.89112  0.67562  0.90033  1.0000
  C   C2458     1.0  0.88704  0.71432  0.91429  1.0000
  S   S707      1.0  0.98605  0.67168  0.54695  1.0000
  H   H4189     1.0  0.86262  0.70655  0.85595  1.0000
  H   H4190     1.0  0.82534  0.71432  0.87084  1.0000
  H   H4191     1.0  0.89845  0.70173  0.85641  1.0000
  S   S708      1.0  0.84824  0.73091  0.62674  1.0000
  H   H4192     1.0  0.72753  0.49259  0.55129  1.0000
  H   H4193     1.0  0.95329  0.71826  0.68755  1.0000
  S   S709      1.0  0.84819  0.49274  0.58799  1.0000
  H   H4194     1.0  0.77521  0.50283  0.71664  1.0000
  C   C2459     1.0  0.85813  0.70825  0.87251  1.0000
  H   H4195     1.0  0.96943  0.71084  0.66494  1.0000
  H   H4196     1.0  0.73129  0.63029  0.96413  1.0000
  H   H4197     1.0  0.96908  0.72288  0.53824  1.0000
  C   C2460     1.0  0.72308  0.48817  0.86239  1.0000
  H   H4198     1.0  0.67560  0.48656  0.58146  1.0000
  H   H4199     1.0  0.83071  0.72460  0.89114  1.0000
  C   C2461     1.0  0.66255  0.71031  0.83272  1.0000
  H   H4200     1.0  0.88176  0.72561  0.92506  1.0000
  H   H4201     1.0  0.90720  0.48344  0.65989  1.0000
  N   N175      1.0  0.87505  0.71530  0.87958  1.0000
  H   H4202     1.0  0.69628  0.55295  0.96324  1.0000
  H   H4203     1.0  0.71880  0.49407  0.84687  1.0000
  H   H4204     1.0  0.77626  0.72814  0.63873  1.0000
  H   H4205     1.0  0.72511  0.71737  0.89390  1.0000
  H   H4206     1.0  0.88329  0.72029  0.68071  1.0000
  H   H4207     1.0  0.91836  0.71965  0.69426  1.0000
  C   C2462     1.0  0.66884  0.50330  0.60666  1.0000
  C   C2463     1.0  0.97657  0.72569  0.57333  1.0000
  H   H4208     1.0  0.77458  0.48351  0.73930  1.0000
  H   H4209     1.0  0.73200  0.53823  0.97413  1.0000
  N   N176      1.0  0.71603  0.58177  0.97512  1.0000
  H   H4210     1.0  0.75800  0.53983  0.97529  1.0000
  Fe  Fe356     1.0  0.65647  0.62177  0.83102  1.0000
  C   C2464     1.0  0.65615  0.68275  0.80703  1.0000
  C   C2465     1.0  0.72725  0.48375  0.56675  1.0000
  H   H4211     1.0  0.65587  0.50899  0.61846  1.0000
  H   H4212     1.0  0.91017  0.70222  0.47694  1.0000
  Fe  Fe357     1.0  0.87992  0.75784  0.01020  1.0000
  S   S710      1.0  0.85172  0.77120  0.03134  1.0000
  Fe  Fe358     1.0  0.90865  0.78008  0.02565  1.0000
  S   S711      1.0  0.88246  0.79388  0.04771  1.0000
  S   S712      1.0  0.94088  0.78609  0.02598  1.0000
  Fe  Fe359     1.0  0.87222  0.76330  0.05522  1.0000
  C   C2466     1.0  0.76384  0.91818  0.44407  1.0000
  Fe  Fe360     1.0  0.86444  0.80100  0.02209  1.0000
  S   S713      1.0  0.84350  0.83240  0.02022  1.0000
  S   S714      1.0  0.89992  0.74834  0.03518  1.0000
  S   S715      1.0  0.89131  0.78861  0.99885  1.0000
  Fe  Fe361     1.0  0.82080  0.96054  0.07527  1.0000
  S   S716      1.0  0.85538  0.95509  0.06612  1.0000
  H   H4213     1.0  0.78942  0.91378  0.32856  1.0000
  Fe  Fe362     1.0  0.82277  0.92706  0.11292  1.0000
  S   S717      1.0  0.85749  0.91977  0.10715  1.0000
  S   S718      1.0  0.80493  0.90648  0.13789  1.0000
  Fe  Fe363     1.0  0.85569  0.95437  0.09945  1.0000
  Fe  Fe364     1.0  0.85388  0.92126  0.07443  1.0000
  S   S719      1.0  0.87528  0.89779  0.05639  1.0000
  S   S720      1.0  0.82104  0.96161  0.10831  1.0000
  S   S721      1.0  0.81921  0.92669  0.08056  1.0000
  C   C2467     1.0  0.94785  0.73507  0.10788  1.0000
  S   S722      1.0  0.95018  0.85645  0.07236  1.0000
  Fe  Fe365     1.0  0.82997  0.82351  0.43633  1.0000
  S   S723      1.0  0.79838  0.81828  0.45267  1.0000
  S   S724      1.0  0.84910  0.83343  0.45480  1.0000
  Fe  Fe366     1.0  0.82472  0.81158  0.39683  1.0000
  S   S725      1.0  0.79283  0.80458  0.41076  1.0000
  S   S726      1.0  0.83506  0.80724  0.36369  1.0000
  Fe  Fe367     1.0  0.78835  0.83415  0.42277  1.0000
  S   S727      1.0  0.76084  0.85983  0.42178  1.0000
  Fe  Fe368     1.0  0.80645  0.78935  0.43913  1.0000
  H   H4214     1.0  0.91817  0.78640  0.08210  1.0000
  S   S728      1.0  0.81932  0.84210  0.40740  1.0000
  S   S729      1.0  0.83883  0.79367  0.42419  1.0000
  Fe  Fe369     1.0  0.86310  0.88050  0.22998  1.0000
  S   S730      1.0  0.86569  0.91332  0.21626  1.0000
  S   S731      1.0  0.85104  0.86162  0.21262  1.0000
  Fe  Fe370     1.0  0.87942  0.88234  0.26839  1.0000
  S   S732      1.0  0.88391  0.91536  0.25675  1.0000
  S   S733      1.0  0.88653  0.87020  0.30058  1.0000
  Fe  Fe371     1.0  0.85270  0.91986  0.24797  1.0000
  S   S734      1.0  0.82629  0.94561  0.25505  1.0000
  Fe  Fe372     1.0  0.89674  0.90532  0.22610  1.0000
  S   S735      1.0  0.92201  0.91857  0.20233  1.0000
  S   S736      1.0  0.84732  0.88755  0.26128  1.0000
  S   S737      1.0  0.89507  0.87183  0.23832  1.0000
  H   H4215     1.0  0.66549  0.86701  0.39735  1.0000
  S   S738      1.0  0.68744  0.92188  0.30920  1.0000
  Fe  Fe373     1.0  0.69451  0.90294  0.33936  1.0000
  S   S739      1.0  0.72388  0.87906  0.33989  1.0000
  S   S740      1.0  0.68779  0.93011  0.35562  1.0000
  S   S741      1.0  0.98345  0.88634  0.09392  1.0000
  H   H4216     1.0  0.91483  0.92703  0.08841  1.0000
  H   H4217     1.0  0.66636  0.85325  0.46533  1.0000
  H   H4218     1.0  0.66407  0.81302  0.39535  1.0000
  H   H4219     1.0  0.74788  0.85329  0.46680  1.0000
  H   H4220     1.0  0.76908  0.88527  0.44940  1.0000
  H   H4221     1.0  0.76352  0.93112  0.45209  1.0000
  H   H4222     1.0  0.66030  0.84023  0.38653  1.0000
  H   H4223     1.0  0.85010  0.89505  0.34223  1.0000
  C   C2468     1.0  0.84968  0.82452  0.34630  1.0000
  C   C2469     1.0  0.86190  0.83524  0.35316  1.0000
  C   C2470     1.0  0.87335  0.84901  0.33892  1.0000
  C   C2471     1.0  0.87237  0.85241  0.31783  1.0000
  C   C2472     1.0  0.85996  0.84187  0.31100  1.0000
  C   C2473     1.0  0.84886  0.82776  0.32518  1.0000
  H   H4224     1.0  0.86273  0.83272  0.36939  1.0000
  H   H4225     1.0  0.88298  0.85710  0.34425  1.0000
  H   H4226     1.0  0.85918  0.84434  0.29476  1.0000
  H   H4227     1.0  0.83946  0.81945  0.31980  1.0000
  C   C2474     1.0  0.75313  0.86674  0.39761  1.0000
  C   C2475     1.0  0.73782  0.88416  0.39405  1.0000
  C   C2476     1.0  0.72922  0.88838  0.37606  1.0000
  C   C2477     1.0  0.73594  0.87526  0.36150  1.0000
  C   C2478     1.0  0.75214  0.85849  0.36451  1.0000
  C   C2479     1.0  0.76080  0.85426  0.38253  1.0000
  H   H4228     1.0  0.73210  0.89407  0.40552  1.0000
  H   H4229     1.0  0.71708  0.90152  0.37377  1.0000
  H   H4230     1.0  0.75756  0.84837  0.35320  1.0000
  H   H4231     1.0  0.77284  0.84092  0.38501  1.0000
  C   C2480     1.0  0.72759  0.89458  0.46038  1.0000
  H   H4232     1.0  0.69337  0.84560  0.45676  1.0000
  C   C2481     1.0  0.87542  0.74123  0.43293  1.0000
  H   H4233     1.0  0.97484  0.76826  0.99667  1.0000
  C   C2482     1.0  0.83627  0.92170  0.30694  1.0000
  C   C2483     1.0  0.94141  0.90200  0.18859  1.0000
  C   C2484     1.0  0.94661  0.88100  0.19670  1.0000
  C   C2485     1.0  0.96247  0.86824  0.18558  1.0000
  H   H4234     1.0  0.71260  0.85533  0.42374  1.0000
  H   H4235     1.0  0.93879  0.87469  0.21175  1.0000
  H   H4236     1.0  0.84760  0.92403  0.31568  1.0000
  H   H4237     1.0  0.77330  0.85523  0.47061  1.0000
  H   H4238     1.0  0.97666  0.78270  0.08102  1.0000
  C   C2486     1.0  0.97932  0.77253  0.97963  1.0000
  H   H4239     1.0  0.89951  0.74848  0.46637  1.0000
  H   H4240     1.0  0.73468  0.92724  0.47482  1.0000
  C   C2487     1.0  0.81800  0.89440  0.15846  1.0000
  C   C2488     1.0  0.81505  0.87453  0.16870  1.0000
  C   C2489     1.0  0.82540  0.86461  0.18514  1.0000
  C   C2490     1.0  0.83816  0.87477  0.19198  1.0000
  C   C2491     1.0  0.84085  0.89480  0.18187  1.0000
  C   C2492     1.0  0.83108  0.90447  0.16492  1.0000
  H   H4241     1.0  0.80475  0.86680  0.16389  1.0000
  H   H4242     1.0  0.82318  0.84916  0.19286  1.0000
  H   H4243     1.0  0.85068  0.90281  0.18673  1.0000
  H   H4244     1.0  0.83326  0.91991  0.15716  1.0000
  H   H4245     1.0  0.97595  0.91782  0.04385  1.0000
  C   C2493     1.0  0.85235  0.85145  0.02899  1.0000
  C   C2494     1.0  0.87346  0.85022  0.02884  1.0000
  C   C2495     1.0  0.88023  0.86499  0.03661  1.0000
  C   C2496     1.0  0.86596  0.88079  0.04517  1.0000
  C   C2497     1.0  0.84482  0.88224  0.04511  1.0000
  C   C2498     1.0  0.83808  0.86774  0.03682  1.0000
  H   H4246     1.0  0.88463  0.83804  0.02239  1.0000
  H   H4247     1.0  0.89663  0.86411  0.03601  1.0000
  H   H4248     1.0  0.83368  0.89451  0.05140  1.0000
  H   H4249     1.0  0.82172  0.86890  0.03683  1.0000
  C   C2499     1.0  0.94339  0.80560  0.03911  1.0000
  C   C2500     1.0  0.92620  0.81976  0.04624  1.0000
  C   C2501     1.0  0.92856  0.83498  0.05664  1.0000
  C   C2502     1.0  0.94815  0.83646  0.05984  1.0000
  C   C2503     1.0  0.96544  0.82234  0.05277  1.0000
  C   C2504     1.0  0.96304  0.80700  0.04246  1.0000
  H   H4250     1.0  0.91109  0.81935  0.04345  1.0000
  H   H4251     1.0  0.91514  0.84584  0.06208  1.0000
  C   C2505     1.0  0.70913  0.88339  0.47095  1.0000
  C   C2506     1.0  0.83234  0.84960  0.47087  1.0000
  H   H4252     1.0  0.71222  0.86747  0.46747  1.0000
  H   H4253     1.0  0.90624  0.90275  0.09332  1.0000
  H   H4254     1.0  0.98001  0.74783  0.07498  1.0000
  H   H4255     1.0  0.88918  0.95541  0.18575  1.0000
  H   H4256     1.0  0.68026  0.89858  0.39402  1.0000
  C   C2507     1.0  0.68185  0.88561  0.40720  1.0000
  C   C2508     1.0  0.74144  0.77071  0.46308  1.0000
  H   H4257     1.0  0.68014  0.87060  0.44651  1.0000
  N   N177      1.0  0.93191  0.92331  0.04468  1.0000
  H   H4258     1.0  0.96902  0.76661  0.10458  1.0000
  H   H4259     1.0  0.84333  0.89231  0.38020  1.0000
  H   H4260     1.0  0.84180  0.88834  0.31199  1.0000
  C   C2509     1.0  0.76401  0.96638  0.29447  1.0000
  H   H4261     1.0  0.78049  0.95214  0.26866  1.0000
  C   C2510     1.0  0.96720  0.89715  0.15770  1.0000
  N   N178      1.0  0.74346  0.89445  0.47336  1.0000
  H   H4262     1.0  0.71973  0.84542  0.40052  1.0000
  H   H4263     1.0  0.84861  0.75449  0.45286  1.0000
  H   H4264     1.0  0.85877  0.74552  0.13203  1.0000
  H   H4265     1.0  0.76607  0.90897  0.30812  1.0000
  H   H4266     1.0  0.97520  0.90346  0.14273  1.0000
  H   H4267     1.0  0.80653  0.87046  0.31426  1.0000
  N   N179      1.0  0.90543  0.88053  0.15245  1.0000
  C   C2511     1.0  0.90745  0.90309  0.14573  1.0000
  C   C2512     1.0  0.92601  0.86787  0.14479  1.0000
  C   C2513     1.0  0.90060  0.87603  0.17576  1.0000
  C   C2514     1.0  0.88805  0.87707  0.14329  1.0000
  C   C2515     1.0  0.88931  0.91897  0.15468  1.0000
  C   C2516     1.0  0.93298  0.87086  0.12122  1.0000
  C   C2517     1.0  0.90655  0.85341  0.18647  1.0000
  C   C2518     1.0  0.88406  0.85474  0.14684  1.0000
  H   H4268     1.0  0.92174  0.90587  0.14983  1.0000
  H   H4269     1.0  0.90915  0.90770  0.12869  1.0000
  H   H4270     1.0  0.92638  0.85102  0.15004  1.0000
  H   H4271     1.0  0.93848  0.87130  0.15147  1.0000
  H   H4272     1.0  0.90866  0.88520  0.18246  1.0000
  H   H4273     1.0  0.88382  0.88101  0.18137  1.0000
  H   H4274     1.0  0.87310  0.88618  0.14965  1.0000
  H   H4275     1.0  0.88974  0.88334  0.12647  1.0000
  H   H4276     1.0  0.87447  0.91848  0.15021  1.0000
  H   H4277     1.0  0.88744  0.91707  0.17168  1.0000
  H   H4278     1.0  0.89272  0.93482  0.14834  1.0000
  H   H4279     1.0  0.93628  0.88665  0.11460  1.0000
  H   H4280     1.0  0.94774  0.86000  0.11769  1.0000
  H   H4281     1.0  0.92169  0.86708  0.11334  1.0000
  H   H4282     1.0  0.89967  0.85198  0.20309  1.0000
  H   H4283     1.0  0.92361  0.84892  0.18555  1.0000
  H   H4284     1.0  0.87353  0.85112  0.16178  1.0000
  H   H4285     1.0  0.89833  0.84294  0.14607  1.0000
  H   H4286     1.0  0.87662  0.85314  0.13420  1.0000
  H   H4287     1.0  0.72113  0.91076  0.45379  1.0000
  H   H4288     1.0  0.94977  0.78474  0.09125  1.0000
  H   H4289     1.0  0.96685  0.81588  0.99680  1.0000
  C   C2519     1.0  0.73685  0.94658  0.27774  1.0000
  H   H4290     1.0  0.74882  0.76631  0.44786  1.0000
  H   H4291     1.0  0.78486  0.93717  0.29281  1.0000
  N   N180      1.0  0.81842  0.89741  0.33760  1.0000
  H   H4292     1.0  0.94476  0.74780  0.11678  1.0000
  H   H4293     1.0  0.92032  0.97372  0.04530  1.0000
  S   S742      1.0  0.66266  0.89477  0.34955  1.0000
  H   H4294     1.0  0.92111  0.95866  0.01494  1.0000
  C   C2520     1.0  0.96444  0.77358  0.08940  1.0000
  H   H4295     1.0  0.97648  0.79605  0.03732  1.0000
  N   N181      1.0  0.75683  0.93379  0.28365  1.0000
  H   H4296     1.0  0.72391  0.97229  0.25592  1.0000
  C   C2521     1.0  0.91455  0.97324  0.21846  1.0000
  H   H4297     1.0  0.80695  0.87166  0.35958  1.0000
  H   H4298     1.0  0.96680  0.85209  0.19215  1.0000
  H   H4299     1.0  0.65722  0.85164  0.43312  1.0000
  H   H4300     1.0  0.92701  0.93757  0.00051  1.0000
  C   C2522     1.0  0.82837  0.90094  0.31512  1.0000
  H   H4301     1.0  0.72701  0.94002  0.32124  1.0000
  H   H4302     1.0  0.89852  0.77108  0.09444  1.0000
  C   C2523     1.0  0.76380  0.89742  0.45924  1.0000
  C   C2524     1.0  0.81387  0.87564  0.34306  1.0000
  H   H4303     1.0  0.93947  0.96645  0.23617  1.0000
  H   H4304     1.0  0.74270  0.95349  0.24374  1.0000
  H   H4305     1.0  0.69701  0.82759  0.38959  1.0000
  H   H4306     1.0  0.81746  0.90049  0.30495  1.0000
  C   C2525     1.0  0.93562  0.97662  0.22168  1.0000
  H   H4307     1.0  0.77897  0.89576  0.36534  1.0000
  Fe  Fe374     1.0  0.98026  0.85860  0.08141  1.0000
  H   H4308     1.0  0.73883  0.91753  0.33644  1.0000
  C   C2526     1.0  0.91544  0.77124  0.09165  1.0000
  H   H4309     1.0  0.90462  0.95547  0.06045  1.0000
  C   C2527     1.0  0.85442  0.96951  0.25671  1.0000
  C   C2528     1.0  0.83471  0.87020  0.46855  1.0000
  H   H4310     1.0  0.77389  0.96694  0.30560  1.0000
  H   H4311     1.0  0.75077  0.97157  0.25567  1.0000
  C   C2529     1.0  0.67883  0.85416  0.45155  1.0000
  H   H4312     1.0  0.67253  0.82799  0.44244  1.0000
  C   C2530     1.0  0.79936  0.87040  0.33068  1.0000
  C   C2531     1.0  0.76613  0.92044  0.26735  1.0000
  H   H4313     1.0  0.70932  0.81659  0.44221  1.0000
  C   C2532     1.0  0.78614  0.90476  0.27088  1.0000
  H   H4314     1.0  0.84776  0.97710  0.14052  1.0000
  H   H4315     1.0  0.75463  0.91149  0.26540  1.0000
  H   H4316     1.0  0.93723  0.97920  0.17925  1.0000
  C   C2533     1.0  0.88130  0.96117  0.20018  1.0000
  C   C2534     1.0  0.71970  0.82215  0.42787  1.0000
  H   H4317     1.0  0.95383  0.92263  0.01593  1.0000
  H   H4318     1.0  0.98064  0.82323  0.05524  1.0000
  H   H4319     1.0  0.79260  0.89785  0.25675  1.0000
  H   H4320     1.0  0.77632  0.89576  0.46835  1.0000
  C   C2535     1.0  0.94996  0.91241  0.03097  1.0000
  C   C2536     1.0  0.74209  0.92978  0.32292  1.0000
  H   H4321     1.0  0.74126  0.90932  0.30257  1.0000
  H   H4322     1.0  0.66830  0.88921  0.41930  1.0000
  N   N182      1.0  0.84103  0.83176  0.09874  1.0000
  C   C2537     1.0  0.84417  0.81825  0.08266  1.0000
  C   C2538     1.0  0.86075  0.84024  0.09609  1.0000
  C   C2539     1.0  0.82309  0.84931  0.09499  1.0000
  C   C2540     1.0  0.83630  0.81844  0.11961  1.0000
  C   C2541     1.0  0.82490  0.81024  0.08049  1.0000
  C   C2542     1.0  0.88083  0.82417  0.09781  1.0000
  C   C2543     1.0  0.82350  0.87013  0.10116  1.0000
  C   C2544     1.0  0.83361  0.82888  0.13846  1.0000
  H   H4323     1.0  0.85021  0.82665  0.06718  1.0000
  H   H4324     1.0  0.85599  0.80413  0.08589  1.0000
  H   H4325     1.0  0.85960  0.85045  0.10736  1.0000
  H   H4326     1.0  0.86343  0.85030  0.08068  1.0000
  H   H4327     1.0  0.82211  0.85344  0.07827  1.0000
  H   H4328     1.0  0.80802  0.84452  0.10278  1.0000
  H   H4329     1.0  0.82168  0.81249  0.12117  1.0000
  H   H4330     1.0  0.84851  0.80439  0.12139  1.0000
  H   H4331     1.0  0.82929  0.80150  0.06746  1.0000
  H   H4332     1.0  0.81953  0.79922  0.09438  1.0000
  H   H4333     1.0  0.81195  0.82290  0.07671  1.0000
  H   H4334     1.0  0.89374  0.83247  0.09703  1.0000
  H   H4335     1.0  0.87975  0.81318  0.11263  1.0000
  H   H4336     1.0  0.88533  0.81566  0.08466  1.0000
  H   H4337     1.0  0.82617  0.86862  0.11707  1.0000
  H   H4338     1.0  0.80834  0.88054  0.09999  1.0000
  H   H4339     1.0  0.83552  0.87815  0.09044  1.0000
  H   H4340     1.0  0.84747  0.83512  0.13891  1.0000
  H   H4341     1.0  0.83117  0.81716  0.15271  1.0000
  H   H4342     1.0  0.81966  0.84116  0.13924  1.0000
  H   H4343     1.0  0.71013  0.96768  0.34791  1.0000
  H   H4344     1.0  0.90060  0.84219  0.18046  1.0000
  H   H4345     1.0  0.79212  0.91267  0.37386  1.0000
  H   H4346     1.0  0.89501  0.92322  0.07561  1.0000
  C   C2545     1.0  0.78461  0.91073  0.36145  1.0000
  C   C2546     1.0  0.95186  0.91009  0.16916  1.0000
  H   H4347     1.0  0.80274  0.92920  0.33758  1.0000
  H   H4348     1.0  0.94794  0.92637  0.16287  1.0000
  C   C2547     1.0  0.83406  0.96572  0.26272  1.0000
  C   C2548     1.0  0.92124  0.97614  0.18091  1.0000
  C   C2549     1.0  0.68579  0.82791  0.40441  1.0000
  H   H4349     1.0  0.94583  0.89848  0.02732  1.0000
  C   C2550     1.0  0.73903  0.96175  0.25703  1.0000
  C   C2551     1.0  0.83313  0.88702  0.37210  1.0000
  C   C2552     1.0  0.67334  0.84436  0.43509  1.0000
  H   H4350     1.0  0.74808  0.96748  0.30309  1.0000
  H   H4351     1.0  0.91597  0.95627  0.21930  1.0000
  C   C2553     1.0  0.98198  0.81762  0.98667  1.0000
  H   H4352     1.0  0.86441  0.96174  0.20130  1.0000
  H   H4353     1.0  0.81748  0.88839  0.38162  1.0000
  N   N183      1.0  0.94823  0.74290  0.08511  1.0000
  H   H4354     1.0  0.72391  0.81019  0.41785  1.0000
  H   H4355     1.0  0.77857  0.91711  0.43274  1.0000
  H   H4356     1.0  0.69526  0.89157  0.46412  1.0000
  H   H4357     1.0  0.83254  0.91634  0.35131  1.0000
  H   H4358     1.0  0.94058  0.90180  0.07172  1.0000
  H   H4359     1.0  0.94829  0.93697  0.06123  1.0000
  H   H4360     1.0  0.75097  0.92184  0.43519  1.0000
  H   H4361     1.0  0.77029  0.93019  0.25204  1.0000
  H   H4362     1.0  0.88611  0.95000  0.21367  1.0000
  C   C2554     1.0  0.92039  0.95919  0.05684  1.0000
  H   H4363     1.0  0.86581  0.95973  0.24741  1.0000
  C   C2555     1.0  0.81941  0.97841  0.27475  1.0000
  C   C2556     1.0  0.71675  0.98036  0.33787  1.0000
  C   C2557     1.0  0.79894  0.91338  0.34031  1.0000
  C   C2558     1.0  0.93809  0.94195  0.04934  1.0000
  H   H4364     1.0  0.84459  0.92164  0.29085  1.0000
  H   H4365     1.0  0.79839  0.91215  0.27355  1.0000
  C   C2559     1.0  0.68155  0.86539  0.40009  1.0000
  C   C2560     1.0  0.83384  0.89980  0.35010  1.0000
  H   H4366     1.0  0.92349  0.95899  0.18354  1.0000
  S   S743      1.0  0.80202  0.75780  0.45755  1.0000
  H   H4367     1.0  0.94775  0.94958  0.03540  1.0000
  H   H4368     1.0  0.97371  0.73666  0.04476  1.0000
  S   S744      1.0  0.87886  0.97282  0.10345  1.0000
  H   H4369     1.0  0.69170  0.86549  0.38463  1.0000
  H   H4370     1.0  0.77436  0.97691  0.09061  1.0000
  H   H4371     1.0  0.73519  0.88696  0.44691  1.0000
  C   C2561     1.0  0.92684  0.90801  0.06411  1.0000
  H   H4372     1.0  0.90087  0.94947  0.00796  1.0000
  C   C2562     1.0  0.71005  0.84317  0.41617  1.0000
  H   H4373     1.0  0.87129  0.76555  0.44973  1.0000
  C   C2563     1.0  0.96400  0.75705  0.07678  1.0000
  H   H4374     1.0  0.82858  0.86445  0.34094  1.0000
  H   H4375     1.0  0.83938  0.87042  0.37150  1.0000
  C   C2564     1.0  0.97271  0.87624  0.16604  1.0000
  Fe  Fe375     1.0  0.67911  0.94887  0.32610  1.0000
  H   H4376     1.0  0.68989  0.81267  0.41437  1.0000
  H   H4377     1.0  0.73432  0.82377  0.43218  1.0000
  H   H4378     1.0  0.98291  0.89945  0.02689  1.0000
  C   C2565     1.0  0.92712  0.75336  0.08026  1.0000
  C   C2566     1.0  0.77239  0.94674  0.28453  1.0000
  H   H4379     1.0  0.75282  0.93811  0.32700  1.0000
  C   C2567     1.0  0.90973  0.91610  0.08110  1.0000
  H   H4380     1.0  0.92220  0.89441  0.06034  1.0000
  H   H4381     1.0  0.92822  0.76002  0.06361  1.0000
  H   H4382     1.0  0.72812  0.95585  0.28951  1.0000
  C   C2568     1.0  0.91377  0.92870  0.03334  1.0000
  H   H4383     1.0  0.92326  0.96295  0.07117  1.0000
  H   H4384     1.0  0.96203  0.76539  0.06104  1.0000
  H   H4385     1.0  0.89252  0.73989  0.42977  1.0000
  H   H4386     1.0  0.89909  0.93462  0.04298  1.0000
  H   H4387     1.0  0.84696  0.87604  0.45698  1.0000
  H   H4388     1.0  0.69629  0.88578  0.41247  1.0000
  H   H4389     1.0  0.77061  0.92305  0.36101  1.0000
  H   H4390     1.0  0.79659  0.85434  0.33708  1.0000
  N   N184      1.0  0.68759  0.84542  0.41442  1.0000
  H   H4391     1.0  0.76494  0.98061  0.28262  1.0000
  H   H4392     1.0  0.78401  0.88067  0.33207  1.0000
  H   H4393     1.0  0.82335  0.93512  0.30646  1.0000
  S   S745      1.0  0.85986  0.75507  0.08898  1.0000
  C   C2569     1.0  0.75190  0.91952  0.30390  1.0000
  H   H4394     1.0  0.92274  0.97338  0.14898  1.0000
  H   H4395     1.0  0.91928  0.77015  0.10701  1.0000
  H   H4396     1.0  0.78305  0.89166  0.28357  1.0000
  H   H4397     1.0  0.72603  0.93632  0.27702  1.0000
  H   H4398     1.0  0.91059  0.91445  0.02945  1.0000
  C   C2570     1.0  0.91615  0.94454  0.01309  1.0000
  S   S746      1.0  0.69169  0.97851  0.31034  1.0000
  C   C2571     1.0  0.86571  0.75056  0.45251  1.0000
  H   H4399     1.0  0.78768  0.96694  0.00379  1.0000
  H   H4400     1.0  0.72471  0.77624  0.46267  1.0000
  H   H4401     1.0  0.94839  0.97228  0.20910  1.0000
  C   C2572     1.0  0.97061  0.90518  0.03929  1.0000
  H   H4402     1.0  0.96982  0.89194  0.05220  1.0000
  H   H4403     1.0  0.80377  0.97548  0.27954  1.0000
  H   H4404     1.0  0.76409  0.97793  0.01796  1.0000
  C   C2573     1.0  0.66412  0.82802  0.39979  1.0000
  C   C2574     1.0  0.87171  0.73299  0.10425  1.0000
  H   H4405     1.0  0.74866  0.78368  0.46445  1.0000
  H   H4406     1.0  0.84138  0.75402  0.97906  1.0000
  C   C2575     1.0  0.77461  0.98026  0.00283  1.0000
  H   H4407     1.0  0.86975  0.75200  0.41950  1.0000
  H   H4408     1.0  0.90293  0.97674  0.23226  1.0000
  H   H4409     1.0  0.76674  0.97881  0.99053  1.0000
  N   N185      1.0  0.87021  0.73756  0.47278  1.0000
  H   H4410     1.0  0.91659  0.74196  0.08255  1.0000
  H   H4411     1.0  0.94661  0.73810  0.04380  1.0000
  H   H4412     1.0  0.94649  0.77685  0.97856  1.0000
  H   H4413     1.0  0.98820  0.82958  0.99149  1.0000
  H   H4414     1.0  0.73624  0.98237  0.35886  1.0000
  H   H4415     1.0  0.74045  0.73874  0.47564  1.0000
  C   C2576     1.0  0.89301  0.73420  0.47381  1.0000
  H   H4416     1.0  0.85383  0.78228  0.47527  1.0000
  H   H4417     1.0  0.95417  0.96193  0.76803  1.0000
  H   H4418     1.0  0.94881  0.76381  0.56882  1.0000
  H   H4419     1.0  0.97945  0.82418  0.97075  1.0000
  H   H4420     1.0  0.82248  0.89954  0.47851  1.0000
  H   H4421     1.0  0.69215  0.87790  0.58278  1.0000
  H   H4422     1.0  0.73636  0.88659  0.83670  1.0000
  C   C2577     1.0  0.73694  0.91207  0.48533  1.0000
  H   H4423     1.0  0.72369  0.77522  0.53795  1.0000
  S   S747      1.0  0.68804  0.81118  0.48980  1.0000
  Fe  Fe376     1.0  0.77777  0.85313  0.58096  1.0000
  S   S748      1.0  0.77815  0.88666  0.56845  1.0000
  S   S749      1.0  0.80339  0.83111  0.59555  1.0000
  Fe  Fe377     1.0  0.73823  0.85391  0.56445  1.0000
  S   S750      1.0  0.73556  0.88772  0.55048  1.0000
  S   S751      1.0  0.71371  0.83466  0.56617  1.0000
  Fe  Fe378     1.0  0.77010  0.87982  0.54028  1.0000
  S   S752      1.0  0.78707  0.89352  0.50965  1.0000
  Fe  Fe379     1.0  0.74371  0.89153  0.57995  1.0000
  S   S753      1.0  0.72935  0.91740  0.59805  1.0000
  S   S754      1.0  0.77212  0.84574  0.55183  1.0000
  S   S755      1.0  0.74395  0.85822  0.59489  1.0000
  Fe  Fe380     1.0  0.89498  0.84587  0.63873  1.0000
  S   S756      1.0  0.90555  0.81483  0.65772  1.0000
  S   S757      1.0  0.86241  0.86402  0.63902  1.0000
  Fe  Fe381     1.0  0.93740  0.84776  0.61274  1.0000
  S   S758      1.0  0.95086  0.81678  0.62883  1.0000
  H   H4424     1.0  0.97398  0.75804  0.59342  1.0000
  Fe  Fe382     1.0  0.92162  0.80670  0.62682  1.0000
  S   S759      1.0  0.92326  0.77895  0.61196  1.0000
  Fe  Fe383     1.0  0.93407  0.82817  0.65810  1.0000
  S   S760      1.0  0.95511  0.82204  0.68249  1.0000
  S   S761      1.0  0.90969  0.83691  0.60818  1.0000
  S   S762      1.0  0.92187  0.85978  0.64172  1.0000
  H   H4425     1.0  0.86197  0.74105  0.50504  1.0000
  C   C2578     1.0  0.96220  0.83955  0.69548  1.0000
  C   C2579     1.0  0.95188  0.86006  0.69512  1.0000
  C   C2580     1.0  0.95739  0.87296  0.70646  1.0000
  H   H4426     1.0  0.70296  0.91557  0.49318  1.0000
  C   C2581     1.0  0.77920  0.73894  0.62390  1.0000
  C   C2582     1.0  0.97849  0.83243  0.70692  1.0000
  H   H4427     1.0  0.93928  0.86586  0.68654  1.0000
  H   H4428     1.0  0.94888  0.88859  0.70644  1.0000
  H   H4429     1.0  0.69513  0.91998  0.63899  1.0000
  C   C2583     1.0  0.85817  0.74922  0.48972  1.0000
  C   C2584     1.0  0.90102  0.76780  0.61491  1.0000
  C   C2585     1.0  0.88400  0.77136  0.63061  1.0000
  C   C2586     1.0  0.86758  0.76031  0.63394  1.0000
  C   C2587     1.0  0.72329  0.89162  0.84888  1.0000
  C   C2588     1.0  0.69128  0.97959  0.83605  1.0000
  H   H4430     1.0  0.88379  0.78212  0.64058  1.0000
  H   H4431     1.0  0.76200  0.73607  0.51454  1.0000
  C   C2589     1.0  0.70715  0.93521  0.59190  1.0000
  C   C2590     1.0  0.69368  0.93046  0.58105  1.0000
  C   C2591     1.0  0.79954  0.74683  0.52727  1.0000
  H   H4432     1.0  0.69762  0.91618  0.57503  1.0000
  H   H4433     1.0  0.73988  0.91769  0.81592  1.0000
  C   C2592     1.0  0.81955  0.84053  0.60769  1.0000
  C   C2593     1.0  0.83759  0.82744  0.61326  1.0000
  C   C2594     1.0  0.85101  0.83461  0.62254  1.0000
  C   C2595     1.0  0.84614  0.85474  0.62691  1.0000
  C   C2596     1.0  0.82797  0.86772  0.62158  1.0000
  C   C2597     1.0  0.81485  0.86076  0.61175  1.0000
  H   H4434     1.0  0.84128  0.81170  0.61042  1.0000
  H   H4435     1.0  0.86486  0.82440  0.62676  1.0000
  H   H4436     1.0  0.82405  0.88327  0.62501  1.0000
  H   H4437     1.0  0.80093  0.87094  0.60765  1.0000
  C   C2598     1.0  0.79631  0.76708  0.51623  1.0000
  H   H4438     1.0  0.91406  0.75119  0.58978  1.0000
  C   C2599     1.0  0.80283  0.85531  0.49833  1.0000
  H   H4439     1.0  0.89308  0.74302  0.67973  1.0000
  H   H4440     1.0  0.79035  0.84956  0.50949  1.0000
  H   H4441     1.0  0.74939  0.91261  0.49378  1.0000
  C   C2600     1.0  0.70600  0.92346  0.82763  1.0000
  H   H4442     1.0  0.79255  0.78007  0.52430  1.0000
  H   H4443     1.0  0.94623  0.83447  0.57177  1.0000
  H   H4444     1.0  0.68759  0.89708  0.81753  1.0000
  C   C2601     1.0  0.69399  0.81965  0.51063  1.0000
  C   C2602     1.0  0.68150  0.81719  0.53012  1.0000
  C   C2603     1.0  0.68767  0.82203  0.54697  1.0000
  C   C2604     1.0  0.70607  0.82983  0.54438  1.0000
  C   C2605     1.0  0.71823  0.83293  0.52478  1.0000
  C   C2606     1.0  0.71227  0.82773  0.50796  1.0000
  H   H4445     1.0  0.69706  0.91474  0.66536  1.0000
  H   H4446     1.0  0.67819  0.81955  0.56212  1.0000
  H   H4447     1.0  0.73260  0.83854  0.52285  1.0000
  H   H4448     1.0  0.72205  0.82950  0.49294  1.0000
  H   H4449     1.0  0.72941  0.78775  0.49866  1.0000
  H   H4450     1.0  0.82459  0.77834  0.60511  1.0000
  H   H4451     1.0  0.93319  0.74146  0.55552  1.0000
  C   C2607     1.0  0.73143  0.90359  0.86178  1.0000
  C   C2608     1.0  0.98430  0.84547  0.71789  1.0000
  H   H4452     1.0  0.66256  0.91703  0.70418  1.0000
  C   C2609     1.0  0.72513  0.92466  0.81028  1.0000
  H   H4453     1.0  0.74854  0.89883  0.86026  1.0000
  H   H4454     1.0  0.73234  0.79186  0.63236  1.0000
  C   C2610     1.0  0.94228  0.74719  0.54051  1.0000
  H   H4455     1.0  0.71641  0.89766  0.51249  1.0000
  H   H4456     1.0  0.77274  0.73357  0.61253  1.0000
  H   H4457     1.0  0.90944  0.73823  0.86787  1.0000
  C   C2611     1.0  0.90109  0.75385  0.60206  1.0000
  S   S763      1.0  0.66257  0.92938  0.78634  1.0000
  C   C2612     1.0  0.96591  0.73966  0.53908  1.0000
  H   H4458     1.0  0.71469  0.88757  0.81276  1.0000
  H   H4459     1.0  0.69381  0.92274  0.87526  1.0000
  H   H4460     1.0  0.97031  0.96105  0.79931  1.0000
  H   H4461     1.0  0.93848  0.76435  0.53713  1.0000
  N   N186      1.0  0.77161  0.77796  0.60847  1.0000
  C   C2613     1.0  0.76886  0.76114  0.62711  1.0000
  C   C2614     1.0  0.76295  0.79860  0.61525  1.0000
  C   C2615     1.0  0.79419  0.77739  0.59905  1.0000
  C   C2616     1.0  0.76037  0.77469  0.59259  1.0000
  H   H4462     1.0  0.98256  0.75771  0.97361  1.0000
  H   H4463     1.0  0.70584  0.76880  0.49318  1.0000
  C   C2617     1.0  0.97398  0.82033  0.55371  1.0000
  C   C2618     1.0  0.76079  0.79105  0.57263  1.0000
  H   H4464     1.0  0.77479  0.76437  0.64014  1.0000
  H   H4465     1.0  0.75212  0.76067  0.63294  1.0000
  H   H4466     1.0  0.76823  0.81155  0.60342  1.0000
  H   H4467     1.0  0.76903  0.79957  0.62910  1.0000
  H   H4468     1.0  0.96148  0.78621  0.95451  1.0000
  C   C2619     1.0  0.86148  0.77169  0.48762  1.0000
  H   H4469     1.0  0.76723  0.75969  0.58739  1.0000
  H   H4470     1.0  0.74399  0.77301  0.59917  1.0000
  H   H4471     1.0  0.95513  0.80070  0.97552  1.0000
  C   C2620     1.0  0.73995  0.77420  0.50569  1.0000
  C   C2621     1.0  0.66780  0.89272  0.64978  1.0000
  H   H4472     1.0  0.69378  0.77319  0.52708  1.0000
  H   H4473     1.0  0.95357  0.75113  0.66953  1.0000
  C   C2622     1.0  0.73908  0.80396  0.62056  1.0000
  H   H4474     1.0  0.73387  0.73299  0.90749  1.0000
  C   C2623     1.0  0.66692  0.93213  0.69639  1.0000
  C   C2624     1.0  0.68241  0.86961  0.59599  1.0000
  H   H4475     1.0  0.77489  0.78706  0.56115  1.0000
  H   H4476     1.0  0.76005  0.80686  0.57529  1.0000
  H   H4477     1.0  0.74677  0.79193  0.56593  1.0000
  H   H4478     1.0  0.86560  0.84535  0.49410  1.0000
  H   H4479     1.0  0.70909  0.74199  0.49822  1.0000
  C   C2625     1.0  0.86801  0.74589  0.62143  1.0000
  H   H4480     1.0  0.85468  0.76272  0.64642  1.0000
  H   H4481     1.0  0.69020  0.95939  0.64031  1.0000
  H   H4482     1.0  0.68407  0.88473  0.65020  1.0000
  H   H4483     1.0  0.80387  0.79137  0.62168  1.0000
  H   H4484     1.0  0.66754  0.89875  0.67951  1.0000
  C   C2626     1.0  0.70219  0.95398  0.59931  1.0000
  H   H4485     1.0  0.71478  0.92482  0.50991  1.0000
  H   H4486     1.0  0.68092  0.96840  0.75191  1.0000
  H   H4487     1.0  0.66755  0.91884  0.88181  1.0000
  C   C2627     1.0  0.79781  0.77061  0.49472  1.0000
  C   C2628     1.0  0.81643  0.84212  0.48582  1.0000
  H   H4488     1.0  0.67081  0.90436  0.85022  1.0000
  C   C2629     1.0  0.97030  0.95446  0.76960  1.0000
  C   C2630     1.0  0.67498  0.94412  0.57835  1.0000
  H   H4489     1.0  0.95227  0.73613  0.64006  1.0000
  H   H4490     1.0  0.69717  0.95154  0.66547  1.0000
  H   H4491     1.0  0.66047  0.94308  0.70735  1.0000
  H   H4492     1.0  0.72604  0.94119  0.80394  1.0000
  H   H4493     1.0  0.73474  0.81854  0.62698  1.0000
  C   C2631     1.0  0.83264  0.73415  0.96201  1.0000
  C   C2632     1.0  0.69812  0.94646  0.65065  1.0000
  C   C2633     1.0  0.69886  0.75675  0.52513  1.0000
  H   H4494     1.0  0.67416  0.88907  0.52960  1.0000
  H   H4495     1.0  0.96452  0.78432  0.58382  1.0000
  H   H4496     1.0  0.93607  0.76874  0.65476  1.0000
  H   H4497     1.0  0.67045  0.74020  0.83243  1.0000
  H   H4498     1.0  0.66514  0.93416  0.62626  1.0000
  H   H4499     1.0  0.75716  0.84090  0.49024  1.0000
  C   C2634     1.0  0.67537  0.88186  0.54583  1.0000
  C   C2635     1.0  0.97359  0.86581  0.71800  1.0000
  H   H4500     1.0  0.68377  0.86668  0.84757  1.0000
  H   H4501     1.0  0.73344  0.87081  0.49907  1.0000
  H   H4502     1.0  0.67888  0.87800  0.60912  1.0000
  C   C2636     1.0  0.80475  0.73364  0.49536  1.0000
  H   H4503     1.0  0.69193  0.93019  0.82050  1.0000
  H   H4504     1.0  0.66665  0.90086  0.63390  1.0000
  H   H4505     1.0  0.79605  0.79091  0.58642  1.0000
  H   H4506     1.0  0.81464  0.82615  0.48776  1.0000
  H   H4507     1.0  0.71482  0.94360  0.64364  1.0000
  C   C2637     1.0  0.97438  0.76992  0.57924  1.0000
  H   H4508     1.0  0.98012  0.95434  0.75411  1.0000
  N   N187      1.0  0.66608  0.92851  0.65915  1.0000
  H   H4509     1.0  0.73899  0.73707  0.53276  1.0000
  C   C2638     1.0  0.67726  0.97184  0.73609  1.0000
  H   H4510     1.0  0.68400  0.93054  0.69385  1.0000
  Fe  Fe384     1.0  0.66201  0.95655  0.80161  1.0000
  S   S764      1.0  0.95807  0.86566  0.58786  1.0000
  N   N188      1.0  0.85808  0.81188  0.54178  1.0000
  C   C2639     1.0  0.84777  0.79299  0.54694  1.0000
  C   C2640     1.0  0.88078  0.80445  0.54288  1.0000
  C   C2641     1.0  0.85583  0.82211  0.51995  1.0000
  C   C2642     1.0  0.84746  0.82628  0.55680  1.0000
  C   C2643     1.0  0.82485  0.79683  0.54428  1.0000
  C   C2644     1.0  0.88547  0.79048  0.56334  1.0000
  C   C2645     1.0  0.86593  0.84141  0.51092  1.0000
  C   C2646     1.0  0.86036  0.84089  0.56122  1.0000
  H   H4511     1.0  0.85648  0.78108  0.53751  1.0000
  H   H4512     1.0  0.84795  0.78536  0.56331  1.0000
  H   H4513     1.0  0.88925  0.81754  0.54029  1.0000
  H   H4514     1.0  0.88846  0.79555  0.53027  1.0000
  H   H4515     1.0  0.86215  0.81080  0.50923  1.0000
  H   H4516     1.0  0.83922  0.82745  0.51858  1.0000
  H   H4517     1.0  0.83316  0.83613  0.55174  1.0000
  H   H4518     1.0  0.84192  0.81730  0.57213  1.0000
  H   H4519     1.0  0.82331  0.80007  0.52776  1.0000
  H   H4520     1.0  0.81830  0.78252  0.55127  1.0000
  H   H4521     1.0  0.81528  0.80953  0.55210  1.0000
  H   H4522     1.0  0.87567  0.79631  0.57710  1.0000
  H   H4523     1.0  0.88332  0.77440  0.56388  1.0000
  H   H4524     1.0  0.90194  0.78966  0.56449  1.0000
  C   C2647     1.0  0.68509  0.90324  0.85671  1.0000
  H   H4525     1.0  0.89434  0.95850  0.56602  1.0000
  H   H4526     1.0  0.69409  0.85979  0.82293  1.0000
  H   H4527     1.0  0.87221  0.83231  0.57066  1.0000
  H   H4528     1.0  0.84983  0.85205  0.57047  1.0000
  H   H4529     1.0  0.86792  0.85013  0.54719  1.0000
  N   N189      1.0  0.89218  0.90538  0.57962  1.0000
  C   C2648     1.0  0.90375  0.89842  0.55978  1.0000
  C   C2649     1.0  0.88464  0.92844  0.57497  1.0000
  C   C2650     1.0  0.87376  0.89477  0.58857  1.0000
  C   C2651     1.0  0.90664  0.89990  0.59505  1.0000
  C   C2652     1.0  0.90998  0.87483  0.56052  1.0000
  C   C2653     1.0  0.90154  0.94204  0.57034  1.0000
  H   H4530     1.0  0.93691  0.74142  0.52862  1.0000
  C   C2654     1.0  0.89790  0.90720  0.61597  1.0000
  H   H4531     1.0  0.89471  0.90469  0.54704  1.0000
  H   H4532     1.0  0.91844  0.90473  0.55453  1.0000
  H   H4533     1.0  0.87251  0.93383  0.58771  1.0000
  H   H4534     1.0  0.87668  0.93256  0.56135  1.0000
  H   H4535     1.0  0.87876  0.87791  0.59390  1.0000
  H   H4536     1.0  0.86497  0.90063  0.60280  1.0000
  H   H4537     1.0  0.91124  0.88283  0.59897  1.0000
  H   H4538     1.0  0.92178  0.90514  0.58854  1.0000
  H   H4539     1.0  0.89644  0.86682  0.56447  1.0000
  H   H4540     1.0  0.91831  0.87183  0.54505  1.0000
  H   H4541     1.0  0.92090  0.86779  0.57132  1.0000
  H   H4542     1.0  0.75589  0.77640  0.49783  1.0000
  H   H4543     1.0  0.90864  0.94104  0.58405  1.0000
  H   H4544     1.0  0.91385  0.93809  0.55724  1.0000
  H   H4545     1.0  0.69176  0.88110  0.54714  1.0000
  H   H4546     1.0  0.94910  0.73724  0.59528  1.0000
  H   H4547     1.0  0.92579  0.75343  0.67836  1.0000
  H   H4548     1.0  0.81894  0.74506  0.95841  1.0000
  H   H4549     1.0  0.88757  0.92244  0.61475  1.0000
  H   H4550     1.0  0.91093  0.90909  0.62282  1.0000
  C   C2655     1.0  0.80493  0.87608  0.49566  1.0000
  C   C2656     1.0  0.69742  0.86702  0.83498  1.0000
  H   H4551     1.0  0.72062  0.87678  0.85922  1.0000
  C   C2657     1.0  0.73901  0.77644  0.52822  1.0000
  H   H4552     1.0  0.67148  0.95818  0.73412  1.0000
  H   H4553     1.0  0.98670  0.97207  0.81956  1.0000
  H   H4554     1.0  0.85043  0.91375  0.57035  1.0000
  H   H4555     1.0  0.96597  0.77661  0.54897  1.0000
  H   H4556     1.0  0.66740  0.81097  0.53237  1.0000
  C   C2658     1.0  0.70104  0.88928  0.82533  1.0000
  N   N190      1.0  0.70410  0.90216  0.83995  1.0000
  C   C2659     1.0  0.66053  0.90721  0.66586  1.0000
  H   H4557     1.0  0.65864  0.95650  0.63729  1.0000
  H   H4558     1.0  0.80049  0.76358  0.59146  1.0000
  C   C2660     1.0  0.93831  0.75321  0.66469  1.0000
  C   C2661     1.0  0.85792  0.89735  0.57419  1.0000
  H   H4559     1.0  0.79521  0.78625  0.48642  1.0000
  H   H4560     1.0  0.67518  0.93625  0.85895  1.0000
  H   H4561     1.0  0.73182  0.80686  0.60661  1.0000
  H   H4562     1.0  0.86488  0.89108  0.55986  1.0000
  C   C2662     1.0  0.80869  0.77766  0.61398  1.0000
  C   C2663     1.0  0.93801  0.73660  0.65212  1.0000
  H   H4563     1.0  0.75829  0.87541  0.49820  1.0000
  H   H4564     1.0  0.88925  0.89575  0.62684  1.0000
  C   C2664     1.0  0.71658  0.91214  0.50105  1.0000
  H   H4565     1.0  0.75137  0.76527  0.53539  1.0000
  H   H4566     1.0  0.98444  0.83616  0.63276  1.0000
  C   C2665     1.0  0.88462  0.74301  0.60522  1.0000
  H   H4567     1.0  0.96995  0.93796  0.77667  1.0000
  H   H4568     1.0  0.66453  0.94054  0.56996  1.0000
  C   C2666     1.0  0.68051  0.92135  0.86872  1.0000
  H   H4569     1.0  0.72452  0.90004  0.87836  1.0000
  C   C2667     1.0  0.97220  0.84893  0.57104  1.0000
  H   H4570     1.0  0.65755  0.88097  0.65313  1.0000
  H   H4571     1.0  0.68481  0.74996  0.52638  1.0000
  H   H4572     1.0  0.80988  0.76350  0.62591  1.0000
  H   H4573     1.0  0.72387  0.91765  0.79721  1.0000
  C   C2668     1.0  0.96255  0.83459  0.56610  1.0000
  H   H4574     1.0  0.84538  0.88856  0.58231  1.0000
  H   H4575     1.0  0.96623  0.80978  0.54947  1.0000
  H   H4576     1.0  0.70458  0.88278  0.48777  1.0000
  H   H4577     1.0  0.72899  0.92054  0.85660  1.0000
  H   H4578     1.0  0.85677  0.85504  0.51753  1.0000
  H   H4579     1.0  0.69166  0.97323  0.72466  1.0000
  N   N191      1.0  0.73544  0.75430  0.50198  1.0000
  C   C2669     1.0  0.71246  0.75518  0.50381  1.0000
  H   H4580     1.0  0.66739  0.85374  0.58055  1.0000
  C   C2670     1.0  0.68332  0.96744  0.59699  1.0000
  H   H4581     1.0  0.74204  0.79206  0.52825  1.0000
  H   H4582     1.0  0.85397  0.77742  0.50217  1.0000
  C   C2671     1.0  0.74511  0.73608  0.51633  1.0000
  S   S765      1.0  0.79604  0.74266  0.55429  1.0000
  H   H4583     1.0  0.97269  0.74740  0.52351  1.0000
  H   H4584     1.0  0.87814  0.77282  0.48493  1.0000
  N   N192      1.0  0.97611  0.74363  0.55557  1.0000
  C   C2672     1.0  0.66951  0.96236  0.58677  1.0000
  C   C2673     1.0  0.68936  0.92632  0.65358  1.0000
  H   H4585     1.0  0.88241  0.83906  0.51247  1.0000
  H   H4586     1.0  0.70645  0.93463  0.83741  1.0000
  C   C2674     1.0  0.97944  0.96445  0.78353  1.0000
  H   H4587     1.0  0.98655  0.81660  0.70750  1.0000
  H   H4588     1.0  0.92522  0.74272  0.64334  1.0000
  C   C2675     1.0  0.96551  0.76380  0.56249  1.0000
  S   S766      1.0  0.84809  0.73451  0.56883  1.0000
  C   C2676     1.0  0.74755  0.87432  0.48814  1.0000
  H   H4589     1.0  0.68583  0.88874  0.86839  1.0000
  H   H4590     1.0  0.71300  0.95810  0.60693  1.0000
  C   C2677     1.0  0.80166  0.75391  0.48426  1.0000
  H   H4591     1.0  0.70632  0.74788  0.53820  1.0000
  S   S767      1.0  0.68986  0.97294  0.79681  1.0000
  H   H4592     1.0  0.69187  0.85439  0.60116  1.0000
  H   H4593     1.0  0.89069  0.75036  0.88768  1.0000
  C   C2678     1.0  0.82087  0.88347  0.48073  1.0000
  H   H4594     1.0  0.71134  0.85718  0.84055  1.0000
  H   H4595     1.0  0.79624  0.73737  0.61930  1.0000
  C   C2679     1.0  0.89365  0.74715  0.87174  1.0000
  C   C2680     1.0  0.87648  0.73700  0.86809  1.0000
  C   C2681     1.0  0.84538  0.73931  0.97378  1.0000
  H   H4596     1.0  0.89340  0.76248  0.86142  1.0000
  H   H4597     1.0  0.86187  0.74786  0.87226  1.0000
  H   H4598     1.0  0.84125  0.74992  0.49103  1.0000
  S   S768      1.0  0.97894  0.88253  0.73304  1.0000
  H   H4599     1.0  0.76264  0.74722  0.47892  1.0000
  H   H4600     1.0  0.67873  0.97097  0.84175  1.0000
  C   C2682     1.0  0.95971  0.78509  0.97145  1.0000
  H   H4601     1.0  0.83622  0.73717  0.86430  1.0000
  H   H4602     1.0  0.67237  0.86597  0.54786  1.0000
  C   C2683     1.0  0.74551  0.75164  0.48016  1.0000
  H   H4603     1.0  0.67027  0.90564  0.56381  1.0000
  H   H4604     1.0  0.87855  0.73743  0.85114  1.0000
  C   C2684     1.0  0.75693  0.85499  0.47812  1.0000
  H   H4605     1.0  0.67946  0.98172  0.60308  1.0000
  C   C2685     1.0  0.66052  0.89574  0.56040  1.0000
  C   C2686     1.0  0.66255  0.86594  0.59022  1.0000
  H   H4606     1.0  0.98786  0.80443  0.94817  1.0000
  C   C2687     1.0  0.65764  0.94058  0.67650  1.0000
  H   H4607     1.0  0.65960  0.95707  0.67143  1.0000
  C   C2688     1.0  0.65674  0.94005  0.64053  1.0000
  H   H4608     1.0  0.65645  0.90549  0.59775  1.0000
