data_image0
_chemical_formula_structural       CS2FeS2FeSHFeSFeS3H4C2FeS2FeH5C6H5C7H4C2H3CHNCH6C3H11SFeCH3CHCHCH2C4H2FeH9CH5S2HFeH2C2HCHCH3CHC3H3S2CH2CSH2C3NH2CH3CHCH4NHSCNCH6CH3C2H5C3NCHCHCHCH3SFeCHSCSHFeSCSCH3FeHCFeCFeSH2SCHCH4CH5C6HC6H7SHCH7C2HCHSHCHFeCH3NH2SCH7CSCH2CHCHCH2CHCH3CH3CHCH2CHCH4CSC2H2CH2CHFeS2FeS2FeSFeS3HSC2HS3FeSC2SH2FeSFeSCHCSH5C6HCH2C3HC2HC7H4CH2C2H2C6H4CH4C2H2NFeC3H4C2H3CHC6H2CH3CHNH5CH2C2H6CHCHCHCH2SH2CH2NH4CNC5HC2HSH7FeH10C3H9CH4C2H2CHCNCHCN2CH4CH4FeNC2H3CH4CH2CH2CH2CH2SFeC2H2CFeH12C2H2SH4NH2C3HCHSH5CHNH3CHCHCH2C2HC2H3CHCH2CSFeS4FeHC2H2SHNFeC2SHFeSCSFeS2FeSFeS2FeS2FeSFeSFeS2NFeS2HS2HFeC6H4C3H2C6H4SHCH3C6H12C7H4C2H3CHSHSCHC4H11SHCHCHC2SCH4SCH6CH3CH4CH5NHNC8H18Fe2C2SHC2HFeHCH4SHCH2C2H2NHS2H6CH2CHCHC2H5Fe2H5C2H5C3HCHCSHSHCHC2HCH2C2H4CHFeCHNH2C3HSH4CHCHC2SCHCHSHFeS2FeS2FeSFeHS3H2C2SHC7H6CH2C4H4C2H3CH2CH5SCHC3H2CHCH7CH5CFeH3CNHC3HC2HC2H2CNH4CH2NH2CH3FeHSHCHCH3C2H2CH2NHFeH4C2SFeS2NC3H3C4H2C2HCH3CH3C4H5FeHCSH3SC2H3CH3CH3CSH3C2HCH4C2SFeC2H2CHSHSCH2C2H8CH5SH2FeS2FeS2FeS2H2FeS3H3CHFeSCH3CHCH4CH2CHC6H5CHCH2CHNHCHCH3NH2CH2FeC2SC2HSH2FeC2H2CH3C3HCHC2H3SHCHC4FeHCNC7H5CH2CSH4CH6SHSCH4CH3SH2NC2H3SH3FeH5CH5C2H5C3HC2H9C4HC4H3SH3SCNC2HCH2CHFeHC2H8CSNHSHC2H2SFeH3C2NH3C4H2C2H3C2HNH2FeC3H2C2HFeC4HSH6FeH2CH4SH2C2HC3HCS2H2C2SH2SH2NH2CH3C2S2C2HFeSH2CHC2H4FeC2HCNH3CH5CH3CH7C2SFeS2FeSHFeSFeS3CHCSHFeSHSCH2CH4C3H2C6H5CSC6H6CSHC2HCHNCHC3HCH22CHCHFeH6CH2CHC2H2C2SH2FeH2CH2CHCNH2CHCNH10NHSH2C5H3CH4CHCH2SC2HSHCH5CH6CH3CH3CH2CFeS2FeSFeS2CHFeS3CHFeSFeHNH3C3FeH4CH2SH2C2HC5HCH3C6H11C2H8CFeCHCH4FeHCSH2C2H6NH2CHC2HC2SCH2SCHSHCH5CH3S2HCSFeHSCH3C4H4FeC2HCH3SHC2HCHCHCH2C2H4CHCHC3HCH4CH3CFeH5C2H2SHCHC2H2CHCH2CHC4HSHFeS3CSHCH2FeCSFeCSH2FeHS2CNHCHCNCH4CH4C4H3C2H3CNCH2SC6H3CH5CNCH4CH2SH5CHCH3CH7CHCH8C4H4FeSHFeS2HSFe2SFeSHFeS2FeSFeS3HS2CH2S2FeS2FeSFeSFeS3HC2H4C7H7C6H4C6H4CH2C8H4C6HCHSFeCH3CHC2H4CH3CH6CH3C2H2CH3CHNC2HC2H4SCHCH4CHCH4NCH2CH4CH11CHCNHSNC7H7CH2CH6CH3CHCH3CHCHC2HCH2SH4NC2H8SCH3CH2SC2S2H2C2HC2H2CH2FeCH4CHC2H4CH3CHCHCH2C2H5CFeS2FeS2H2FeSCH2CHCFeS2H3CHFeSHFeS2FeS2FeSFeS3CSFeSFeS2H3C6H4CHC2H2CHCHC2FeH2C6H6CH3SHSC3HNHFeCHNFeC2H5CH8CH4CHNC5HC2H10C2HCH7CSHCH3C4H9FeHCFeNFe2HCH2SCHC2HNHC2H3CSHSCHC2SH3CH2C3HC2H5CHC2H2CH2C2H2NCH12NCHC4HCH6NFe2HSC4HCH2C3H3SCH4C2HCHSH2C2H5CH3CHCH3NC3H3C3H5C3HNCH5SCH2CSHS2HC4HSCH2C3S2H2SHFeSFeSCH6C2H2CHCHC7H4NH7CH7CSH2CHCHNH4C3H2C4H2CH2NCH2CNHFeH2FeC3H2C2H6CH2FeC2H2C3SHC4H5CH4CH2CHNCH4CH5CH4CH2SH2CFeS3FeS2FeS2FeSFeS3FeS2H4C4H3C6H8C6H4C2HC2HNC2SC3HCH4SH10CFeHCHNH2C2SHC2H2CHC5HSH2CH5C2SNC8H21CH2CH2CHSCHSC2H2CH3C2H2CSHCHFeH2FeH2CHSH2NH2CH4CHCH7FeCH3NH4C2HCHCH
_chemical_formula_sum              "C1008 S288 Fe144 H1728 N72"
_cell_length_a       61.896
_cell_length_b       70.1218
_cell_length_c       32.2962
_cell_angle_alpha    85.0628
_cell_angle_beta     87.4336
_cell_angle_gamma    107.795

_space_group_name_H-M_alt    "P 1"
_space_group_IT_number       1

loop_
  _space_group_symop_operation_xyz
  'x, y, z'

loop_
  _atom_site_type_symbol
  _atom_site_label
  _atom_site_symmetry_multiplicity
  _atom_site_fract_x
  _atom_site_fract_y
  _atom_site_fract_z
  _atom_site_occupancy
  C   C1        1.0  0.26256  0.13106  0.04634  1.0000
  S   S1        1.0  0.28086  0.08769  0.11144  1.0000
  S   S2        1.0  0.33748  0.07990  0.09978  1.0000
  Fe  Fe1       1.0  0.27266  0.04107  0.34482  1.0000
  S   S3        1.0  0.29414  0.06670  0.37690  1.0000
  S   S4        1.0  0.28035  0.03413  0.28005  1.0000
  Fe  Fe2       1.0  0.24386  0.01956  0.42442  1.0000
  S   S5        1.0  0.26238  0.04349  0.46290  1.0000
  H   H1        1.0  0.25394  0.00176  0.17635  1.0000
  Fe  Fe3       1.0  0.26080  0.06563  0.40923  1.0000
  S   S6        1.0  0.25488  0.09344  0.43124  1.0000
  Fe  Fe4       1.0  0.29386  0.04276  0.42762  1.0000
  S   S7        1.0  0.32299  0.04040  0.46366  1.0000
  S   S8        1.0  0.23900  0.04160  0.37324  1.0000
  S   S9        1.0  0.27564  0.01716  0.39301  1.0000
  H   H2        1.0  0.32943  0.04189  0.23788  1.0000
  H   H3        1.0  0.39479  0.16741  0.06968  1.0000
  H   H4        1.0  0.33954  0.17140  0.04410  1.0000
  H   H5        1.0  0.29424  0.12090  0.32131  1.0000
  C   C2        1.0  0.31257  0.12972  0.25875  1.0000
  C   C3        1.0  0.32995  0.16358  0.22035  1.0000
  Fe  Fe5       1.0  0.27629  0.20067  0.32827  1.0000
  S   S10       1.0  0.25115  0.17064  0.31751  1.0000
  S   S11       1.0  0.30749  0.20112  0.36145  1.0000
  Fe  Fe6       1.0  0.32627  0.22056  0.30391  1.0000
  H   H6        1.0  0.32922  0.12960  0.26973  1.0000
  H   H7        1.0  0.35950  0.04476  0.51396  1.0000
  H   H8        1.0  0.31372  0.00892  0.26476  1.0000
  H   H9        1.0  0.32625  0.15974  0.18810  1.0000
  H   H10       1.0  0.34944  0.01346  0.47159  1.0000
  C   C4        1.0  0.25529  0.11471  0.39747  1.0000
  C   C5        1.0  0.24635  0.11288  0.35844  1.0000
  C   C6        1.0  0.24483  0.13009  0.33430  1.0000
  C   C7        1.0  0.25281  0.14922  0.34855  1.0000
  C   C8        1.0  0.26218  0.15101  0.38713  1.0000
  C   C9        1.0  0.26308  0.13379  0.41173  1.0000
  H   H11       1.0  0.23997  0.09819  0.34747  1.0000
  H   H12       1.0  0.23742  0.12860  0.30458  1.0000
  H   H13       1.0  0.26811  0.16561  0.39865  1.0000
  H   H14       1.0  0.26973  0.13528  0.44212  1.0000
  H   H15       1.0  0.25628  0.14263  0.05954  1.0000
  C   C10       1.0  0.37888  0.03191  0.37772  1.0000
  C   C11       1.0  0.27986  0.07317  0.15928  1.0000
  C   C12       1.0  0.28763  0.05648  0.15957  1.0000
  C   C13       1.0  0.28779  0.04493  0.19691  1.0000
  C   C14       1.0  0.28020  0.04991  0.23469  1.0000
  C   C15       1.0  0.27217  0.06657  0.23489  1.0000
  C   C16       1.0  0.27193  0.07819  0.19703  1.0000
  H   H16       1.0  0.29354  0.05244  0.13076  1.0000
  H   H17       1.0  0.29389  0.03205  0.19637  1.0000
  H   H18       1.0  0.26603  0.07035  0.26397  1.0000
  H   H19       1.0  0.26580  0.09107  0.19700  1.0000
  C   C17       1.0  0.34428  0.03720  0.43012  1.0000
  C   C18       1.0  0.35129  0.04923  0.39204  1.0000
  H   H20       1.0  0.34328  0.06048  0.38277  1.0000
  H   H21       1.0  0.33238  0.01563  0.19409  1.0000
  H   H22       1.0  0.28800  0.15718  0.11725  1.0000
  C   C19       1.0  0.20970  0.05807  0.50663  1.0000
  H   H23       1.0  0.25234  0.11624  0.06283  1.0000
  N   N1        1.0  0.31095  0.15078  0.25133  1.0000
  C   C20       1.0  0.33151  0.14497  0.08827  1.0000
  H   H24       1.0  0.31334  0.22857  0.12760  1.0000
  H   H25       1.0  0.17619  0.00329  0.43499  1.0000
  H   H26       1.0  0.28706  0.14006  0.20479  1.0000
  H   H27       1.0  0.27710  0.11140  0.27891  1.0000
  H   H28       1.0  0.38324  0.07044  0.45053  1.0000
  H   H29       1.0  0.20903  0.07288  0.51533  1.0000
  C   C21       1.0  0.31069  0.16064  0.29100  1.0000
  C   C22       1.0  0.35403  0.16216  0.22605  1.0000
  C   C23       1.0  0.32962  0.16077  0.32060  1.0000
  H   H30       1.0  0.33130  0.17979  0.22009  1.0000
  H   H31       1.0  0.31164  0.17670  0.28382  1.0000
  H   H32       1.0  0.35541  0.14738  0.21865  1.0000
  H   H33       1.0  0.35968  0.16526  0.25739  1.0000
  H   H34       1.0  0.36631  0.17375  0.20362  1.0000
  H   H35       1.0  0.33640  0.14799  0.31959  1.0000
  H   H36       1.0  0.28705  0.99631  0.18834  1.0000
  H   H37       1.0  0.18215  0.02660  0.40322  1.0000
  H   H38       1.0  0.41368  0.04819  0.24060  1.0000
  H   H39       1.0  0.22439  0.01797  0.17772  1.0000
  H   H40       1.0  0.35367  0.03219  0.28677  1.0000
  S   S12       1.0  0.39868  0.02656  0.34388  1.0000
  Fe  Fe7       1.0  0.33489  0.05249  0.06727  1.0000
  C   C24       1.0  0.39513  0.04524  0.23798  1.0000
  H   H41       1.0  0.20812  0.00075  0.21989  1.0000
  H   H42       1.0  0.20940  0.09357  0.46030  1.0000
  H   H43       1.0  0.37438  0.05611  0.33674  1.0000
  C   C25       1.0  0.19430  0.08485  0.44519  1.0000
  H   H44       1.0  0.18106  0.05737  0.41826  1.0000
  C   C26       1.0  0.34978  0.01633  0.27996  1.0000
  H   H45       1.0  0.19524  0.09308  0.41382  1.0000
  C   C27       1.0  0.29064  0.00778  0.10069  1.0000
  H   H46       1.0  0.42198  0.05957  0.49381  1.0000
  H   H47       1.0  0.41765  0.06075  0.43958  1.0000
  C   C28       1.0  0.34879  0.02570  0.20327  1.0000
  C   C29       1.0  0.37186  0.02009  0.41578  1.0000
  C   C30       1.0  0.31126  0.00349  0.10021  1.0000
  C   C31       1.0  0.38421  0.02276  0.23317  1.0000
  H   H48       1.0  0.30036  0.23880  0.16673  1.0000
  H   H49       1.0  0.15872  0.01899  0.44311  1.0000
  Fe  Fe8       1.0  0.30406  0.22965  0.38519  1.0000
  H   H50       1.0  0.41044  0.10088  0.52887  1.0000
  H   H51       1.0  0.28361  0.22492  0.12774  1.0000
  H   H52       1.0  0.16874  0.06001  0.51807  1.0000
  H   H53       1.0  0.36030  0.02980  0.17420  1.0000
  H   H54       1.0  0.35864  0.05641  0.22471  1.0000
  H   H55       1.0  0.26776  0.16574  0.20379  1.0000
  H   H56       1.0  0.31163  0.12273  0.22884  1.0000
  H   H57       1.0  0.29824  0.10063  0.29534  1.0000
  H   H58       1.0  0.29749  0.17821  0.19219  1.0000
  C   C32       1.0  0.28463  0.16909  0.21699  1.0000
  H   H59       1.0  0.38053  0.10459  0.45125  1.0000
  H   H60       1.0  0.21089  0.06441  0.42242  1.0000
  H   H61       1.0  0.32254  0.15964  0.35330  1.0000
  H   H62       1.0  0.31312  0.17921  0.11139  1.0000
  H   H63       1.0  0.29038  0.02284  0.10383  1.0000
  S   S13       1.0  0.31111  0.24122  0.44881  1.0000
  S   S14       1.0  0.27157  0.22802  0.35511  1.0000
  H   H64       1.0  0.37966  0.00873  0.42462  1.0000
  Fe  Fe9       1.0  0.30659  0.08102  0.06770  1.0000
  H   H65       1.0  0.27396  0.14086  0.25450  1.0000
  H   H66       1.0  0.32527  0.12831  0.08849  1.0000
  C   C33       1.0  0.17639  0.01918  0.43531  1.0000
  C   C34       1.0  0.40886  0.05827  0.47128  1.0000
  H   H67       1.0  0.26243  0.23367  0.44155  1.0000
  C   C35       1.0  0.36924  0.22386  0.17929  1.0000
  H   H68       1.0  0.29414  0.15404  0.30964  1.0000
  C   C36       1.0  0.34385  0.04510  0.21403  1.0000
  H   H69       1.0  0.23440  0.00825  0.52365  1.0000
  H   H70       1.0  0.28214  0.17329  0.03960  1.0000
  H   H71       1.0  0.34387  0.17509  0.31462  1.0000
  C   C37       1.0  0.28870  0.14904  0.23202  1.0000
  H   H72       1.0  0.39338  0.05478  0.20990  1.0000
  C   C38       1.0  0.24268  0.99883  0.20553  1.0000
  C   C39       1.0  0.36894  0.04684  0.36613  1.0000
  C   C40       1.0  0.29435  0.11508  0.29045  1.0000
  H   H73       1.0  0.33886  0.05227  0.18554  1.0000
  H   H74       1.0  0.00920  0.22980  0.17586  1.0000
  H   H75       1.0  0.28398  0.17817  0.24311  1.0000
  S   S15       1.0  0.33723  0.02302  0.09789  1.0000
  S   S16       1.0  0.35323  0.21437  0.26228  1.0000
  C   C41       1.0  0.19448  0.06320  0.43985  1.0000
  H   H76       1.0  0.19088  0.01794  0.49404  1.0000
  H   H77       1.0  0.38796  0.11636  0.49885  1.0000
  C   C42       1.0  0.35729  0.22851  0.21296  1.0000
  S   S17       1.0  0.29528  0.21898  0.27001  1.0000
  H   H78       1.0  0.34994  0.14897  0.09318  1.0000
  H   H79       1.0  0.38860  0.04995  0.26652  1.0000
  C   C43       1.0  0.35478  0.02281  0.44220  1.0000
  C   C44       1.0  0.16783  0.04682  0.50050  1.0000
  C   C45       1.0  0.19299  0.02933  0.46700  1.0000
  N   N2        1.0  0.19085  0.04899  0.47936  1.0000
  H   H80       1.0  0.28484  0.18119  0.10772  1.0000
  H   H81       1.0  0.39947  0.01715  0.52534  1.0000
  C   C46       1.0  0.32399  0.00618  0.29049  1.0000
  H   H82       1.0  0.39113  0.01408  0.25680  1.0000
  H   H83       1.0  0.22815  0.00467  0.28373  1.0000
  H   H84       1.0  0.31849  0.01225  0.31840  1.0000
  C   C47       1.0  0.29802  0.17173  0.05233  1.0000
  H   H85       1.0  0.15543  0.04698  0.47657  1.0000
  C   C48       1.0  0.37306  0.23575  0.14054  1.0000
  H   H86       1.0  0.39136  0.02066  0.20235  1.0000
  H   H87       1.0  0.37588  0.21129  0.18332  1.0000
  H   H88       1.0  0.35218  0.07498  0.49247  1.0000
  H   H89       1.0  0.99863  0.24002  0.50911  1.0000
  N   N3        1.0  0.30433  0.15444  0.03631  1.0000
  H   H90       1.0  0.35852  0.00932  0.30332  1.0000
  S   S18       1.0  0.38417  0.12603  0.05292  1.0000
  C   C49       1.0  0.26710  0.24130  0.46899  1.0000
  N   N4        1.0  0.35855  0.01487  0.23639  1.0000
  C   C50       1.0  0.29614  0.17215  0.09993  1.0000
  H   H91       1.0  0.38267  0.23233  0.11495  1.0000
  H   H92       1.0  0.21053  0.03157  0.45337  1.0000
  H   H93       1.0  0.27597  0.00191  0.49460  1.0000
  H   H94       1.0  0.28853  0.13105  0.08725  1.0000
  H   H95       1.0  0.22656  0.06115  0.48927  1.0000
  H   H96       1.0  0.32318  0.14950  0.11495  1.0000
  C   C51       1.0  0.37456  0.10539  0.48378  1.0000
  H   H97       1.0  0.17852  0.08512  0.46240  1.0000
  H   H98       1.0  0.23287  0.24083  0.48620  1.0000
  H   H99       1.0  0.25112  0.01098  0.22463  1.0000
  C   C52       1.0  0.99808  0.23773  0.18997  1.0000
  C   C53       1.0  0.39586  0.07372  0.47464  1.0000
  H   H100      1.0  0.40820  0.08878  0.46384  1.0000
  H   H101      1.0  0.39706  0.04268  0.47443  1.0000
  H   H102      1.0  0.35998  0.11147  0.48174  1.0000
  H   H103      1.0  0.25454  0.99630  0.09501  1.0000
  H   H104      1.0  0.97868  0.20651  0.21125  1.0000
  C   C54       1.0  0.28787  0.13423  0.05323  1.0000
  C   C55       1.0  0.36628  0.08443  0.50913  1.0000
  C   C56       1.0  0.97591  0.22148  0.20879  1.0000
  N   N5        1.0  0.38408  0.07403  0.51650  1.0000
  C   C57       1.0  0.22035  0.00228  0.19276  1.0000
  H   H105      1.0  0.14373  0.01626  0.51483  1.0000
  C   C58       1.0  0.15658  0.02749  0.53057  1.0000
  H   H106      1.0  0.30042  0.99489  0.48083  1.0000
  C   C59       1.0  0.30008  0.23591  0.13351  1.0000
  H   H107      1.0  0.00632  0.24063  0.10723  1.0000
  C   C60       1.0  0.32837  0.15547  0.04595  1.0000
  H   H108      1.0  0.35581  0.99649  0.16090  1.0000
  H   H109      1.0  0.29270  0.12192  0.03950  1.0000
  H   H110      1.0  0.31093  0.18626  0.04030  1.0000
  S   S19       1.0  0.30274  0.05245  0.03832  1.0000
  Fe  Fe10      1.0  0.35665  0.09784  0.04162  1.0000
  C   C61       1.0  0.38968  0.16643  0.03813  1.0000
  H   H111      1.0  0.25551  0.99468  0.99461  1.0000
  S   S20       1.0  0.28781  0.21585  0.99845  1.0000
  C   C62       1.0  0.38364  0.14774  0.02184  1.0000
  S   S21       1.0  0.41522  0.02173  0.71739  1.0000
  H   H112      1.0  0.46954  0.03504  0.89310  1.0000
  Fe  Fe11      1.0  0.38979  0.02384  0.76713  1.0000
  S   S22       1.0  0.39828  0.04964  0.80684  1.0000
  C   C63       1.0  0.28970  0.00607  0.73185  1.0000
  S   S23       1.0  0.38927  0.01767  0.61233  1.0000
  C   C64       1.0  0.46528  0.04692  0.87304  1.0000
  H   H113      1.0  0.30422  0.02286  0.97494  1.0000
  H   H114      1.0  0.30571  0.01075  0.79147  1.0000
  H   H115      1.0  0.37272  0.13225  0.96807  1.0000
  Fe  Fe12      1.0  0.37104  0.22792  0.96669  1.0000
  H   H116      1.0  0.23211  0.23952  0.90496  1.0000
  C   C65       1.0  0.23340  0.23532  0.01581  1.0000
  Fe  Fe13      1.0  0.38514  0.00819  0.68142  1.0000
  C   C66       1.0  0.38772  0.00262  0.53692  1.0000
  Fe  Fe14      1.0  0.32595  0.07146  0.98484  1.0000
  S   S24       1.0  0.31773  0.06112  0.92099  1.0000
  H   H117      1.0  0.43459  0.08215  0.54192  1.0000
  H   H118      1.0  0.43755  0.06085  0.87547  1.0000
  S   S25       1.0  0.38386  0.20440  0.94005  1.0000
  C   C67       1.0  0.24746  0.22303  0.01392  1.0000
  H   H119      1.0  0.19568  0.04501  0.57021  1.0000
  C   C68       1.0  0.44712  0.02536  0.81894  1.0000
  H   H120      1.0  0.45714  0.01573  0.71189  1.0000
  H   H121      1.0  0.30934  0.20723  0.87115  1.0000
  H   H122      1.0  0.35873  0.01107  0.97736  1.0000
  H   H123      1.0  0.24075  0.20718  0.02493  1.0000
  C   C69       1.0  0.31990  0.17560  0.96545  1.0000
  H   H124      1.0  0.37310  0.16320  0.92411  1.0000
  H   H125      1.0  0.24406  0.01696  0.69861  1.0000
  H   H126      1.0  0.30191  0.21455  0.82082  1.0000
  H   H127      1.0  0.25912  0.13038  0.01303  1.0000
  H   H128      1.0  0.29116  0.02886  0.77652  1.0000
  C   C70       1.0  0.38001  0.99859  0.57917  1.0000
  C   C71       1.0  0.40056  0.08588  0.54501  1.0000
  C   C72       1.0  0.38327  0.18274  0.97249  1.0000
  C   C73       1.0  0.34198  0.01318  0.97181  1.0000
  C   C74       1.0  0.37720  0.14657  0.98096  1.0000
  C   C75       1.0  0.44718  0.00579  0.61346  1.0000
  H   H129      1.0  0.23680  0.02771  0.74319  1.0000
  C   C76       1.0  0.37572  0.05254  0.83845  1.0000
  C   C77       1.0  0.35302  0.04388  0.82998  1.0000
  C   C78       1.0  0.33540  0.04702  0.85482  1.0000
  C   C79       1.0  0.34029  0.05824  0.88915  1.0000
  C   C80       1.0  0.36298  0.06678  0.89765  1.0000
  C   C81       1.0  0.38063  0.06409  0.87218  1.0000
  H   H130      1.0  0.34913  0.03512  0.80382  1.0000
  H   H131      1.0  0.31793  0.04070  0.84757  1.0000
  H   H132      1.0  0.36703  0.07591  0.92322  1.0000
  H   H133      1.0  0.39813  0.07106  0.87863  1.0000
  H   H134      1.0  0.44128  0.01198  0.58486  1.0000
  H   H135      1.0  0.36982  0.05793  0.60191  1.0000
  H   H136      1.0  0.43047  0.02815  0.82331  1.0000
  S   S26       1.0  0.35818  0.07015  0.01247  1.0000
  H   H137      1.0  0.42822  0.03398  0.89073  1.0000
  C   C82       1.0  0.37743  0.16409  0.95613  1.0000
  H   H138      1.0  0.27360  0.21457  0.87752  1.0000
  H   H139      1.0  0.33619  0.14845  0.02219  1.0000
  H   H140      1.0  0.29385  0.00441  0.01801  1.0000
  H   H141      1.0  0.26527  0.00893  0.94370  1.0000
  H   H142      1.0  0.25780  0.21179  0.81869  1.0000
  H   H143      1.0  0.39143  0.08965  0.57211  1.0000
  H   H144      1.0  0.31999  0.17402  0.93152  1.0000
  C   C83       1.0  0.30350  0.15622  0.98949  1.0000
  C   C84       1.0  0.46465  0.06167  0.80184  1.0000
  H   H145      1.0  0.44380  0.05105  0.92454  1.0000
  C   C85       1.0  0.26851  0.00784  0.97715  1.0000
  H   H146      1.0  0.16837  0.02028  0.54489  1.0000
  S   S27       1.0  0.36014  0.01371  0.72800  1.0000
  H   H147      1.0  0.14689  0.03130  0.55672  1.0000
  C   C86       1.0  0.44558  0.00536  0.84472  1.0000
  H   H148      1.0  0.30149  0.99747  0.72387  1.0000
  Fe  Fe15      1.0  0.32507  0.23313  0.98856  1.0000
  C   C87       1.0  0.26022  0.22543  0.79689  1.0000
  H   H149      1.0  0.33763  0.17858  0.97387  1.0000
  H   H150      1.0  0.30714  0.14318  0.97648  1.0000
  H   H151      1.0  0.46485  0.00553  0.60744  1.0000
  N   N6        1.0  0.46643  0.04334  0.82769  1.0000
  H   H152      1.0  0.42218  0.08125  0.59380  1.0000
  H   H153      1.0  0.31435  0.18893  0.97010  1.0000
  S   S28       1.0  0.32583  0.10045  0.01056  1.0000
  C   C88       1.0  0.29282  0.00723  0.98394  1.0000
  H   H154      1.0  0.25468  0.00851  0.79022  1.0000
  H   H155      1.0  0.44841  0.02263  0.78567  1.0000
  H   H156      1.0  0.31768  0.03033  0.75052  1.0000
  H   H157      1.0  0.30783  0.01522  0.90896  1.0000
  H   H158      1.0  0.32422  0.23170  0.84626  1.0000
  H   H159      1.0  0.28972  0.01591  0.70287  1.0000
  H   H160      1.0  0.44976  0.05761  0.74162  1.0000
  C   C89       1.0  0.37176  0.05283  0.53547  1.0000
  S   S29       1.0  0.34462  0.23473  0.92824  1.0000
  C   C90       1.0  0.21026  0.04578  0.54819  1.0000
  H   H161      1.0  0.33896  0.02294  0.99533  1.0000
  H   H162      1.0  0.29424  0.23078  0.90486  1.0000
  C   C91       1.0  0.35855  0.05081  0.57807  1.0000
  H   H163      1.0  0.34337  0.02119  0.94023  1.0000
  C   C92       1.0  0.44230  0.04821  0.89131  1.0000
  H   H164      1.0  0.41292  0.06004  0.56653  1.0000
  C   C93       1.0  0.41847  0.07665  0.56213  1.0000
  H   H165      1.0  0.26602  0.03351  0.72571  1.0000
  H   H166      1.0  0.23732  0.22279  0.87004  1.0000
  C   C94       1.0  0.38901  0.18384  0.01381  1.0000
  H   H167      1.0  0.28628  0.15583  0.98042  1.0000
  C   C95       1.0  0.30726  0.22014  0.85102  1.0000
  H   H168      1.0  0.44339  0.00614  0.87868  1.0000
  H   H169      1.0  0.21590  0.22893  0.02839  1.0000
  H   H170      1.0  0.39372  0.19822  0.02647  1.0000
  C   C96       1.0  0.28921  0.22773  0.87275  1.0000
  H   H171      1.0  0.24431  0.22967  0.79735  1.0000
  H   H172      1.0  0.38331  0.04365  0.53963  1.0000
  H   H173      1.0  0.44791  0.06392  0.80895  1.0000
  C   C97       1.0  0.46683  0.06138  0.75404  1.0000
  H   H174      1.0  0.44740  0.01648  0.63701  1.0000
  C   C98       1.0  0.30134  0.01964  0.76488  1.0000
  H   H175      1.0  0.34398  0.05681  0.57586  1.0000
  H   H176      1.0  0.26632  0.02143  0.98982  1.0000
  C   C99       1.0  0.27024  0.23129  0.99865  1.0000
  H   H177      1.0  0.22588  0.05366  0.56316  1.0000
  C   C100      1.0  0.47042  0.00929  0.71869  1.0000
  H   H178      1.0  0.35123  0.03455  0.58929  1.0000
  H   H179      1.0  0.46056  0.00038  0.83732  1.0000
  H   H180      1.0  0.33496  0.00367  0.87933  1.0000
  H   H181      1.0  0.25006  0.22497  0.91960  1.0000
  C   C101      1.0  0.24531  0.23331  0.89256  1.0000
  S   S30       1.0  0.34979  0.22340  0.02698  1.0000
  C   C102      1.0  0.30212  0.99850  0.91488  1.0000
  C   C103      1.0  0.24952  0.02129  0.72960  1.0000
  H   H182      1.0  0.26331  0.22090  0.76559  1.0000
  H   H183      1.0  0.35822  0.08660  0.53910  1.0000
  C   C104      1.0  0.25036  0.00309  0.75930  1.0000
  H   H184      1.0  0.21124  0.03053  0.54421  1.0000
  H   H185      1.0  0.29354  0.99763  0.53420  1.0000
  C   C105      1.0  0.28060  0.24339  0.80541  1.0000
  H   H186      1.0  0.29598  0.24289  0.78683  1.0000
  Fe  Fe16      1.0  0.41091  0.41907  0.28034  1.0000
  S   S31       1.0  0.38032  0.42753  0.30122  1.0000
  S   S32       1.0  0.44687  0.44070  0.26726  1.0000
  Fe  Fe17      1.0  0.38333  0.37420  0.28799  1.0000
  S   S33       1.0  0.35122  0.37955  0.31069  1.0000
  S   S34       1.0  0.38445  0.34291  0.28102  1.0000
  Fe  Fe18      1.0  0.36117  0.40494  0.25913  1.0000
  S   S35       1.0  0.33658  0.40965  0.21195  1.0000
  Fe  Fe19      1.0  0.37389  0.40102  0.35009  1.0000
  S   S36       1.0  0.36562  0.40302  0.41839  1.0000
  S   S37       1.0  0.39242  0.39848  0.23461  1.0000
  S   S38       1.0  0.40535  0.39371  0.33112  1.0000
  H   H187      1.0  0.00553  0.32993  0.15465  1.0000
  S   S39       1.0  0.29177  0.27470  0.26608  1.0000
  C   C106      1.0  0.36556  0.25270  0.13579  1.0000
  C   C107      1.0  0.38867  0.39120  0.53052  1.0000
  H   H188      1.0  0.25751  0.35547  0.11556  1.0000
  S   S40       1.0  0.37291  0.26969  0.08994  1.0000
  S   S41       1.0  0.06747  0.38265  0.11941  1.0000
  S   S42       1.0  0.05415  0.32847  0.09551  1.0000
  Fe  Fe20      1.0  0.29479  0.24625  0.30055  1.0000
  S   S43       1.0  0.30181  0.34071  0.09192  1.0000
  C   C108      1.0  0.18010  0.30607  0.51819  1.0000
  C   C109      1.0  0.25033  0.24537  0.49445  1.0000
  S   S44       1.0  0.02631  0.40876  0.33505  1.0000
  H   H189      1.0  0.03846  0.26796  0.10358  1.0000
  H   H190      1.0  0.32329  0.29332  0.34870  1.0000
  Fe  Fe21      1.0  0.01768  0.43267  0.36896  1.0000
  S   S45       1.0  0.04125  0.46092  0.39064  1.0000
  Fe  Fe22      1.0  0.00070  0.38677  0.38187  1.0000
  S   S46       1.0  0.00231  0.35750  0.41397  1.0000
  C   C110      1.0  0.04015  0.48353  0.36359  1.0000
  H   H191      1.0  0.44490  0.33542  0.19039  1.0000
  C   C111      1.0  0.13789  0.34478  0.03766  1.0000
  S   S47       1.0  0.99587  0.41040  0.41989  1.0000
  H   H192      1.0  0.02905  0.47036  0.30736  1.0000
  H   H193      1.0  0.42738  0.45766  0.46683  1.0000
  H   H194      1.0  0.99547  0.26062  0.09248  1.0000
  H   H195      1.0  0.04311  0.36174  0.45025  1.0000
  H   H196      1.0  0.30150  0.30703  0.17009  1.0000
  C   C112      1.0  0.04592  0.38746  0.15076  1.0000
  C   C113      1.0  0.02442  0.38568  0.13660  1.0000
  C   C114      1.0  0.00826  0.39106  0.16121  1.0000
  C   C115      1.0  0.01318  0.39763  0.20069  1.0000
  C   C116      1.0  0.03444  0.39886  0.21524  1.0000
  C   C117      1.0  0.05083  0.39407  0.19012  1.0000
  H   H197      1.0  0.02057  0.38086  0.10613  1.0000
  C   C118      1.0  0.00538  0.48462  0.47873  1.0000
  H   H198      1.0  0.03851  0.40401  0.24538  1.0000
  H   H199      1.0  0.06748  0.39564  0.20112  1.0000
  C   C119      1.0  0.97789  0.27121  0.21332  1.0000
  C   C120      1.0  0.35347  0.25714  0.16943  1.0000
  C   C121      1.0  0.29934  0.30434  0.46778  1.0000
  H   H200      1.0  0.44399  0.35658  0.15459  1.0000
  C   C122      1.0  0.25486  0.39990  0.12492  1.0000
  C   C123      1.0  0.29526  0.25614  0.51611  1.0000
  H   H201      1.0  0.19347  0.26191  0.51842  1.0000
  C   C124      1.0  0.37736  0.39823  0.49865  1.0000
  C   C125      1.0  0.35869  0.32485  0.27231  1.0000
  C   C126      1.0  0.33844  0.32964  0.26844  1.0000
  C   C127      1.0  0.31793  0.31442  0.26418  1.0000
  C   C128      1.0  0.31770  0.29441  0.26366  1.0000
  C   C129      1.0  0.33823  0.29005  0.26446  1.0000
  C   C130      1.0  0.35854  0.30505  0.26959  1.0000
  H   H202      1.0  0.33842  0.34493  0.26940  1.0000
  H   H203      1.0  0.30220  0.31807  0.26273  1.0000
  H   H204      1.0  0.33847  0.27501  0.26168  1.0000
  H   H205      1.0  0.37414  0.30122  0.27183  1.0000
  C   C131      1.0  0.37948  0.39325  0.45780  1.0000
  H   H206      1.0  0.41365  0.43321  0.45528  1.0000
  H   H207      1.0  0.98203  0.34747  0.06925  1.0000
  C   C132      1.0  0.40364  0.37348  0.48130  1.0000
  C   C133      1.0  0.39262  0.38077  0.44928  1.0000
  H   H208      1.0  0.41383  0.36390  0.47442  1.0000
  H   H209      1.0  0.39425  0.37667  0.41811  1.0000
  C   C134      1.0  0.31163  0.36048  0.12384  1.0000
  C   C135      1.0  0.32289  0.35701  0.15911  1.0000
  C   C136      1.0  0.33099  0.37213  0.18559  1.0000
  C   C137      1.0  0.32752  0.39083  0.17761  1.0000
  C   C138      1.0  0.31624  0.39438  0.14229  1.0000
  C   C139      1.0  0.30853  0.37934  0.11520  1.0000
  H   H210      1.0  0.32517  0.34248  0.16636  1.0000
  H   H211      1.0  0.33973  0.36927  0.21251  1.0000
  H   H212      1.0  0.31373  0.40891  0.13568  1.0000
  H   H213      1.0  0.30021  0.38231  0.08773  1.0000
  C   C140      1.0  0.45422  0.46553  0.28162  1.0000
  H   H214      1.0  0.44495  0.40686  0.46210  1.0000
  H   H215      1.0  0.98847  0.31405  0.41851  1.0000
  H   H216      1.0  0.02967  0.32501  0.48047  1.0000
  H   H217      1.0  0.32330  0.28860  0.45867  1.0000
  C   C141      1.0  0.25117  0.33725  0.17464  1.0000
  C   C142      1.0  0.29024  0.29319  0.37010  1.0000
  H   H218      1.0  0.29092  0.30551  0.34559  1.0000
  H   H219      1.0  0.21980  0.38611  0.11442  1.0000
  N   N7        1.0  0.23087  0.36323  0.15001  1.0000
  Fe  Fe23      1.0  0.02542  0.32172  0.05390  1.0000
  C   C143      1.0  0.21158  0.34599  0.13800  1.0000
  C   C144      1.0  0.25222  0.35700  0.14827  1.0000
  C   C145      1.0  0.18795  0.34898  0.13736  1.0000
  H   H220      1.0  0.40315  0.31849  0.06047  1.0000
  H   H221      1.0  0.21572  0.34213  0.10657  1.0000
  H   H222      1.0  0.20898  0.33217  0.15970  1.0000
  H   H223      1.0  0.21860  0.35358  0.21456  1.0000
  C   C146      1.0  0.44787  0.41924  0.48236  1.0000
  C   C147      1.0  0.05665  0.36393  0.47245  1.0000
  H   H224      1.0  0.40064  0.28120  0.17877  1.0000
  H   H225      1.0  0.24659  0.27254  0.14023  1.0000
  H   H226      1.0  0.18091  0.34970  0.16913  1.0000
  C   C148      1.0  0.98912  0.45127  0.51702  1.0000
  H   H227      1.0  0.28589  0.26379  0.17769  1.0000
  C   C149      1.0  0.44407  0.49311  0.30900  1.0000
  C   C150      1.0  0.26677  0.25668  0.10721  1.0000
  C   C151      1.0  0.98717  0.34846  0.28174  1.0000
  C   C152      1.0  0.01716  0.27198  0.15675  1.0000
  C   C153      1.0  0.03893  0.26871  0.13776  1.0000
  C   C154      1.0  0.00511  0.34077  0.30326  1.0000
  H   H228      1.0  0.25410  0.41290  0.10345  1.0000
  H   H229      1.0  0.18298  0.31158  0.48456  1.0000
  C   C155      1.0  0.41035  0.45531  0.40891  1.0000
  H   H230      1.0  0.00719  0.32947  0.22741  1.0000
  H   H231      1.0  0.97608  0.30658  0.26147  1.0000
  H   H232      1.0  0.06449  0.35191  0.46732  1.0000
  C   C156      1.0  0.98851  0.24979  0.51488  1.0000
  H   H233      1.0  0.02675  0.45987  0.51405  1.0000
  N   N8        1.0  0.29119  0.26902  0.11043  1.0000
  H   H234      1.0  0.33581  0.29233  0.06716  1.0000
  H   H235      1.0  0.99191  0.39022  0.14960  1.0000
  H   H236      1.0  0.42352  0.34702  0.10033  1.0000
  H   H237      1.0  0.12545  0.35238  0.04343  1.0000
  H   H238      1.0  0.43172  0.41869  0.49933  1.0000
  C   C157      1.0  0.41467  0.29543  0.18029  1.0000
  H   H239      1.0  0.98104  0.26120  0.23923  1.0000
  H   H240      1.0  0.19631  0.31393  0.53178  1.0000
  C   C158      1.0  0.97395  0.46693  0.40644  1.0000
  C   C159      1.0  0.30565  0.25548  0.10363  1.0000
  H   H241      1.0  0.41247  0.30095  0.21075  1.0000
  H   H242      1.0  0.00941  0.34842  0.33180  1.0000
  H   H243      1.0  0.03314  0.40649  0.51405  1.0000
  H   H244      1.0  0.22185  0.28097  0.46262  1.0000
  H   H245      1.0  0.22160  0.39663  0.20676  1.0000
  H   H246      1.0  0.18777  0.36217  0.11610  1.0000
  C   C160      1.0  0.43641  0.34709  0.18403  1.0000
  H   H247      1.0  0.31298  0.28018  0.15940  1.0000
  C   C161      1.0  0.21118  0.38149  0.19955  1.0000
  H   H248      1.0  0.44011  0.35698  0.20965  1.0000
  C   C162      1.0  0.28963  0.24650  0.47980  1.0000
  H   H249      1.0  0.99540  0.36476  0.27129  1.0000
  C   C163      1.0  0.29468  0.27622  0.15307  1.0000
  H   H250      1.0  0.19382  0.27373  0.44604  1.0000
  H   H251      1.0  0.29380  0.31679  0.45358  1.0000
  S   S48       1.0  0.98862  0.43407  0.33093  1.0000
  H   H252      1.0  0.02116  0.27676  0.18824  1.0000
  H   H253      1.0  0.19891  0.37509  0.22716  1.0000
  C   C164      1.0  0.28684  0.29453  0.16210  1.0000
  H   H254      1.0  0.04204  0.25510  0.15295  1.0000
  H   H255      1.0  0.16582  0.28684  0.43869  1.0000
  N   N9        1.0  0.32828  0.30959  0.40343  1.0000
  H   H256      1.0  0.33567  0.32812  0.53139  1.0000
  H   H257      1.0  0.36702  0.40768  0.50567  1.0000
  H   H258      1.0  0.27868  0.30059  0.13679  1.0000
  H   H259      1.0  0.25180  0.28034  0.08437  1.0000
  C   C165      1.0  0.43762  0.47371  0.29567  1.0000
  N   N10       1.0  0.40212  0.32524  0.14859  1.0000
  C   C166      1.0  0.40514  0.33930  0.10922  1.0000
  C   C167      1.0  0.41042  0.33770  0.18391  1.0000
  C   C168      1.0  0.37749  0.31324  0.15880  1.0000
  C   C169      1.0  0.41539  0.31078  0.14243  1.0000
  C   C170      1.0  0.39499  0.32957  0.07037  1.0000
  H   H260      1.0  0.27443  0.29040  0.18984  1.0000
  C   C171      1.0  0.36095  0.32567  0.16245  1.0000
  C   C172      1.0  0.16121  0.35559  0.03542  1.0000
  H   H261      1.0  0.39773  0.35162  0.11413  1.0000
  S   S49       1.0  0.99215  0.40370  0.23111  1.0000
  H   H262      1.0  0.40426  0.32882  0.21465  1.0000
  H   H263      1.0  0.40320  0.35043  0.18410  1.0000
  H   H264      1.0  0.37131  0.30251  0.13539  1.0000
  H   H265      1.0  0.37532  0.30355  0.18880  1.0000
  H   H266      1.0  0.40887  0.30150  0.11681  1.0000
  H   H267      1.0  0.16653  0.37151  0.03922  1.0000
  H   H268      1.0  0.39948  0.44250  0.39380  1.0000
  Fe  Fe24      1.0  0.27682  0.33861  0.04171  1.0000
  H   H269      1.0  0.01499  0.28536  0.13824  1.0000
  H   H270      1.0  0.25424  0.40412  0.15710  1.0000
  H   H271      1.0  0.24467  0.33677  0.20735  1.0000
  H   H272      1.0  0.45642  0.46882  0.36966  1.0000
  H   H273      1.0  0.36569  0.33667  0.18570  1.0000
  H   H274      1.0  0.34377  0.31527  0.17326  1.0000
  H   H275      1.0  0.35946  0.33367  0.13210  1.0000
  H   H276      1.0  0.27151  0.39770  0.11732  1.0000
  H   H277      1.0  0.01217  0.35245  0.49875  1.0000
  H   H278      1.0  0.24275  0.37538  0.20717  1.0000
  C   C173      1.0  0.35311  0.31174  0.39407  1.0000
  C   C174      1.0  0.35987  0.29239  0.40275  1.0000
  C   C175      1.0  0.33826  0.34769  0.41056  1.0000
  H   H279      1.0  0.35849  0.31746  0.36073  1.0000
  H   H280      1.0  0.36418  0.32307  0.41244  1.0000
  H   H281      1.0  0.37837  0.29596  0.39420  1.0000
  H   H282      1.0  0.35691  0.28644  0.43614  1.0000
  H   H283      1.0  0.35100  0.28044  0.38358  1.0000
  H   H284      1.0  0.33260  0.36082  0.40035  1.0000
  H   H285      1.0  0.33504  0.34506  0.44491  1.0000
  H   H286      1.0  0.35679  0.35227  0.40177  1.0000
  H   H287      1.0  0.06228  0.39282  0.52837  1.0000
  C   C176      1.0  0.15073  0.28201  0.46119  1.0000
  H   H288      1.0  0.99773  0.45378  0.43217  1.0000
  H   H289      1.0  0.28606  0.28976  0.46550  1.0000
  H   H290      1.0  0.08866  0.38901  0.47661  1.0000
  H   H291      1.0  0.16405  0.32968  0.52198  1.0000
  C   C177      1.0  0.29845  0.28595  0.07553  1.0000
  C   C178      1.0  0.97613  0.26172  0.17178  1.0000
  H   H292      1.0  0.02886  0.38883  0.47565  1.0000
  H   H293      1.0  0.32577  0.31271  0.05029  1.0000
  C   C179      1.0  0.32314  0.29998  0.07496  1.0000
  H   H294      1.0  0.32386  0.26357  0.10654  1.0000
  C   C180      1.0  0.02284  0.34699  0.52051  1.0000
  N   N11       1.0  0.44701  0.44616  0.42296  1.0000
  C   C181      1.0  0.99655  0.33851  0.21470  1.0000
  H   H295      1.0  0.28757  0.29585  0.07528  1.0000
  C   C182      1.0  0.02040  0.32532  0.51044  1.0000
  N   N12       1.0  0.99562  0.25425  0.15909  1.0000
  N   N13       1.0  0.98485  0.46594  0.48365  1.0000
  C   C183      1.0  0.25591  0.25500  0.53065  1.0000
  H   H296      1.0  0.33933  0.24814  0.23284  1.0000
  H   H297      1.0  0.43344  0.31878  0.13124  1.0000
  H   H298      1.0  0.24101  0.32385  0.16036  1.0000
  H   H299      1.0  0.20098  0.38333  0.17321  1.0000
  C   C184      1.0  0.03339  0.48395  0.32287  1.0000
  H   H300      1.0  0.43103  0.29199  0.18028  1.0000
  H   H301      1.0  0.99119  0.28612  0.21051  1.0000
  H   H302      1.0  0.97566  0.36952  0.08258  1.0000
  H   H303      1.0  0.41984  0.46502  0.29677  1.0000
  Fe  Fe25      1.0  0.07633  0.32759  0.03918  1.0000
  N   N14       1.0  0.04674  0.36152  0.51697  1.0000
  C   C185      1.0  0.22637  0.36782  0.19381  1.0000
  C   C186      1.0  0.44155  0.43068  0.39220  1.0000
  H   H304      1.0  0.23864  0.37700  0.08628  1.0000
  H   H305      1.0  0.26868  0.33609  0.17542  1.0000
  H   H306      1.0  0.01972  0.48184  0.46080  1.0000
  C   C187      1.0  0.20514  0.28376  0.46620  1.0000
  H   H307      1.0  0.46219  0.45105  0.48183  1.0000
  H   H308      1.0  0.28121  0.27886  0.35750  1.0000
  H   H309      1.0  0.39929  0.46258  0.42523  1.0000
  H   H310      1.0  0.45587  0.41411  0.35081  1.0000
  C   C188      1.0  0.98164  0.45602  0.44378  1.0000
  H   H311      1.0  0.00824  0.35425  0.20861  1.0000
  H   H312      1.0  0.43338  0.43594  0.36532  1.0000
  C   C189      1.0  0.32507  0.32946  0.38843  1.0000
  H   H313      1.0  0.42864  0.41647  0.40621  1.0000
  H   H314      1.0  0.33016  0.33319  0.35443  1.0000
  C   C190      1.0  0.24869  0.26764  0.10903  1.0000
  H   H315      1.0  0.33609  0.31351  0.46782  1.0000
  H   H316      1.0  0.26670  0.36881  0.15918  1.0000
  C   C191      1.0  0.32274  0.30410  0.44970  1.0000
  H   H317      1.0  0.37632  0.32236  0.07481  1.0000
  H   H318      1.0  0.42055  0.46684  0.38424  1.0000
  S   S50       1.0  0.99074  0.30215  0.07940  1.0000
  Fe  Fe26      1.0  0.05929  0.36059  0.07084  1.0000
  C   C192      1.0  0.23501  0.38115  0.11783  1.0000
  C   C193      1.0  0.31438  0.29302  0.37956  1.0000
  H   H319      1.0  0.08195  0.38306  0.42515  1.0000
  H   H320      1.0  0.31256  0.27792  0.39598  1.0000
  C   C194      1.0  0.42490  0.44807  0.44060  1.0000
  Fe  Fe27      1.0  0.99590  0.40889  0.29941  1.0000
  H   H321      1.0  0.17601  0.33566  0.12527  1.0000
  H   H322      1.0  0.14467  0.29510  0.46539  1.0000
  H   H323      1.0  0.30698  0.32888  0.39117  1.0000
  H   H324      1.0  0.05383  0.28186  0.14219  1.0000
  H   H325      1.0  0.02126  0.34472  0.28336  1.0000
  H   H326      1.0  0.00212  0.31722  0.50758  1.0000
  H   H327      1.0  0.34757  0.27013  0.16638  1.0000
  H   H328      1.0  0.27985  0.29432  0.39787  1.0000
  H   H329      1.0  0.00694  0.24437  0.21709  1.0000
  H   H330      1.0  0.32662  0.30662  0.10476  1.0000
  H   H331      1.0  0.30034  0.30683  0.50125  1.0000
  H   H332      1.0  0.09575  0.36623  0.52036  1.0000
  C   C195      1.0  0.02866  0.39023  0.50960  1.0000
  C   C196      1.0  0.07447  0.38432  0.45633  1.0000
  H   H333      1.0  0.31261  0.26009  0.52486  1.0000
  H   H334      1.0  0.97551  0.43651  0.51954  1.0000
  S   S51       1.0  0.24007  0.32147  0.05972  1.0000
  H   H335      1.0  0.06658  0.39651  0.45193  1.0000
  H   H336      1.0  0.39812  0.34153  0.04390  1.0000
  H   H337      1.0  0.44846  0.48833  0.42647  1.0000
  H   H338      1.0  0.13876  0.26877  0.52323  1.0000
  N   N15       1.0  0.97699  0.33737  0.24567  1.0000
  H   H339      1.0  0.97416  0.34821  0.30658  1.0000
  H   H340      1.0  0.23198  0.25684  0.10352  1.0000
  C   C197      1.0  0.15492  0.27200  0.50331  1.0000
  C   C198      1.0  0.40199  0.37891  0.52190  1.0000
  C   C199      1.0  0.99293  0.24744  0.11598  1.0000
  H   H341      1.0  0.01374  0.44036  0.48150  1.0000
  C   C200      1.0  0.99013  0.33111  0.17194  1.0000
  H   H342      1.0  0.30466  0.25092  0.07131  1.0000
  S   S52       1.0  0.32699  0.24894  0.33166  1.0000
  H   H343      1.0  0.15615  0.25689  0.49776  1.0000
  H   H344      1.0  0.47098  0.48317  0.45512  1.0000
  H   H345      1.0  0.26513  0.24944  0.07770  1.0000
  H   H346      1.0  0.97786  0.35758  0.50147  1.0000
  H   H347      1.0  0.20821  0.29981  0.45517  1.0000
  C   C201      1.0  0.19620  0.27837  0.51228  1.0000
  H   H348      1.0  0.97707  0.31608  0.17467  1.0000
  N   N16       1.0  0.17513  0.28354  0.52534  1.0000
  H   H349      1.0  0.99878  0.32434  0.31280  1.0000
  H   H350      1.0  0.13704  0.27096  0.44665  1.0000
  H   H351      1.0  0.98887  0.47614  0.38538  1.0000
  C   C202      1.0  0.46202  0.42535  0.37333  1.0000
  H   H352      1.0  0.47041  0.41842  0.39724  1.0000
  C   C203      1.0  0.01182  0.44653  0.51138  1.0000
  H   H353      1.0  0.29643  0.27982  0.04478  1.0000
  C   C204      1.0  0.97546  0.33931  0.41439  1.0000
  H   H354      1.0  0.98435  0.34220  0.15264  1.0000
  H   H355      1.0  0.21042  0.28580  0.53107  1.0000
  C   C205      1.0  0.97612  0.28409  0.04769  1.0000
  C   C206      1.0  0.46218  0.46584  0.40079  1.0000
  H   H356      1.0  0.01164  0.48840  0.50980  1.0000
  C   C207      1.0  0.45952  0.44008  0.45821  1.0000
  C   C208      1.0  0.46465  0.48468  0.42386  1.0000
  H   H357      1.0  0.45905  0.41626  0.50643  1.0000
  H   H358      1.0  0.01107  0.38297  0.52378  1.0000
  H   H359      1.0  0.35368  0.35351  0.52646  1.0000
  C   C209      1.0  0.04542  0.38105  0.53150  1.0000
  H   H360      1.0  0.97414  0.27307  0.14728  1.0000
  C   C210      1.0  0.34891  0.24481  0.20736  1.0000
  H   H361      1.0  0.26112  0.24420  0.13285  1.0000
  H   H362      1.0  0.14415  0.30472  0.53229  1.0000
  C   C211      1.0  0.13082  0.32419  0.03315  1.0000
  S   S53       1.0  0.10164  0.31025  0.03566  1.0000
  Fe  Fe28      1.0  0.39653  0.40009  0.68970  1.0000
  S   S54       1.0  0.39684  0.36880  0.68098  1.0000
  S   S55       1.0  0.36253  0.40126  0.71430  1.0000
  S   S56       1.0  0.42718  0.40801  0.72710  1.0000
  S   S57       1.0  0.41609  0.41425  0.62861  1.0000
  Fe  Fe29      1.0  0.36202  0.26721  0.93576  1.0000
  H   H363      1.0  0.27207  0.26005  0.89897  1.0000
  C   C212      1.0  0.33595  0.31485  0.63164  1.0000
  C   C213      1.0  0.34237  0.34621  0.78085  1.0000
  H   H364      1.0  0.41860  0.38927  0.82050  1.0000
  H   H365      1.0  0.36191  0.30555  0.79467  1.0000
  S   S58       1.0  0.34019  0.26598  0.99414  1.0000
  H   H366      1.0  0.03570  0.39411  0.87801  1.0000
  N   N17       1.0  0.02274  0.39056  0.79577  1.0000
  Fe  Fe30      1.0  0.23946  0.28154  0.61013  1.0000
  C   C214      1.0  0.39464  0.32831  0.78240  1.0000
  C   C215      1.0  0.30490  0.28457  0.83613  1.0000
  S   S59       1.0  0.04671  0.31716  0.00034  1.0000
  H   H367      1.0  0.35227  0.32940  0.68511  1.0000
  Fe  Fe31      1.0  0.05279  0.34983  0.98113  1.0000
  S   S60       1.0  0.05326  0.35891  0.91205  1.0000
  C   C216      1.0  0.35923  0.34881  0.86784  1.0000
  S   S61       1.0  0.04970  0.30673  0.61671  1.0000
  Fe  Fe32      1.0  0.02571  0.29372  0.73280  1.0000
  S   S62       1.0  0.06281  0.30808  0.71469  1.0000
  S   S63       1.0  0.01269  0.28786  0.80073  1.0000
  Fe  Fe33      1.0  0.05133  0.32723  0.66694  1.0000
  S   S64       1.0  0.07020  0.36035  0.65695  1.0000
  Fe  Fe34      1.0  0.05760  0.28612  0.66693  1.0000
  S   S65       1.0  0.08304  0.26926  0.65910  1.0000
  S   S66       1.0  0.01448  0.31448  0.68854  1.0000
  Fe  Fe35      1.0  0.26614  0.32371  0.62627  1.0000
  S   S67       1.0  0.27090  0.29363  0.64401  1.0000
  S   S68       1.0  0.29410  0.35034  0.59616  1.0000
  Fe  Fe36      1.0  0.21499  0.30876  0.64821  1.0000
  S   S69       1.0  0.18642  0.32236  0.65319  1.0000
  Fe  Fe37      1.0  0.24650  0.29221  0.69898  1.0000
  S   S70       1.0  0.24932  0.28167  0.76596  1.0000
  Fe  Fe38      1.0  0.41902  0.38352  0.62272  1.0000
  S   S71       1.0  0.24473  0.32339  0.68377  1.0000
  S   S72       1.0  0.23640  0.31186  0.58870  1.0000
  N   N18       1.0  0.09972  0.30885  0.89670  1.0000
  Fe  Fe39      1.0  0.26830  0.34191  0.94892  1.0000
  S   S73       1.0  0.23096  0.32557  0.96022  1.0000
  S   S74       1.0  0.28307  0.35160  0.88242  1.0000
  H   H368      1.0  0.00876  0.39950  0.88056  1.0000
  S   S75       1.0  0.21509  0.27727  0.66695  1.0000
  S   S76       1.0  0.02080  0.26997  0.68827  1.0000
  H   H369      1.0  0.33367  0.29847  0.55966  1.0000
  Fe  Fe40      1.0  0.97773  0.41030  0.66402  1.0000
  C   C217      1.0  0.25882  0.30125  0.79788  1.0000
  C   C218      1.0  0.25206  0.29778  0.84058  1.0000
  C   C219      1.0  0.25994  0.31302  0.86674  1.0000
  C   C220      1.0  0.27387  0.33212  0.85012  1.0000
  C   C221      1.0  0.28016  0.33576  0.80721  1.0000
  C   C222      1.0  0.27299  0.32028  0.78126  1.0000
  H   H370      1.0  0.24038  0.28341  0.85352  1.0000
  H   H371      1.0  0.25502  0.30997  0.89974  1.0000
  H   H372      1.0  0.29044  0.35061  0.79385  1.0000
  H   H373      1.0  0.27835  0.32311  0.74837  1.0000
  C   C223      1.0  0.05371  0.37653  0.64906  1.0000
  C   C224      1.0  0.06474  0.39723  0.64110  1.0000
  C   C225      1.0  0.05208  0.41060  0.63530  1.0000
  H   H374      1.0  0.08313  0.40297  0.63961  1.0000
  H   H375      1.0  0.06071  0.42662  0.62937  1.0000
  C   C226      1.0  0.11162  0.28401  0.66055  1.0000
  C   C227      1.0  0.11778  0.30503  0.65559  1.0000
  C   C228      1.0  0.14077  0.31661  0.65455  1.0000
  C   C229      1.0  0.15773  0.30727  0.65866  1.0000
  C   C230      1.0  0.15155  0.28627  0.66523  1.0000
  C   C231      1.0  0.12854  0.27465  0.66566  1.0000
  H   H376      1.0  0.10486  0.31238  0.65158  1.0000
  H   H377      1.0  0.14545  0.33287  0.64963  1.0000
  H   H378      1.0  0.16451  0.27899  0.66919  1.0000
  H   H379      1.0  0.12380  0.25839  0.66987  1.0000
  S   S77       1.0  0.45119  0.38900  0.65586  1.0000
  H   H380      1.0  0.36966  0.30294  0.65594  1.0000
  C   C232      1.0  0.98660  0.28048  0.01111  1.0000
  H   H381      1.0  0.04346  0.28035  0.93159  1.0000
  H   H382      1.0  0.05173  0.34939  0.57831  1.0000
  H   H383      1.0  0.02111  0.43838  0.75634  1.0000
  C   C233      1.0  0.04223  0.33883  0.88179  1.0000
  C   C234      1.0  0.02541  0.32121  0.89871  1.0000
  C   C235      1.0  0.01660  0.30554  0.87379  1.0000
  C   C236      1.0  0.02434  0.30750  0.83167  1.0000
  C   C237      1.0  0.04123  0.32509  0.81485  1.0000
  C   C238      1.0  0.05025  0.34061  0.83991  1.0000
  H   H384      1.0  0.01900  0.31969  0.93088  1.0000
  H   H385      1.0  0.00375  0.29189  0.88722  1.0000
  H   H386      1.0  0.04739  0.32675  0.78250  1.0000
  H   H387      1.0  0.06378  0.35386  0.82687  1.0000
  H   H388      1.0  0.01453  0.34590  0.55240  1.0000
  H   H389      1.0  0.15581  0.24470  0.56802  1.0000
  H   H390      1.0  0.32187  0.29590  0.83704  1.0000
  H   H391      1.0  0.06861  0.31444  0.91699  1.0000
  H   H392      1.0  0.33784  0.37619  0.88364  1.0000
  H   H393      1.0  0.32114  0.31552  0.61389  1.0000
  H   H394      1.0  0.06440  0.26973  0.91403  1.0000
  H   H395      1.0  0.28299  0.26785  0.56921  1.0000
  C   C239      1.0  0.34117  0.27658  0.60121  1.0000
  C   C240      1.0  0.34240  0.38841  0.68157  1.0000
  C   C241      1.0  0.32092  0.37589  0.69808  1.0000
  C   C242      1.0  0.30576  0.36421  0.67206  1.0000
  C   C243      1.0  0.31180  0.36563  0.62933  1.0000
  C   C244      1.0  0.33284  0.37888  0.61269  1.0000
  C   C245      1.0  0.34829  0.38989  0.63888  1.0000
  H   H396      1.0  0.31623  0.37483  0.73102  1.0000
  H   H397      1.0  0.28950  0.35413  0.68504  1.0000
  H   H398      1.0  0.33749  0.38026  0.57960  1.0000
  H   H399      1.0  0.36472  0.39970  0.62593  1.0000
  C   C246      1.0  0.40264  0.38524  0.84108  1.0000
  C   C247      1.0  0.40372  0.31431  0.86182  1.0000
  H   H400      1.0  0.40723  0.30917  0.89259  1.0000
  H   H401      1.0  0.05330  0.28543  0.87827  1.0000
  H   H402      1.0  0.00603  0.26070  0.56891  1.0000
  C   C248      1.0  0.14722  0.31449  0.02619  1.0000
  H   H403      1.0  0.02588  0.31665  0.53600  1.0000
  S   S78       1.0  0.20668  0.35991  0.02719  1.0000
  H   H404      1.0  0.97830  0.31318  0.95205  1.0000
  S   S79       1.0  0.23383  0.25891  0.56235  1.0000
  C   C249      1.0  0.34860  0.29781  0.57694  1.0000
  H   H405      1.0  0.40141  0.39936  0.85249  1.0000
  C   C250      1.0  0.11471  0.32712  0.91471  1.0000
  C   C251      1.0  0.09758  0.31465  0.85130  1.0000
  C   C252      1.0  0.10548  0.34517  0.91625  1.0000
  C   C253      1.0  0.08927  0.29740  0.82314  1.0000
  H   H406      1.0  0.13155  0.33316  0.89673  1.0000
  H   H407      1.0  0.08587  0.32389  0.84839  1.0000
  H   H408      1.0  0.11420  0.32472  0.83640  1.0000
  H   H409      1.0  0.09103  0.34186  0.94009  1.0000
  H   H410      1.0  0.11899  0.35818  0.92590  1.0000
  H   H411      1.0  0.10040  0.35005  0.88565  1.0000
  H   H412      1.0  0.04023  0.37896  0.56538  1.0000
  H   H413      1.0  0.07424  0.29903  0.80731  1.0000
  H   H414      1.0  0.08407  0.28197  0.83904  1.0000
  H   H415      1.0  0.10259  0.29854  0.79797  1.0000
  H   H416      1.0  0.40444  0.37473  0.86738  1.0000
  S   S80       1.0  0.98365  0.28866  0.59975  1.0000
  H   H417      1.0  0.97769  0.34588  0.97412  1.0000
  C   C254      1.0  0.27868  0.25173  0.98389  1.0000
  H   H418      1.0  0.13518  0.30191  0.84783  1.0000
  C   C255      1.0  0.04802  0.39371  0.79624  1.0000
  H   H419      1.0  0.99922  0.40784  0.79727  1.0000
  C   C256      1.0  0.01794  0.41043  0.79428  1.0000
  C   C257      1.0  0.02993  0.36921  0.65041  1.0000
  S   S81       1.0  0.22455  0.27118  0.00849  1.0000
  C   C258      1.0  0.99277  0.26154  0.54877  1.0000
  H   H420      1.0  0.40916  0.31075  0.62602  1.0000
  H   H421      1.0  0.36581  0.33859  0.85037  1.0000
  H   H422      1.0  0.33380  0.34457  0.57030  1.0000
  H   H423      1.0  0.35795  0.35136  0.75924  1.0000
  S   S82       1.0  0.27937  0.31969  0.98987  1.0000
  C   C259      1.0  0.38241  0.37549  0.81568  1.0000
  H   H424      1.0  0.33826  0.32301  0.90902  1.0000
  H   H425      1.0  0.36184  0.29858  0.55174  1.0000
  H   H426      1.0  0.29305  0.28920  0.85678  1.0000
  H   H427      1.0  0.04671  0.43191  0.75555  1.0000
  H   H428      1.0  0.01224  0.43488  0.53671  1.0000
  H   H429      1.0  0.37101  0.35295  0.89293  1.0000
  C   C260      1.0  0.16742  0.25537  0.58670  1.0000
  H   H430      1.0  0.46050  0.48085  0.60939  1.0000
  H   H431      1.0  0.05638  0.40703  0.81279  1.0000
  H   H432      1.0  0.38681  0.36337  0.80066  1.0000
  C   C261      1.0  0.01173  0.35743  0.76107  1.0000
  H   H433      1.0  0.31200  0.26446  0.88381  1.0000
  H   H434      1.0  0.00403  0.28890  0.00158  1.0000
  H   H435      1.0  0.99870  0.34773  0.78499  1.0000
  H   H436      1.0  0.32767  0.34339  0.76121  1.0000
  C   C262      1.0  0.35521  0.40272  0.84350  1.0000
  H   H437      1.0  0.33787  0.40202  0.83452  1.0000
  H   H438      1.0  0.19848  0.32356  0.87147  1.0000
  H   H439      1.0  0.02326  0.41908  0.72578  1.0000
  H   H440      1.0  0.15415  0.28013  0.58271  1.0000
  H   H441      1.0  0.38694  0.39521  0.56178  1.0000
  N   N19       1.0  0.28507  0.24596  0.85041  1.0000
  H   H442      1.0  0.98222  0.26352  0.95757  1.0000
  N   N20       1.0  0.21254  0.34534  0.78732  1.0000
  C   C263      1.0  0.23427  0.36236  0.78975  1.0000
  C   C264      1.0  0.19560  0.34615  0.82169  1.0000
  C   C265      1.0  0.20257  0.34703  0.74596  1.0000
  C   C266      1.0  0.21791  0.32578  0.79223  1.0000
  C   C267      1.0  0.25208  0.36679  0.75219  1.0000
  C   C268      1.0  0.20072  0.33993  0.86632  1.0000
  C   C269      1.0  0.19682  0.36667  0.73491  1.0000
  C   C270      1.0  0.19778  0.30640  0.79047  1.0000
  H   H443      1.0  0.23067  0.37671  0.79397  1.0000
  H   H444      1.0  0.24312  0.35939  0.81775  1.0000
  H   H445      1.0  0.17808  0.33672  0.81656  1.0000
  H   H446      1.0  0.19441  0.36168  0.82167  1.0000
  H   H447      1.0  0.21399  0.34519  0.72005  1.0000
  H   H448      1.0  0.18646  0.33452  0.74469  1.0000
  H   H449      1.0  0.23055  0.32547  0.76720  1.0000
  H   H450      1.0  0.22666  0.32424  0.82103  1.0000
  H   H451      1.0  0.25752  0.35359  0.74637  1.0000
  H   H452      1.0  0.24603  0.37240  0.72322  1.0000
  H   H453      1.0  0.26759  0.37880  0.75895  1.0000
  H   H454      1.0  0.18857  0.34304  0.88915  1.0000
  H   H455      1.0  0.18281  0.36780  0.75622  1.0000
  H   H456      1.0  0.19081  0.36655  0.70296  1.0000
  H   H457      1.0  0.21178  0.38028  0.73473  1.0000
  H   H458      1.0  0.19586  0.30257  0.75782  1.0000
  H   H459      1.0  0.18139  0.30740  0.80351  1.0000
  H   H460      1.0  0.20101  0.29373  0.80957  1.0000
  Fe  Fe41      1.0  0.01320  0.29236  0.64131  1.0000
  Fe  Fe42      1.0  0.36655  0.25651  0.02857  1.0000
  C   C271      1.0  0.06167  0.39638  0.75370  1.0000
  C   C272      1.0  0.30645  0.26354  0.85143  1.0000
  S   S83       1.0  0.01303  0.42059  0.63250  1.0000
  H   H461      1.0  0.01062  0.37600  0.90320  1.0000
  C   C273      1.0  0.35499  0.38241  0.86672  1.0000
  C   C274      1.0  0.34055  0.33148  0.66137  1.0000
  H   H462      1.0  0.05138  0.38096  0.81469  1.0000
  Fe  Fe43      1.0  0.23249  0.34402  0.01375  1.0000
  H   H463      1.0  0.98870  0.45682  0.54832  1.0000
  C   C275      1.0  0.34132  0.36240  0.80963  1.0000
  H   H464      1.0  0.32893  0.34460  0.91118  1.0000
  H   H465      1.0  0.16003  0.25197  0.61950  1.0000
  H   H466      1.0  0.02844  0.35554  0.76711  1.0000
  H   H467      1.0  0.36693  0.40739  0.81502  1.0000
  S   S84       1.0  0.41670  0.37003  0.56100  1.0000
  H   H468      1.0  0.99200  0.37396  0.83450  1.0000
  C   C276      1.0  0.97966  0.27410  0.55676  1.0000
  H   H469      1.0  0.05779  0.38210  0.73906  1.0000
  H   H470      1.0  0.14762  0.30860  0.89658  1.0000
  C   C277      1.0  0.41564  0.33748  0.79791  1.0000
  C   C278      1.0  0.02798  0.42549  0.75547  1.0000
  H   H471      1.0  0.25895  0.26048  0.85139  1.0000
  H   H472      1.0  0.02101  0.38731  0.72948  1.0000
  N   N21       1.0  0.35950  0.36730  0.83992  1.0000
  H   H473      1.0  0.08012  0.40086  0.75863  1.0000
  S   S85       1.0  0.26927  0.36252  0.99918  1.0000
  S   S86       1.0  0.39021  0.26070  0.97053  1.0000
  H   H474      1.0  0.34198  0.37608  0.78884  1.0000
  H   H475      1.0  0.36114  0.41490  0.86406  1.0000
  H   H476      1.0  0.34123  0.33166  0.79857  1.0000
  H   H477      1.0  0.39037  0.29470  0.59413  1.0000
  H   H478      1.0  0.13984  0.28322  0.88451  1.0000
  H   H479      1.0  0.32327  0.32974  0.86744  1.0000
  C   C279      1.0  0.26462  0.26404  0.98591  1.0000
  H   H480      1.0  0.32420  0.35777  0.82635  1.0000
  H   H481      1.0  0.32977  0.30032  0.65192  1.0000
  C   C280      1.0  0.01086  0.37808  0.83555  1.0000
  H   H482      1.0  0.05904  0.40812  0.73125  1.0000
  C   C281      1.0  0.33596  0.33607  0.88978  1.0000
  H   H483      1.0  0.37716  0.33396  0.55001  1.0000
  C   C282      1.0  0.01704  0.38775  0.87634  1.0000
  C   C283      1.0  0.37821  0.31236  0.80666  1.0000
  H   H484      1.0  0.38301  0.32879  0.64157  1.0000
  H   H485      1.0  0.34552  0.26582  0.58155  1.0000
  H   H486      1.0  0.27118  0.27972  0.97410  1.0000
  H   H487      1.0  0.38224  0.38658  0.78901  1.0000
  H   H488      1.0  0.36669  0.38539  0.89226  1.0000
  Fe  Fe44      1.0  0.44717  0.41920  0.66509  1.0000
  Fe  Fe45      1.0  0.24202  0.30458  0.00453  1.0000
  H   H489      1.0  0.02479  0.41872  0.82107  1.0000
  H   H490      1.0  0.39103  0.33362  0.75186  1.0000
  H   H491      1.0  0.34743  0.34674  0.64453  1.0000
  H   H492      1.0  0.27720  0.25686  0.79004  1.0000
  H   H493      1.0  0.00689  0.35182  0.73066  1.0000
  C   C284      1.0  0.97429  0.26599  0.98633  1.0000
  C   C285      1.0  0.36382  0.33454  0.57366  1.0000
  H   H494      1.0  0.32426  0.33068  0.67845  1.0000
  H   H495      1.0  0.32250  0.27129  0.60937  1.0000
  H   H496      1.0  0.01478  0.36358  0.83945  1.0000
  H   H497      1.0  0.99438  0.37974  0.75784  1.0000
  H   H498      1.0  0.43650  0.33709  0.84945  1.0000
  C   C286      1.0  0.38253  0.30551  0.84672  1.0000
  C   C287      1.0  0.42022  0.33019  0.83740  1.0000
  C   C288      1.0  0.39543  0.31000  0.60460  1.0000
  H   H499      1.0  0.18412  0.25255  0.58673  1.0000
  C   C289      1.0  0.17023  0.27756  0.57169  1.0000
  H   H500      1.0  0.11216  0.28911  0.93761  1.0000
  C   C290      1.0  0.24208  0.25593  0.00260  1.0000
  S   S87       1.0  0.43642  0.35821  0.76936  1.0000
  H   H501      1.0  0.02131  0.35328  0.65518  1.0000
  S   S88       1.0  0.36004  0.28756  0.87807  1.0000
  H   H502      1.0  0.07906  0.30019  0.95505  1.0000
  C   C291      1.0  0.13470  0.29711  0.88156  1.0000
  H   H503      1.0  0.34986  0.27569  0.63013  1.0000
  C   C292      1.0  0.01720  0.38263  0.64536  1.0000
  C   C293      1.0  0.07687  0.30247  0.92107  1.0000
  H   H504      1.0  0.46191  0.45877  0.72033  1.0000
  C   C294      1.0  0.02831  0.40336  0.63813  1.0000
  H   H505      1.0  0.99885  0.37693  0.64676  1.0000
  H   H506      1.0  0.21809  0.34856  0.87378  1.0000
  C   C295      1.0  0.37547  0.31428  0.62820  1.0000
  C   C296      1.0  0.11074  0.29250  0.90358  1.0000
  H   H507      1.0  0.11840  0.32304  0.94718  1.0000
  H   H508      1.0  0.30023  0.28566  0.80351  1.0000
  H   H509      1.0  0.37201  0.34763  0.59085  1.0000
  H   H510      1.0  0.10031  0.27797  0.89400  1.0000
  C   C297      1.0  0.05889  0.28334  0.90998  1.0000
  H   H511      1.0  0.40294  0.32145  0.57771  1.0000
  Fe  Fe46      1.0  0.42858  0.37727  0.71502  1.0000
  C   C298      1.0  0.01227  0.37962  0.75978  1.0000
  H   H512      1.0  0.29590  0.25805  0.97029  1.0000
  N   N22       1.0  0.35593  0.31531  0.60270  1.0000
  H   H513      1.0  0.18383  0.28713  0.58930  1.0000
  H   H514      1.0  0.32086  0.26165  0.83219  1.0000
  C   C299      1.0  0.34547  0.34017  0.54922  1.0000
  C   C300      1.0  0.26583  0.25094  0.87285  1.0000
  C   C301      1.0  0.16166  0.31421  0.53679  1.0000
  H   H515      1.0  0.97869  0.32831  0.01581  1.0000
  S   S89       1.0  0.02910  0.35384  0.03221  1.0000
  H   H516      1.0  0.18311  0.31770  0.01887  1.0000
  H   H517      1.0  0.16332  0.31536  0.57062  1.0000
  H   H518      1.0  0.09244  0.35759  0.57417  1.0000
  H   H519      1.0  0.14187  0.29854  0.02282  1.0000
  C   C302      1.0  0.06031  0.35267  0.54624  1.0000
  H   H520      1.0  0.08688  0.38048  0.55907  1.0000
  C   C303      1.0  0.08520  0.36533  0.54950  1.0000
  H   H521      1.0  0.06118  0.33798  0.53706  1.0000
  C   C304      1.0  0.27853  0.26058  0.54122  1.0000
  C   C305      1.0  0.17761  0.34592  0.02859  1.0000
  S   S90       1.0  0.08384  0.36029  0.01712  1.0000
  C   C306      1.0  0.17058  0.32532  0.02390  1.0000
  H   H522      1.0  0.00228  0.71074  0.27251  1.0000
  C   C307      1.0  0.02205  0.58776  0.51898  1.0000
  H   H523      1.0  0.13204  0.64410  0.16711  1.0000
  S   S91       1.0  0.08584  0.66855  0.11544  1.0000
  H   H524      1.0  0.43110  0.49917  0.32049  1.0000
  Fe  Fe47      1.0  0.03697  0.60946  0.33469  1.0000
  S   S92       1.0  0.01404  0.58624  0.29951  1.0000
  S   S93       1.0  0.05552  0.64156  0.30752  1.0000
  Fe  Fe48      1.0  0.02787  0.58112  0.41534  1.0000
  S   S94       1.0  0.00457  0.55549  0.38609  1.0000
  S   S95       1.0  0.03277  0.57465  0.48333  1.0000
  Fe  Fe49      1.0  0.03027  0.56494  0.33150  1.0000
  S   S96       1.0  0.03887  0.54267  0.29300  1.0000
  Fe  Fe50      1.0  0.99045  0.57886  0.35732  1.0000
  H   H525      1.0  0.01968  0.69730  0.33631  1.0000
  S   S97       1.0  0.05522  0.58872  0.36277  1.0000
  S   S98       1.0  0.01184  0.60393  0.39041  1.0000
  S   S99       1.0  0.12621  0.72200  0.05337  1.0000
  H   H526      1.0  0.04304  0.58048  0.22807  1.0000
  H   H527      1.0  0.01088  0.67499  0.28255  1.0000
  C   C308      1.0  0.04509  0.51947  0.36207  1.0000
  C   C309      1.0  0.03871  0.51992  0.32106  1.0000
  S   S100      1.0  0.09670  0.72471  0.13889  1.0000
  H   H528      1.0  0.04976  0.53317  0.37726  1.0000
  C   C310      1.0  0.47233  0.57614  0.23540  1.0000
  C   C311      1.0  0.07652  0.66136  0.16859  1.0000
  C   C312      1.0  0.08612  0.67369  0.19903  1.0000
  C   C313      1.0  0.07939  0.66738  0.24138  1.0000
  C   C314      1.0  0.06300  0.64870  0.25377  1.0000
  C   C315      1.0  0.05306  0.63642  0.22337  1.0000
  C   C316      1.0  0.05997  0.64268  0.18088  1.0000
  H   H529      1.0  0.09917  0.68792  0.19000  1.0000
  H   H530      1.0  0.08715  0.67695  0.26472  1.0000
  H   H531      1.0  0.04019  0.62211  0.23254  1.0000
  H   H532      1.0  0.05249  0.63307  0.15743  1.0000
  H   H533      1.0  0.99650  0.50272  0.42605  1.0000
  H   H534      1.0  0.06061  0.69949  0.21488  1.0000
  C   C317      1.0  0.45453  0.57281  0.27248  1.0000
  H   H535      1.0  0.00846  0.73063  0.20283  1.0000
  H   H536      1.0  0.08541  0.73494  0.23130  1.0000
  C   C318      1.0  0.06102  0.58641  0.21510  1.0000
  C   C319      1.0  0.46712  0.50451  0.30833  1.0000
  C   C320      1.0  0.03302  0.50215  0.30146  1.0000
  C   C321      1.0  0.46551  0.54083  0.22552  1.0000
  H   H537      1.0  0.07932  0.71373  0.27055  1.0000
  H   H538      1.0  0.06510  0.73276  0.27251  1.0000
  H   H539      1.0  0.12878  0.59190  0.21692  1.0000
  H   H540      1.0  0.99120  0.51003  0.47723  1.0000
  C   C322      1.0  0.43977  0.57863  0.16783  1.0000
  C   C323      1.0  0.11351  0.60946  0.27603  1.0000
  H   H541      1.0  0.09353  0.62160  0.31880  1.0000
  H   H542      1.0  0.03426  0.67901  0.34289  1.0000
  H   H543      1.0  0.10483  0.63824  0.27235  1.0000
  C   C324      1.0  0.44373  0.55915  0.18688  1.0000
  H   H544      1.0  0.02822  0.50242  0.26966  1.0000
  H   H545      1.0  0.99272  0.71064  0.12571  1.0000
  C   C325      1.0  0.98237  0.71841  0.51071  1.0000
  H   H546      1.0  0.42950  0.55141  0.21081  1.0000
  H   H547      1.0  0.44517  0.51960  0.18439  1.0000
  H   H548      1.0  0.01933  0.51607  0.45400  1.0000
  H   H549      1.0  0.02912  0.72490  0.28606  1.0000
  H   H550      1.0  0.45146  0.53563  0.25059  1.0000
  S   S101      1.0  0.03962  0.73659  0.11863  1.0000
  C   C326      1.0  0.05380  0.71147  0.22460  1.0000
  H   H551      1.0  0.09604  0.63026  0.21050  1.0000
  C   C327      1.0  0.10343  0.56630  0.24935  1.0000
  C   C328      1.0  0.02016  0.71798  0.25956  1.0000
  C   C329      1.0  0.03353  0.69234  0.32233  1.0000
  H   H552      1.0  0.13784  0.64124  0.22043  1.0000
  H   H553      1.0  0.07009  0.60694  0.26177  1.0000
  C   C330      1.0  0.99486  0.70505  0.50599  1.0000
  H   H554      1.0  0.13229  0.61313  0.27042  1.0000
  C   C331      1.0  0.01880  0.60622  0.50653  1.0000
  H   H555      1.0  0.99691  0.68718  0.22235  1.0000
  H   H556      1.0  0.05200  0.50130  0.41406  1.0000
  H   H557      1.0  0.07237  0.58298  0.27685  1.0000
  H   H558      1.0  0.08487  0.55841  0.25154  1.0000
  H   H559      1.0  0.09964  0.61421  0.17388  1.0000
  H   H560      1.0  0.14182  0.62357  0.18518  1.0000
  H   H561      1.0  0.03765  0.68025  0.17387  1.0000
  C   C332      1.0  0.10831  0.62716  0.29534  1.0000
  H   H562      1.0  0.02017  0.66268  0.21593  1.0000
  H   H563      1.0  0.05444  0.72087  0.19475  1.0000
  H   H564      1.0  0.06185  0.59823  0.18942  1.0000
  H   H565      1.0  0.46028  0.58549  0.29196  1.0000
  H   H566      1.0  0.00808  0.66896  0.16949  1.0000
  C   C333      1.0  0.01511  0.69284  0.21033  1.0000
  Fe  Fe51      1.0  0.09563  0.70197  0.09372  1.0000
  H   H567      1.0  0.03982  0.67713  0.27035  1.0000
  H   H568      1.0  0.10389  0.58324  0.19029  1.0000
  H   H569      1.0  0.06514  0.57360  0.20261  1.0000
  C   C334      1.0  0.02835  0.68597  0.27839  1.0000
  N   N23       1.0  0.46655  0.56108  0.20369  1.0000
  H   H570      1.0  0.42126  0.57678  0.17103  1.0000
  C   C335      1.0  0.99883  0.71348  0.09318  1.0000
  C   C336      1.0  0.02085  0.67518  0.19192  1.0000
  C   C337      1.0  0.10584  0.61988  0.20373  1.0000
  H   H571      1.0  0.02327  0.61287  0.47466  1.0000
  C   C338      1.0  0.02089  0.72634  0.08117  1.0000
  C   C339      1.0  0.00247  0.50421  0.45767  1.0000
  H   H572      1.0  0.01612  0.70404  0.18324  1.0000
  C   C340      1.0  0.07620  0.59489  0.25008  1.0000
  C   C341      1.0  0.02030  0.73560  0.22737  1.0000
  H   H573      1.0  0.98526  0.59532  0.17813  1.0000
  H   H574      1.0  0.98832  0.60813  0.24237  1.0000
  C   C342      1.0  0.13094  0.63274  0.19402  1.0000
  N   N24       1.0  0.02980  0.70238  0.24380  1.0000
  H   H575      1.0  0.10937  0.56790  0.28108  1.0000
  H   H576      1.0  0.10898  0.59689  0.30155  1.0000
  H   H577      1.0  0.99293  0.69655  0.47922  1.0000
  H   H578      1.0  0.44562  0.58180  0.13421  1.0000
  C   C343      1.0  0.10989  0.58660  0.22165  1.0000
  H   H579      1.0  0.43766  0.57272  0.26227  1.0000
  H   H580      1.0  0.12336  0.63579  0.31081  1.0000
  N   N25       1.0  0.10135  0.60274  0.23788  1.0000
  H   H581      1.0  0.11165  0.55617  0.23501  1.0000
  H   H582      1.0  0.97925  0.64850  0.26424  1.0000
  C   C344      1.0  0.02863  0.73002  0.03901  1.0000
  H   H583      1.0  0.44071  0.54894  0.16175  1.0000
  H   H584      1.0  0.45296  0.55890  0.29310  1.0000
  H   H585      1.0  0.05004  0.70415  0.32291  1.0000
  Fe  Fe52      1.0  0.07373  0.73476  0.09615  1.0000
  H   H586      1.0  0.44775  0.59199  0.18402  1.0000
  S   S102      1.0  0.07131  0.71105  0.05292  1.0000
  H   H587      1.0  0.00775  0.63066  0.52582  1.0000
  C   C345      1.0  0.98494  0.70370  0.06313  1.0000
  H   H588      1.0  0.98048  0.63358  0.20108  1.0000
  C   C346      1.0  0.07166  0.72371  0.25188  1.0000
  H   H589      1.0  0.99032  0.62963  0.28963  1.0000
  H   H590      1.0  0.98133  0.56695  0.45928  1.0000
  H   H591      1.0  0.46211  0.50960  0.21748  1.0000
  C   C347      1.0  0.04627  0.50140  0.38293  1.0000
  C   C348      1.0  0.46194  0.52336  0.19783  1.0000
  H   H592      1.0  0.97873  0.57293  0.21442  1.0000
  H   H593      1.0  0.02027  0.69300  0.53128  1.0000
  C   C349      1.0  0.97538  0.63515  0.28757  1.0000
  H   H594      1.0  0.03761  0.74379  0.21289  1.0000
  H   H595      1.0  0.07535  0.66873  0.61437  1.0000
  N   N26       1.0  0.05194  0.65765  0.66967  1.0000
  H   H596      1.0  0.06643  0.63535  0.64730  1.0000
  Fe  Fe53      1.0  0.04697  0.72047  0.75558  1.0000
  H   H597      1.0  0.99985  0.66512  0.97611  1.0000
  H   H598      1.0  0.10165  0.67727  0.65929  1.0000
  H   H599      1.0  0.04988  0.65960  0.94094  1.0000
  H   H600      1.0  0.97654  0.67896  0.77746  1.0000
  C   C350      1.0  0.02245  0.65560  0.73172  1.0000
  C   C351      1.0  0.00417  0.65328  0.95973  1.0000
  S   S103      1.0  0.06552  0.70299  0.79376  1.0000
  Fe  Fe54      1.0  0.00094  0.72567  0.74302  1.0000
  S   S104      1.0  0.97657  0.69477  0.98272  1.0000
  S   S105      1.0  0.01687  0.70293  0.72420  1.0000
  N   N27       1.0  0.01814  0.66226  0.91911  1.0000
  C   C352      1.0  0.46868  0.49746  0.60505  1.0000
  C   C353      1.0  0.99999  0.72699  0.57546  1.0000
  C   C354      1.0  0.04476  0.62097  0.70320  1.0000
  H   H601      1.0  0.02601  0.61449  0.70964  1.0000
  H   H602      1.0  0.02096  0.72331  0.97660  1.0000
  H   H603      1.0  0.02478  0.63459  0.90710  1.0000
  C   C355      1.0  0.00436  0.60786  0.57707  1.0000
  C   C356      1.0  0.01024  0.67874  0.89810  1.0000
  C   C357      1.0  0.05068  0.63624  0.66393  1.0000
  C   C358      1.0  0.09398  0.66710  0.68792  1.0000
  H   H604      1.0  0.06223  0.68634  0.63124  1.0000
  H   H605      1.0  0.04076  0.64956  0.58347  1.0000
  C   C359      1.0  0.01787  0.64599  0.89118  1.0000
  C   C360      1.0  0.02889  0.65891  0.68427  1.0000
  H   H606      1.0  0.01950  0.56537  0.57056  1.0000
  C   C361      1.0  0.05907  0.67003  0.62781  1.0000
  H   H607      1.0  0.05179  0.60849  0.69800  1.0000
  H   H608      1.0  0.06994  0.68278  0.70231  1.0000
  H   H609      1.0  0.06480  0.69226  0.96696  1.0000
  C   C362      1.0  0.04222  0.66459  0.59357  1.0000
  H   H610      1.0  0.00150  0.73522  0.60241  1.0000
  H   H611      1.0  0.00621  0.72935  0.90079  1.0000
  H   H612      1.0  0.09501  0.65177  0.68486  1.0000
  C   C363      1.0  0.98660  0.67241  0.88054  1.0000
  C   C364      1.0  0.07461  0.71230  0.84099  1.0000
  C   C365      1.0  0.09290  0.70766  0.85853  1.0000
  C   C366      1.0  0.10168  0.71622  0.89434  1.0000
  H   H613      1.0  0.05250  0.62717  0.73125  1.0000
  H   H614      1.0  0.10093  0.69811  0.84346  1.0000
  H   H615      1.0  0.11671  0.71358  0.90623  1.0000
  H   H616      1.0  0.98228  0.65787  0.86709  1.0000
  H   H617      1.0  0.00348  0.58290  0.62164  1.0000
  Fe  Fe55      1.0  0.03157  0.72466  0.66784  1.0000
  H   H618      1.0  0.00952  0.68988  0.92019  1.0000
  C   C367      1.0  0.01290  0.71403  0.57034  1.0000
  S   S106      1.0  0.97377  0.57378  0.70587  1.0000
  H   H619      1.0  0.05337  0.67957  0.90103  1.0000
  H   H620      1.0  0.97543  0.73977  0.54921  1.0000
  H   H621      1.0  0.04553  0.74011  0.02951  1.0000
  S   S107      1.0  0.03256  0.71152  0.60665  1.0000
  C   C368      1.0  0.01015  0.61634  0.53562  1.0000
  C   C369      1.0  0.98183  0.63616  0.95756  1.0000
  H   H622      1.0  0.97573  0.72551  0.85059  1.0000
  H   H623      1.0  0.03742  0.62987  0.64251  1.0000
  H   H624      1.0  0.10472  0.67306  0.71346  1.0000
  C   C370      1.0  0.06944  0.66690  0.69930  1.0000
  H   H625      1.0  0.06501  0.65924  0.73140  1.0000
  H   H626      1.0  0.97861  0.57286  0.91007  1.0000
  H   H627      1.0  0.02739  0.67399  0.67381  1.0000
  C   C371      1.0  0.00769  0.58945  0.58963  1.0000
  H   H628      1.0  0.01509  0.64797  0.66973  1.0000
  H   H629      1.0  0.02285  0.68799  0.87276  1.0000
  H   H630      1.0  0.04873  0.67566  0.56564  1.0000
  C   C372      1.0  0.03110  0.65319  0.84815  1.0000
  S   S108      1.0  0.99331  0.62073  0.61263  1.0000
  H   H631      1.0  0.04966  0.65974  0.85059  1.0000
  H   H632      1.0  0.02510  0.66540  0.60294  1.0000
  H   H633      1.0  0.00037  0.63724  0.88471  1.0000
  C   C373      1.0  0.04248  0.67152  0.92930  1.0000
  C   C374      1.0  0.01470  0.72050  0.00905  1.0000
  H   H634      1.0  0.01417  0.64676  0.98155  1.0000
  C   C375      1.0  0.98152  0.53500  0.80826  1.0000
  H   H635      1.0  0.02268  0.64080  0.74612  1.0000
  H   H636      1.0  0.00486  0.65623  0.73735  1.0000
  H   H637      1.0  0.03349  0.66778  0.74816  1.0000
  H   H638      1.0  0.11725  0.74223  0.79519  1.0000
  C   C376      1.0  0.01036  0.70310  0.53547  1.0000
  C   C377      1.0  0.04635  0.68687  0.96199  1.0000
  S   S109      1.0  0.06361  0.74034  0.69723  1.0000
  Fe  Fe56      1.0  0.10168  0.73353  0.01758  1.0000
  C   C378      1.0  0.01678  0.57955  0.56072  1.0000
  C   C379      1.0  0.06423  0.72456  0.86084  1.0000
  H   H639      1.0  0.02462  0.66410  0.82978  1.0000
  H   H640      1.0  0.03738  0.68020  0.99282  1.0000
  C   C380      1.0  0.09193  0.72916  0.91324  1.0000
  H   H641      1.0  0.04977  0.72782  0.84819  1.0000
  S   S110      1.0  0.98218  0.58683  0.82388  1.0000
  H   H642      1.0  0.97455  0.54853  0.57023  1.0000
  S   S111      1.0  0.02995  0.74189  0.77899  1.0000
  C   C381      1.0  0.07291  0.73300  0.89686  1.0000
  H   H643      1.0  0.04153  0.70033  0.95133  1.0000
  H   H644      1.0  0.45514  0.50409  0.59692  1.0000
  C   C382      1.0  0.99240  0.73622  0.90509  1.0000
  C   C383      1.0  0.98514  0.72948  0.54535  1.0000
  H   H645      1.0  0.02872  0.63999  0.83009  1.0000
  H   H646      1.0  0.98903  0.73629  0.93905  1.0000
  H   H647      1.0  0.99532  0.53182  0.78960  1.0000
  H   H648      1.0  0.97516  0.54536  0.78798  1.0000
  H   H649      1.0  0.98948  0.54271  0.83491  1.0000
  H   H650      1.0  0.98158  0.67081  0.67896  1.0000
  H   H651      1.0  0.98527  0.62232  0.94906  1.0000
  H   H652      1.0  0.47023  0.53383  0.56253  1.0000
  C   C384      1.0  0.99300  0.70711  0.02108  1.0000
  H   H653      1.0  0.98335  0.65997  0.63150  1.0000
  H   H654      1.0  0.98632  0.68361  0.85421  1.0000
  H   H655      1.0  0.06543  0.74312  0.91120  1.0000
  H   H656      1.0  0.19742  0.94999  0.48955  1.0000
  H   H657      1.0  0.24932  0.94047  0.21459  1.0000
  S   S112      1.0  0.18774  0.85839  0.12217  1.0000
  H   H658      1.0  0.28131  0.83458  0.25711  1.0000
  H   H659      1.0  0.26401  0.82347  0.30353  1.0000
  Fe  Fe57      1.0  0.27346  0.89593  0.10633  1.0000
  S   S113      1.0  0.30282  0.89418  0.14423  1.0000
  S   S114      1.0  0.24335  0.90251  0.13554  1.0000
  Fe  Fe58      1.0  0.35709  0.95463  0.33129  1.0000
  S   S115      1.0  0.39230  0.97303  0.30492  1.0000
  S   S116      1.0  0.32524  0.94771  0.29535  1.0000
  Fe  Fe59      1.0  0.37049  0.95836  0.42256  1.0000
  S   S117      1.0  0.40656  0.97691  0.40299  1.0000
  S   S118      1.0  0.35712  0.94984  0.49051  1.0000
  H   H660      1.0  0.22418  0.95963  0.28425  1.0000
  H   H661      1.0  0.27687  0.86305  0.28624  1.0000
  Fe  Fe60      1.0  0.40441  0.95515  0.35501  1.0000
  S   S119      1.0  0.43161  0.94018  0.34674  1.0000
  S   S120      1.0  0.35534  0.97602  0.37813  1.0000
  S   S121      1.0  0.36911  0.93512  0.37804  1.0000
  H   H662      1.0  0.03045  0.80899  0.51370  1.0000
  H   H663      1.0  0.19114  0.84464  0.21124  1.0000
  H   H664      1.0  0.24395  0.82345  0.14539  1.0000
  C   C385      1.0  0.36629  0.96857  0.52452  1.0000
  H   H665      1.0  0.21088  0.86588  0.22937  1.0000
  Fe  Fe61      1.0  0.39126  0.99301  0.35518  1.0000
  S   S122      1.0  0.25213  0.87035  0.07336  1.0000
  C   C386      1.0  0.31112  0.98352  0.09940  1.0000
  H   H666      1.0  0.29073  0.95291  0.09479  1.0000
  H   H667      1.0  0.17531  0.81963  0.03728  1.0000
  H   H668      1.0  0.24461  0.87053  0.25553  1.0000
  C   C387      1.0  0.28182  0.98096  0.20506  1.0000
  H   H669      1.0  0.21466  0.83190  0.10701  1.0000
  C   C388      1.0  0.24419  0.92498  0.52513  1.0000
  H   H670      1.0  0.25393  0.81175  0.18948  1.0000
  H   H671      1.0  0.31590  0.97475  0.52779  1.0000
  H   H672      1.0  0.23094  0.81688  0.24654  1.0000
  H   H673      1.0  0.23595  0.83537  0.28210  1.0000
  C   C389      1.0  0.46583  0.97536  0.31812  1.0000
  H   H674      1.0  0.45867  0.95886  0.42235  1.0000
  H   H675      1.0  0.29390  0.87102  0.23662  1.0000
  C   C390      1.0  0.45936  0.95439  0.32676  1.0000
  H   H676      1.0  0.21335  0.96128  0.19285  1.0000
  C   C391      1.0  0.31038  0.91059  0.18363  1.0000
  C   C392      1.0  0.32932  0.91080  0.20627  1.0000
  C   C393      1.0  0.33457  0.92255  0.23994  1.0000
  C   C394      1.0  0.32068  0.93391  0.25153  1.0000
  C   C395      1.0  0.30195  0.93387  0.22856  1.0000
  C   C396      1.0  0.29697  0.92249  0.19448  1.0000
  H   H677      1.0  0.33981  0.90165  0.19810  1.0000
  H   H678      1.0  0.34904  0.92244  0.25747  1.0000
  H   H679      1.0  0.29107  0.94252  0.23750  1.0000
  H   H680      1.0  0.28254  0.92270  0.17715  1.0000
  H   H681      1.0  0.27294  0.82420  0.14522  1.0000
  C   C397      1.0  0.15727  0.82072  0.12222  1.0000
  H   H682      1.0  0.47309  0.95537  0.46695  1.0000
  C   C398      1.0  0.30583  0.96264  0.44881  1.0000
  H   H683      1.0  0.13302  0.79097  0.12272  1.0000
  H   H684      1.0  0.14433  0.82786  0.12773  1.0000
  C   C399      1.0  0.22421  0.97389  0.26623  1.0000
  H   H685      1.0  0.04932  0.77374  0.51017  1.0000
  N   N28       1.0  0.28229  0.95404  0.52028  1.0000
  H   H686      1.0  0.24069  0.96724  0.16730  1.0000
  C   C400      1.0  0.35205  0.99280  0.23008  1.0000
  H   H687      1.0  0.20452  0.84096  0.25768  1.0000
  C   C401      1.0  0.21615  0.98015  0.50151  1.0000
  H   H688      1.0  0.20637  0.97122  0.25778  1.0000
  H   H689      1.0  0.21225  0.99216  0.16946  1.0000
  H   H690      1.0  0.27357  0.94077  0.46247  1.0000
  N   N29       1.0  0.24043  0.97846  0.22778  1.0000
  H   H691      1.0  0.35119  0.97146  0.18469  1.0000
  H   H692      1.0  0.45340  0.98316  0.32244  1.0000
  C   C402      1.0  0.20741  0.84957  0.22646  1.0000
  H   H693      1.0  0.15774  0.85456  0.04884  1.0000
  H   H694      1.0  0.07046  0.81799  0.53195  1.0000
  Fe  Fe62      1.0  0.12534  0.74571  0.09565  1.0000
  C   C403      1.0  0.15082  0.79985  0.11932  1.0000
  C   C404      1.0  0.29064  0.96821  0.09583  1.0000
  S   S123      1.0  0.10229  0.75820  0.05783  1.0000
  C   C405      1.0  0.19053  0.80207  0.10933  1.0000
  C   C406      1.0  0.28633  0.99219  0.50503  1.0000
  H   H695      1.0  0.26230  0.96446  0.26119  1.0000
  S   S124      1.0  0.16023  0.76416  0.11232  1.0000
  H   H696      1.0  0.32182  0.97062  0.46235  1.0000
  H   H697      1.0  0.29714  0.97887  0.21849  1.0000
  Fe  Fe63      1.0  0.22243  0.87913  0.09781  1.0000
  C   C407      1.0  0.26351  0.97845  0.24083  1.0000
  C   C408      1.0  0.03905  0.78069  0.52951  1.0000
  H   H698      1.0  0.26283  0.80899  0.26086  1.0000
  H   H699      1.0  0.20345  0.79482  0.10466  1.0000
  C   C409      1.0  0.36003  0.98762  0.18768  1.0000
  H   H700      1.0  0.22370  0.93105  0.18967  1.0000
  H   H701      1.0  0.29592  0.93423  0.48700  1.0000
  H   H702      1.0  0.01425  0.74661  0.24344  1.0000
  C   C410      1.0  0.27030  0.97291  0.09285  1.0000
  C   C411      1.0  0.27085  0.97007  0.51191  1.0000
  C   C412      1.0  0.38100  0.98762  0.50980  1.0000
  H   H703      1.0  0.32008  0.98970  0.29847  1.0000
  C   C413      1.0  0.27027  0.99262  0.09642  1.0000
  H   H704      1.0  0.28417  0.88828  0.26326  1.0000
  C   C414      1.0  0.23175  0.94125  0.21298  1.0000
  C   C415      1.0  0.23135  0.96270  0.19856  1.0000
  H   H705      1.0  0.27664  0.96962  0.18266  1.0000
  H   H706      1.0  0.42479  0.96344  0.49895  1.0000
  H   H707      1.0  0.26065  0.96725  0.48422  1.0000
  S   S125      1.0  0.24482  0.95471  0.08357  1.0000
  H   H708      1.0  0.23610  0.93546  0.50959  1.0000
  C   C416      1.0  0.20491  0.95958  0.51304  1.0000
  H   H709      1.0  0.35851  0.98440  0.25487  1.0000
  C   C417      1.0  0.47239  0.96679  0.44169  1.0000
  C   C418      1.0  0.19692  0.82303  0.11085  1.0000
  C   C419      1.0  0.16746  0.79043  0.11344  1.0000
  C   C420      1.0  0.18031  0.83234  0.11798  1.0000
  Fe  Fe64      1.0  0.24768  0.92388  0.07800  1.0000
  H   H710      1.0  0.26008  0.87969  0.20635  1.0000
  C   C421      1.0  0.22566  0.99243  0.53213  1.0000
  N   N30       1.0  0.24845  0.84718  0.21845  1.0000
  C   C422      1.0  0.22636  0.84576  0.19879  1.0000
  C   C423      1.0  0.26492  0.84518  0.18446  1.0000
  C   C424      1.0  0.25724  0.86784  0.23314  1.0000
  C   C425      1.0  0.24382  0.83086  0.25441  1.0000
  C   C426      1.0  0.25828  0.82488  0.16555  1.0000
  C   C427      1.0  0.27931  0.87240  0.25591  1.0000
  C   C428      1.0  0.26434  0.82441  0.26896  1.0000
  H   H711      1.0  0.22935  0.85651  0.17002  1.0000
  H   H712      1.0  0.21871  0.83054  0.18858  1.0000
  H   H713      1.0  0.28237  0.84792  0.19451  1.0000
  H   H714      1.0  0.26702  0.85712  0.15819  1.0000
  H   H715      1.0  0.32694  0.97997  0.10012  1.0000
  C   C429      1.0  0.03265  0.79597  0.49898  1.0000
  H   H716      1.0  0.27067  0.99097  0.26017  1.0000
  H   H717      1.0  0.22200  0.93522  0.24338  1.0000
  C   C430      1.0  0.28873  0.94686  0.48018  1.0000
  S   S126      1.0  0.22359  0.90132  0.04290  1.0000
  H   H718      1.0  0.01604  0.78845  0.48657  1.0000
  H   H719      1.0  0.33335  0.98583  0.23305  1.0000
  H   H720      1.0  0.47062  0.92819  0.32730  1.0000
  H   H721      1.0  0.24801  0.91520  0.50246  1.0000
  C   C431      1.0  0.42453  0.95664  0.53145  1.0000
  H   H722      1.0  0.46737  0.97891  0.45555  1.0000
  H   H723      1.0  0.04579  0.80177  0.47248  1.0000
  H   H724      1.0  0.37850  0.98948  0.18561  1.0000
  H   H725      1.0  0.31067  0.95471  0.42332  1.0000
  H   H726      1.0  0.29800  0.97348  0.43383  1.0000
  H   H727      1.0  0.38757  0.99063  0.47767  1.0000
  S   S127      1.0  0.27896  0.91861  0.05032  1.0000
  H   H728      1.0  0.43838  0.94969  0.53253  1.0000
  S   S128      1.0  0.21715  0.99016  0.44903  1.0000
  C   C432      1.0  0.22913  0.98994  0.29746  1.0000
  H   H729      1.0  0.24586  0.99207  0.31059  1.0000
  H   H730      1.0  0.21610  0.98480  0.32424  1.0000
  H   H731      1.0  0.08301  0.79893  0.52534  1.0000
  H   H732      1.0  0.00938  0.77148  0.61140  1.0000
  C   C433      1.0  0.01268  0.78756  0.60059  1.0000
  H   H733      1.0  0.00535  0.79434  0.62534  1.0000
  H   H734      1.0  0.00336  0.78875  0.57242  1.0000
  H   H735      1.0  0.02347  0.76787  0.53988  1.0000
  S   S129      1.0  0.01340  0.74646  0.68432  1.0000
  H   H736      1.0  0.99891  0.75195  0.89020  1.0000
  H   H737      1.0  0.25827  0.96950  0.53809  1.0000
  N   N31       1.0  0.30069  0.99233  0.96116  1.0000
  C   C434      1.0  0.20308  0.95133  0.55489  1.0000
  C   C435      1.0  0.32332  0.99247  0.97699  1.0000
  H   H738      1.0  0.27423  0.92475  0.55635  1.0000
  H   H739      1.0  0.23147  0.91490  0.54917  1.0000
  H   H740      1.0  0.32116  0.98703  0.01086  1.0000
  S   S130      1.0  0.10707  0.74467  0.94893  1.0000
  H   H741      1.0  0.03969  0.76042  0.60338  1.0000
  H   H742      1.0  0.31124  0.98854  0.85631  1.0000
  H   H743      1.0  0.04528  0.80107  0.62351  1.0000
  Fe  Fe65      1.0  0.18210  0.87554  0.68061  1.0000
  H   H744      1.0  0.31446  0.90990  0.78809  1.0000
  H   H745      1.0  0.45300  0.94867  0.59714  1.0000
  H   H746      1.0  0.13561  0.80457  0.65405  1.0000
  H   H747      1.0  0.19434  0.85509  0.02849  1.0000
  H   H748      1.0  0.41322  0.98627  0.63098  1.0000
  C   C436      1.0  0.46673  0.96655  0.64680  1.0000
  H   H749      1.0  0.14427  0.77121  0.82163  1.0000
  H   H750      1.0  0.46672  0.97476  0.58168  1.0000
  H   H751      1.0  0.19922  0.82376  0.94076  1.0000
  H   H752      1.0  0.10652  0.74487  0.74556  1.0000
  H   H753      1.0  0.33048  0.98183  0.96232  1.0000
  C   C437      1.0  0.13069  0.77444  0.84067  1.0000
  C   C438      1.0  0.28356  0.97177  0.97273  1.0000
  H   H754      1.0  0.20870  0.81559  0.01418  1.0000
  H   H755      1.0  0.07424  0.75024  0.59660  1.0000
  H   H756      1.0  0.08416  0.83552  0.72487  1.0000
  H   H757      1.0  0.41178  0.97776  0.56058  1.0000
  H   H758      1.0  0.31518  0.97443  0.60056  1.0000
  C   C439      1.0  0.11631  0.75351  0.76957  1.0000
  C   C440      1.0  0.30324  0.96101  0.54400  1.0000
  C   C441      1.0  0.09791  0.78679  0.84253  1.0000
  H   H759      1.0  0.06356  0.77754  0.62213  1.0000
  C   C442      1.0  0.10187  0.79965  0.68248  1.0000
  C   C443      1.0  0.42740  0.97318  0.56125  1.0000
  H   H760      1.0  0.29504  0.85193  0.90919  1.0000
  H   H761      1.0  0.13364  0.76144  0.75535  1.0000
  H   H762      1.0  0.08558  0.80754  0.80118  1.0000
  H   H763      1.0  0.45541  0.96335  0.67559  1.0000
  H   H764      1.0  0.11797  0.80811  0.76819  1.0000
  H   H765      1.0  0.22188  0.84223  0.01786  1.0000
  H   H766      1.0  0.26044  0.96052  0.66405  1.0000
  H   H767      1.0  0.17598  0.79589  0.98111  1.0000
  H   H768      1.0  0.08258  0.81936  0.60695  1.0000
  C   C444      1.0  0.07382  0.80482  0.54905  1.0000
  C   C445      1.0  0.10367  0.76772  0.78525  1.0000
  C   C446      1.0  0.22943  0.89124  0.84557  1.0000
  C   C447      1.0  0.05601  0.77224  0.59288  1.0000
  H   H769      1.0  0.27371  0.98498  0.80809  1.0000
  C   C448      1.0  0.45455  0.96403  0.60584  1.0000
  C   C449      1.0  0.12445  0.81129  0.66993  1.0000
  C   C450      1.0  0.31855  0.99146  0.88680  1.0000
  C   C451      1.0  0.43069  0.98489  0.63011  1.0000
  H   H770      1.0  0.31464  0.94128  0.87830  1.0000
  H   H771      1.0  0.17385  0.87227  0.92707  1.0000
  H   H772      1.0  0.39586  0.95160  0.61878  1.0000
  S   S131      1.0  0.38581  0.99328  0.79931  1.0000
  H   H773      1.0  0.28093  0.97001  0.77221  1.0000
  H   H774      1.0  0.08748  0.75728  0.80108  1.0000
  H   H775      1.0  0.28651  0.97376  0.59174  1.0000
  S   S132      1.0  0.32389  0.96280  0.78622  1.0000
  C   C452      1.0  0.26780  0.97714  0.78024  1.0000
  N   N32       1.0  0.05180  0.78920  0.56584  1.0000
  C   C453      1.0  0.29894  0.96533  0.58920  1.0000
  C   C454      1.0  0.36567  0.97937  0.59428  1.0000
  H   H776      1.0  0.35957  0.97609  0.62678  1.0000
  C   C455      1.0  0.25662  0.98138  0.70763  1.0000
  H   H777      1.0  0.28708  0.97622  0.67808  1.0000
  H   H778      1.0  0.40770  0.94486  0.53770  1.0000
  C   C456      1.0  0.03833  0.79899  0.59235  1.0000
  H   H779      1.0  0.19417  0.93551  0.56351  1.0000
  Fe  Fe66      1.0  0.40906  0.99030  0.74662  1.0000
  H   H780      1.0  0.41251  0.93620  0.60427  1.0000
  C   C457      1.0  0.26946  0.96771  0.69044  1.0000
  C   C458      1.0  0.28818  0.95407  0.95297  1.0000
  H   H781      1.0  0.25653  0.99245  0.68091  1.0000
  H   H782      1.0  0.42714  0.93466  0.67249  1.0000
  H   H783      1.0  0.13474  0.81470  0.81066  1.0000
  H   H784      1.0  0.10511  0.82583  0.56671  1.0000
  H   H785      1.0  0.34181  0.87767  0.82631  1.0000
  H   H786      1.0  0.29389  0.88599  0.89214  1.0000
  H   H787      1.0  0.34778  0.94955  0.57880  1.0000
  H   H788      1.0  0.27477  0.93991  0.96554  1.0000
  C   C459      1.0  0.28487  0.91623  0.70418  1.0000
  S   S133      1.0  0.43671  0.97584  0.75622  1.0000
  N   N33       1.0  0.43174  0.96772  0.60573  1.0000
  H   H789      1.0  0.30468  0.95211  0.96070  1.0000
  S   S134      1.0  0.20648  0.87343  0.72942  1.0000
  H   H790      1.0  0.28176  0.96795  0.00719  1.0000
  C   C460      1.0  0.16632  0.82032  0.00861  1.0000
  C   C461      1.0  0.07126  0.76130  0.57258  1.0000
  H   H791      1.0  0.16509  0.82679  0.92216  1.0000
  H   H792      1.0  0.29370  0.92070  0.85999  1.0000
  S   S135      1.0  0.19439  0.90533  0.82041  1.0000
  Fe  Fe67      1.0  0.23236  0.89641  0.68528  1.0000
  H   H793      1.0  0.43383  0.98228  0.66325  1.0000
  H   H794      1.0  0.34190  0.92063  0.88183  1.0000
  H   H795      1.0  0.06884  0.78131  0.80245  1.0000
  C   C462      1.0  0.12898  0.80274  0.78946  1.0000
  C   C463      1.0  0.30271  0.86028  0.87854  1.0000
  N   N34       1.0  0.17974  0.83797  0.97836  1.0000
  H   H796      1.0  0.23868  0.95068  0.77073  1.0000
  H   H797      1.0  0.37431  0.90176  0.79068  1.0000
  H   H798      1.0  0.35468  0.89375  0.86303  1.0000
  C   C464      1.0  0.24359  0.88709  0.87572  1.0000
  C   C465      1.0  0.24560  0.96022  0.79548  1.0000
  C   C466      1.0  0.36015  0.90760  0.79956  1.0000
  C   C467      1.0  0.30779  0.89590  0.80975  1.0000
  H   H799      1.0  0.29021  0.89522  0.82055  1.0000
  H   H800      1.0  0.32028  0.88547  0.91089  1.0000
  C   C468      1.0  0.20201  0.83556  0.96264  1.0000
  C   C469      1.0  0.27546  0.91757  0.74359  1.0000
  H   H801      1.0  0.25892  0.90735  0.75503  1.0000
  H   H802      1.0  0.16403  0.85789  0.88495  1.0000
  H   H803      1.0  0.26965  0.95537  0.71391  1.0000
  C   C470      1.0  0.41265  0.94902  0.62237  1.0000
  C   C471      1.0  0.09543  0.82865  0.70980  1.0000
  H   H804      1.0  0.25942  0.94066  0.57547  1.0000
  N   N35       1.0  0.32253  0.89713  0.84603  1.0000
  H   H805      1.0  0.28918  0.85615  0.85656  1.0000
  H   H806      1.0  0.22981  0.88589  0.81520  1.0000
  Fe  Fe68      1.0  0.35776  0.98284  0.75717  1.0000
  C   C472      1.0  0.21418  0.90165  0.85540  1.0000
  C   C473      1.0  0.17479  0.85893  0.91181  1.0000
  C   C474      1.0  0.18489  0.85671  0.00060  1.0000
  H   H807      1.0  0.10569  0.79903  0.86214  1.0000
  H   H808      1.0  0.31557  0.88448  0.75146  1.0000
  C   C475      1.0  0.09051  0.81325  0.58192  1.0000
  C   C476      1.0  0.28740  0.93213  0.76834  1.0000
  H   H809      1.0  0.24919  0.95012  0.82086  1.0000
  Fe  Fe69      1.0  0.19830  0.89979  0.75285  1.0000
  C   C477      1.0  0.32868  0.91829  0.85877  1.0000
  C   C478      1.0  0.30897  0.92467  0.87798  1.0000
  C   C479      1.0  0.08719  0.80837  0.70202  1.0000
  C   C480      1.0  0.31844  0.94378  0.71470  1.0000
  H   H810      1.0  0.15417  0.78020  0.88942  1.0000
  S   S136      1.0  0.20920  0.89681  0.63428  1.0000
  H   H811      1.0  0.25478  0.87847  0.86834  1.0000
  H   H812      1.0  0.14865  0.79804  0.96720  1.0000
  H   H813      1.0  0.33487  0.95395  0.70316  1.0000
  H   H814      1.0  0.15320  0.80279  0.86038  1.0000
  H   H815      1.0  0.13030  0.78858  0.89903  1.0000
  H   H816      1.0  0.31373  0.92822  0.65935  1.0000
  Fe  Fe70      1.0  0.20113  0.92175  0.66452  1.0000
  H   H817      1.0  0.28784  0.87221  0.77477  1.0000
  H   H818      1.0  0.08948  0.77320  0.86473  1.0000
  C   C481      1.0  0.15006  0.80298  0.76209  1.0000
  H   H819      1.0  0.14540  0.79337  0.73647  1.0000
  H   H820      1.0  0.31717  0.85488  0.86981  1.0000
  H   H821      1.0  0.30423  0.91800  0.91084  1.0000
  H   H822      1.0  0.16300  0.79886  0.78033  1.0000
  S   S137      1.0  0.38046  0.97642  0.70760  1.0000
  H   H823      1.0  0.23254  0.99280  0.76427  1.0000
  H   H824      1.0  0.31116  0.86585  0.79567  1.0000
  C   C482      1.0  0.35888  0.96439  0.56700  1.0000
  C   C483      1.0  0.22807  0.90450  0.92482  1.0000
  H   H825      1.0  0.22758  0.90991  0.95499  1.0000
  C   C484      1.0  0.14265  0.78756  0.87400  1.0000
  C   C485      1.0  0.21195  0.96375  0.58568  1.0000
  C   C486      1.0  0.21694  0.83048  0.99624  1.0000
  H   H826      1.0  0.39698  0.92822  0.67677  1.0000
  C   C487      1.0  0.34457  0.89307  0.83516  1.0000
  S   S138      1.0  0.20824  0.95461  0.63911  1.0000
  S   S139      1.0  0.17199  0.90066  0.70722  1.0000
  H   H827      1.0  0.19685  0.87002  0.98137  1.0000
  H   H828      1.0  0.35104  0.90899  0.77123  1.0000
  C   C488      1.0  0.24280  0.89356  0.91559  1.0000
  C   C489      1.0  0.30895  0.94521  0.75399  1.0000
  S   S140      1.0  0.16108  0.84553  0.66018  1.0000
  H   H829      1.0  0.33638  0.92963  0.83159  1.0000
  H   H830      1.0  0.21280  0.84966  0.94409  1.0000
  S   S141      1.0  0.25996  0.88731  0.95346  1.0000
  H   H831      1.0  0.15835  0.81857  0.74703  1.0000
  H   H832      1.0  0.19242  0.86145  0.89887  1.0000
  N   N36       1.0  0.11576  0.78294  0.81388  1.0000
  H   H833      1.0  0.23301  0.82977  0.98067  1.0000
  H   H834      1.0  0.23842  0.97217  0.71448  1.0000
  C   C490      1.0  0.16061  0.79947  0.99213  1.0000
  H   H835      1.0  0.20200  0.91650  0.90272  1.0000
  H   H836      1.0  0.26637  0.97148  0.96361  1.0000
  H   H837      1.0  0.28681  0.95544  0.91881  1.0000
  C   C491      1.0  0.30648  0.92918  0.68992  1.0000
  C   C492      1.0  0.30587  0.87855  0.78211  1.0000
  S   S142      1.0  0.26911  0.89913  0.67199  1.0000
  S   S143      1.0  0.22605  0.92240  0.71262  1.0000
  C   C493      1.0  0.16593  0.83934  0.94155  1.0000
  C   C494      1.0  0.13273  0.83157  0.67770  1.0000
  H   H838      1.0  0.06679  0.79508  0.84541  1.0000
  Fe  Fe71      1.0  0.25452  0.89400  0.01999  1.0000
  S   S144      1.0  0.05840  0.79458  0.71648  1.0000
  H   H839      1.0  0.41311  0.95220  0.69012  1.0000
  H   H840      1.0  0.27989  0.93316  0.79861  1.0000
  C   C495      1.0  0.41286  0.94091  0.66810  1.0000
  H   H841      1.0  0.09575  0.78408  0.67624  1.0000
  C   C496      1.0  0.11820  0.84017  0.69813  1.0000
  C   C497      1.0  0.22328  0.98431  0.57410  1.0000
  H   H842      1.0  0.06280  0.75247  0.54765  1.0000
  H   H843      1.0  0.12437  0.85580  0.70408  1.0000
  H   H844      1.0  0.23238  0.96615  0.80857  1.0000
  H   H845      1.0  0.29273  0.95108  0.61031  1.0000
  Fe  Fe72      1.0  0.04436  0.76066  0.71809  1.0000
  C   C498      1.0  0.21372  0.90840  0.89497  1.0000
  C   C499      1.0  0.07889  0.79300  0.82108  1.0000
  H   H846      1.0  0.36810  0.92278  0.80956  1.0000
  C   C500      1.0  0.30997  0.88296  0.88325  1.0000
  N   N37       1.0  0.26613  0.99193  0.74474  1.0000
  H   H847      1.0  0.14785  0.83725  0.95163  1.0000
  H   H848      1.0  0.08820  0.77160  0.56048  1.0000
  H   H849      1.0  0.09846  0.77530  0.75752  1.0000
  C   C501      1.0  0.16413  0.86240  0.01723  1.0000
  H   H850      1.0  0.16923  0.87893  0.01900  1.0000
  H   H851      1.0  0.14990  0.85912  0.99677  1.0000
  H   H852      1.0  0.12049  0.75963  0.85729  1.0000
  H   H853      1.0  0.03990  0.81453  0.57877  1.0000
  H   H854      1.0  0.14981  0.82214  0.01953  1.0000
  C   C502      1.0  0.46511  0.98996  0.73961  1.0000
  H   H855      1.0  0.09768  0.80172  0.59583  1.0000
  H   H856      1.0  0.32189  0.97752  0.89896  1.0000
  H   H857      1.0  0.28495  0.99339  0.90278  1.0000
  C   C503      1.0  0.26571  0.93610  0.54620  1.0000
  H   H858      1.0  0.44141  0.98641  0.54636  1.0000
  H   H859      1.0  0.15194  0.78773  0.01806  1.0000
  H   H860      1.0  0.31227  0.94945  0.54561  1.0000
  H   H861      1.0  0.97613  0.77828  0.85505  1.0000
  H   H862      1.0  0.97438  0.75608  0.83118  1.0000
  H   H863      1.0  0.43045  0.99341  0.83647  1.0000
  H   H864      1.0  0.23014  0.99402  0.59776  1.0000
  C   C504      1.0  0.87208  0.18964  0.25531  1.0000
  C   C505      1.0  0.65812  0.02149  0.29762  1.0000
  S   S145      1.0  0.70599  0.07993  0.09413  1.0000
  Fe  Fe73      1.0  0.75766  0.05472  0.29775  1.0000
  S   S146      1.0  0.75417  0.08482  0.30803  1.0000
  S   S147      1.0  0.75428  0.04256  0.23458  1.0000
  Fe  Fe74      1.0  0.76556  0.04543  0.39037  1.0000
  S   S148      1.0  0.76267  0.07509  0.40729  1.0000
  H   H865      1.0  0.58102  0.03795  0.20415  1.0000
  Fe  Fe75      1.0  0.73325  0.06844  0.36639  1.0000
  S   S149      1.0  0.69702  0.06708  0.38189  1.0000
  Fe  Fe76      1.0  0.78414  0.08857  0.34710  1.0000
  S   S150      1.0  0.81592  0.11549  0.33022  1.0000
  S   S151      1.0  0.73499  0.03803  0.35383  1.0000
  S   S152      1.0  0.78901  0.05918  0.33294  1.0000
  C   C506      1.0  0.59196  0.03015  0.22000  1.0000
  H   H866      1.0  0.52721  0.01036  0.36974  1.0000
  C   C507      1.0  0.62012  0.06549  0.16238  1.0000
  S   S153      1.0  0.87667  0.22673  0.03394  1.0000
  H   H867      1.0  0.67766  0.05644  0.51130  1.0000
  Fe  Fe77      1.0  0.88680  0.21857  0.39358  1.0000
  S   S154      1.0  0.85401  0.19487  0.41961  1.0000
  H   H868      1.0  0.59660  0.03620  0.25009  1.0000
  S   S155      1.0  0.91788  0.21216  0.36814  1.0000
  C   C508      1.0  0.64692  0.02464  0.33384  1.0000
  H   H869      1.0  0.88793  0.17470  0.44321  1.0000
  H   H870      1.0  0.62051  0.01312  0.46883  1.0000
  C   C509      1.0  0.63563  0.08704  0.14808  1.0000
  H   H871      1.0  0.89661  0.15430  0.46478  1.0000
  H   H872      1.0  0.92264  0.20204  0.45526  1.0000
  H   H873      1.0  0.64202  0.09534  0.17501  1.0000
  H   H874      1.0  0.96074  0.21997  0.19114  1.0000
  C   C510      1.0  0.68112  0.05078  0.34808  1.0000
  C   C511      1.0  0.69182  0.04813  0.31096  1.0000
  C   C512      1.0  0.68048  0.03346  0.28601  1.0000
  H   H875      1.0  0.70910  0.05721  0.30167  1.0000
  H   H876      1.0  0.68930  0.03124  0.25801  1.0000
  C   C513      1.0  0.82671  0.13626  0.35885  1.0000
  C   C514      1.0  0.81330  0.14120  0.38959  1.0000
  C   C515      1.0  0.82201  0.15906  0.40860  1.0000
  C   C516      1.0  0.84411  0.17204  0.39698  1.0000
  C   C517      1.0  0.85774  0.16676  0.36723  1.0000
  C   C518      1.0  0.84903  0.14898  0.34817  1.0000
  H   H877      1.0  0.79607  0.13151  0.39795  1.0000
  H   H878      1.0  0.81142  0.16300  0.43181  1.0000
  H   H879      1.0  0.87487  0.17650  0.35837  1.0000
  H   H880      1.0  0.85952  0.14514  0.32460  1.0000
  H   H881      1.0  0.95609  0.18782  0.45134  1.0000
  C   C519      1.0  0.93810  0.17840  0.45918  1.0000
  S   S156      1.0  0.64483  0.00291  0.26584  1.0000
  C   C520      1.0  0.71861  0.06872  0.13317  1.0000
  C   C521      1.0  0.72852  0.05386  0.12495  1.0000
  C   C522      1.0  0.73893  0.04558  0.15660  1.0000
  C   C523      1.0  0.73969  0.05224  0.19647  1.0000
  C   C524      1.0  0.72947  0.06688  0.20471  1.0000
  C   C525      1.0  0.71893  0.07503  0.17323  1.0000
  H   H882      1.0  0.72827  0.04878  0.09424  1.0000
  H   H883      1.0  0.74682  0.03425  0.14997  1.0000
  H   H884      1.0  0.72989  0.07212  0.23519  1.0000
  H   H885      1.0  0.71154  0.08667  0.17968  1.0000
  H   H886      1.0  0.66943  0.01390  0.48274  1.0000
  H   H887      1.0  0.86430  0.17328  0.26436  1.0000
  C   C526      1.0  0.65842  0.03932  0.35908  1.0000
  S   S157      1.0  0.90620  0.24086  0.43516  1.0000
  H   H888      1.0  0.64955  0.01738  0.16867  1.0000
  C   C527      1.0  0.81691  0.14775  0.07538  1.0000
  C   C528      1.0  0.88860  0.16579  0.47318  1.0000
  H   H889      1.0  0.62960  0.01562  0.34287  1.0000
  C   C529      1.0  0.84601  0.21788  0.19282  1.0000
  H   H890      1.0  0.69482  0.03527  0.46771  1.0000
  N   N38       1.0  0.78677  0.11528  0.11241  1.0000
  C   C530      1.0  0.78742  0.09649  0.13835  1.0000
  H   H891      1.0  0.66764  0.03601  0.45355  1.0000
  C   C531      1.0  0.76754  0.12151  0.13131  1.0000
  C   C532      1.0  0.80937  0.13151  0.11325  1.0000
  C   C533      1.0  0.79001  0.09816  0.18537  1.0000
  H   H892      1.0  0.91917  0.21979  0.52655  1.0000
  C   C534      1.0  0.76244  0.13968  0.10853  1.0000
  H   H893      1.0  0.96814  0.21694  0.12507  1.0000
  H   H894      1.0  0.77175  0.08375  0.13545  1.0000
  H   H895      1.0  0.80181  0.09146  0.12693  1.0000
  H   H896      1.0  0.88568  0.20122  0.48482  1.0000
  H   H897      1.0  0.54678  0.01777  0.41013  1.0000
  H   H898      1.0  0.75144  0.10870  0.13381  1.0000
  H   H899      1.0  0.77066  0.12544  0.16361  1.0000
  H   H900      1.0  0.80961  0.13955  0.14158  1.0000
  H   H901      1.0  0.82350  0.12482  0.11588  1.0000
  H   H902      1.0  0.79340  0.08445  0.19970  1.0000
  H   H903      1.0  0.80440  0.11135  0.19139  1.0000
  H   H904      1.0  0.77406  0.09856  0.20187  1.0000
  H   H905      1.0  0.84349  0.21633  0.15926  1.0000
  H   H906      1.0  0.71683  0.00983  0.29411  1.0000
  H   H907      1.0  0.51662  0.00494  0.45794  1.0000
  H   H908      1.0  0.78778  0.15456  0.29846  1.0000
  H   H909      1.0  0.78175  0.12301  0.04772  1.0000
  H   H910      1.0  0.64986  0.08756  0.12548  1.0000
  H   H911      1.0  0.86442  0.22119  0.19619  1.0000
  H   H912      1.0  0.64148  0.04388  0.12240  1.0000
  H   H913      1.0  0.64146  0.04458  0.24386  1.0000
  H   H914      1.0  0.69101  0.01108  0.09843  1.0000
  C   C535      1.0  0.92504  0.19101  0.48007  1.0000
  H   H915      1.0  0.79042  0.16950  0.24976  1.0000
  C   C536      1.0  0.88991  0.19373  0.51380  1.0000
  H   H916      1.0  0.77586  0.15398  0.11213  1.0000
  Fe  Fe78      1.0  0.91958  0.23719  0.31806  1.0000
  H   H917      1.0  0.62847  0.06385  0.24067  1.0000
  H   H918      1.0  0.58119  0.01422  0.22765  1.0000
  H   H919      1.0  0.78690  0.17975  0.29827  1.0000
  H   H920      1.0  0.62003  0.01949  0.20749  1.0000
  H   H921      1.0  0.83263  0.15956  0.08197  1.0000
  H   H922      1.0  0.81640  0.22537  0.33812  1.0000
  C   C537      1.0  0.79735  0.09964  0.04804  1.0000
  H   H923      1.0  0.74646  0.14097  0.12332  1.0000
  H   H924      1.0  0.74273  0.00353  0.29036  1.0000
  C   C538      1.0  0.74872  0.00501  0.47039  1.0000
  H   H925      1.0  0.66444  0.08433  0.24439  1.0000
  C   C539      1.0  0.79511  0.17008  0.28243  1.0000
  C   C540      1.0  0.59941  0.99488  0.52160  1.0000
  H   H926      1.0  0.67552  0.03435  0.14429  1.0000
  H   H927      1.0  0.66809  0.03598  0.19754  1.0000
  C   C541      1.0  0.78143  0.10972  0.06911  1.0000
  C   C542      1.0  0.86386  0.15380  0.48919  1.0000
  S   S158      1.0  0.88744  0.24232  0.34181  1.0000
  H   H928      1.0  0.97032  0.22974  0.07447  1.0000
  H   H929      1.0  0.87434  0.19271  0.22089  1.0000
  Fe  Fe79      1.0  0.93755  0.23671  0.40559  1.0000
  H   H930      1.0  0.64994  0.04141  0.38756  1.0000
  H   H931      1.0  0.60676  0.02468  0.16217  1.0000
  C   C543      1.0  0.64043  0.05778  0.22329  1.0000
  H   H932      1.0  0.83591  0.22869  0.27011  1.0000
  H   H933      1.0  0.67031  0.08261  0.19071  1.0000
  C   C544      1.0  0.66435  0.07355  0.22105  1.0000
  H   H934      1.0  0.83628  0.18551  0.20621  1.0000
  C   C545      1.0  0.82112  0.17678  0.28542  1.0000
  N   N39       1.0  0.90249  0.17925  0.50291  1.0000
  H   H935      1.0  0.86831  0.21846  0.26599  1.0000
  H   H936      1.0  0.82414  0.17531  0.31898  1.0000
  C   C546      1.0  0.54157  0.00749  0.38566  1.0000
  H   H937      1.0  0.60664  0.06745  0.18400  1.0000
  C   C547      1.0  0.66101  0.03309  0.16703  1.0000
  N   N40       1.0  0.83411  0.19762  0.26533  1.0000
  H   H938      1.0  0.55613  0.01156  0.36172  1.0000
  H   H939      1.0  0.73782  0.05594  0.50945  1.0000
  H   H940      1.0  0.75946  0.13801  0.07532  1.0000
  H   H941      1.0  0.81391  0.19610  0.21188  1.0000
  H   H942      1.0  0.80785  0.21212  0.27056  1.0000
  H   H943      1.0  0.86288  0.14510  0.51992  1.0000
  H   H944      1.0  0.85640  0.14287  0.46671  1.0000
  H   H945      1.0  0.82118  0.14153  0.04680  1.0000
  H   H946      1.0  0.66097  0.99987  0.40445  1.0000
  H   H947      1.0  0.72248  0.01488  0.44291  1.0000
  N   N41       1.0  0.63119  0.05103  0.18266  1.0000
  H   H948      1.0  0.88939  0.19379  0.26677  1.0000
  S   S159      1.0  0.77139  0.02181  0.43738  1.0000
  H   H949      1.0  0.71462  0.06539  0.50716  1.0000
  H   H950      1.0  0.49347  0.00246  0.29773  1.0000
  C   C548      1.0  0.83185  0.19820  0.21899  1.0000
  C   C549      1.0  0.85869  0.20229  0.27513  1.0000
  C   C550      1.0  0.72621  0.00467  0.46647  1.0000
  C   C551      1.0  0.82486  0.21324  0.28198  1.0000
  C   C552      1.0  0.82274  0.21287  0.32993  1.0000
  H   H951      1.0  0.86001  0.20006  0.30930  1.0000
  H   H952      1.0  0.80421  0.15545  0.06839  1.0000
  H   H953      1.0  0.66272  0.06275  0.14264  1.0000
  C   C553      1.0  0.91224  0.23618  0.17129  1.0000
  H   H954      1.0  0.82718  0.16517  0.27165  1.0000
  H   H955      1.0  0.67719  0.06624  0.23056  1.0000
  H   H956      1.0  0.61147  0.05932  0.13463  1.0000
  H   H957      1.0  0.91965  0.22445  0.16565  1.0000
  C   C554      1.0  0.61303  0.03078  0.19168  1.0000
  H   H958      1.0  0.83934  0.21529  0.34354  1.0000
  C   C555      1.0  0.64904  0.04847  0.15209  1.0000
  H   H959      1.0  0.62538  0.09546  0.13172  1.0000
  H   H960      1.0  0.81045  0.19875  0.34538  1.0000
  S   S160      1.0  0.92595  0.23277  0.25038  1.0000
  C   C556      1.0  0.72387  0.99712  0.29292  1.0000
  C   C557      1.0  0.60806  0.99876  0.47973  1.0000
  H   H961      1.0  0.71031  0.02513  0.52638  1.0000
  S   S161      1.0  0.96596  0.23529  0.44672  1.0000
  H   H962      1.0  0.53996  0.00447  0.51631  1.0000
  C   C558      1.0  0.67656  0.03053  0.47880  1.0000
  H   H963      1.0  0.68946  0.00543  0.34594  1.0000
  H   H964      1.0  0.76371  0.09930  0.06943  1.0000
  H   H965      1.0  0.69819  0.99610  0.39245  1.0000
  H   H966      1.0  0.79256  0.08340  0.05961  1.0000
  H   H967      1.0  0.90176  0.23865  0.10875  1.0000
  C   C559      1.0  0.97021  0.23189  0.10819  1.0000
  H   H968      1.0  0.93678  0.20037  0.50072  1.0000
  H   H969      1.0  0.84068  0.23098  0.20039  1.0000
  H   H970      1.0  0.93804  0.16487  0.47970  1.0000
  H   H971      1.0  0.85296  0.16371  0.49069  1.0000
  H   H972      1.0  0.81549  0.10699  0.05290  1.0000
  H   H973      1.0  0.71010  0.99641  0.08990  1.0000
  C   C560      1.0  0.69731  0.00258  0.07590  1.0000
  H   H974      1.0  0.70643  0.01373  0.04938  1.0000
  H   H975      1.0  0.97181  0.22412  0.24125  1.0000
  H   H976      1.0  0.55566  0.99995  0.47260  1.0000
  C   C561      1.0  0.91256  0.24302  0.21092  1.0000
  H   H977      1.0  0.93091  0.17376  0.42938  1.0000
  H   H978      1.0  0.95528  0.23699  0.11492  1.0000
  H   H979      1.0  0.87330  0.18565  0.53138  1.0000
  C   C562      1.0  0.67238  0.03981  0.51881  1.0000
  H   H980      1.0  0.66680  0.99435  0.04402  1.0000
  H   H981      1.0  0.65361  0.03547  0.52488  1.0000
  C   C563      1.0  0.72318  0.05744  0.52870  1.0000
  Fe  Fe80      1.0  0.69603  0.07273  0.93941  1.0000
  S   S162      1.0  0.72811  0.06880  0.91229  1.0000
  S   S163      1.0  0.66697  0.07318  0.89904  1.0000
  Fe  Fe81      1.0  0.74643  0.09259  0.95217  1.0000
  S   S164      1.0  0.77906  0.11671  0.92646  1.0000
  Fe  Fe82      1.0  0.72437  0.04710  0.96905  1.0000
  S   S165      1.0  0.72940  0.01707  0.96313  1.0000
  S   S166      1.0  0.71455  0.09854  0.97492  1.0000
  C   C564      1.0  0.68537  0.13067  0.89567  1.0000
  H   H982      1.0  0.75849  0.14969  0.86989  1.0000
  Fe  Fe83      1.0  0.56596  0.01238  0.69388  1.0000
  S   S167      1.0  0.60103  0.03097  0.66658  1.0000
  S   S168      1.0  0.53907  0.02768  0.70280  1.0000
  S   S169      1.0  0.74605  0.07021  0.00643  1.0000
  C   C565      1.0  0.92635  0.17444  0.56534  1.0000
  H   H983      1.0  0.88987  0.16326  0.56401  1.0000
  Fe  Fe84      1.0  0.61369  0.01175  0.71288  1.0000
  S   S170      1.0  0.64668  0.02023  0.74563  1.0000
  Fe  Fe85      1.0  0.59712  0.00641  0.62435  1.0000
  H   H984      1.0  0.92902  0.18992  0.57357  1.0000
  N   N42       1.0  0.72384  0.13827  0.85123  1.0000
  H   H985      1.0  0.92459  0.16461  0.59499  1.0000
  H   H986      1.0  0.89186  0.22118  0.54161  1.0000
  H   H987      1.0  0.75343  0.17869  0.83485  1.0000
  C   C566      1.0  0.49314  0.02054  0.70689  1.0000
  C   C567      1.0  0.51075  0.01243  0.71524  1.0000
  C   C568      1.0  0.74071  0.14309  0.88416  1.0000
  Fe  Fe86      1.0  0.89981  0.24161  0.97707  1.0000
  H   H988      1.0  0.64705  0.04969  0.58250  1.0000
  H   H989      1.0  0.49717  0.03565  0.69139  1.0000
  H   H990      1.0  0.77283  0.16770  0.01793  1.0000
  H   H991      1.0  0.75863  0.13487  0.98872  1.0000
  C   C569      1.0  0.48864  0.03942  0.81740  1.0000
  H   H992      1.0  0.79552  0.10055  0.01388  1.0000
  H   H993      1.0  0.69331  0.13808  0.92243  1.0000
  S   S171      1.0  0.93476  0.23914  0.96498  1.0000
  H   H994      1.0  0.51043  0.06855  0.78581  1.0000
  H   H995      1.0  0.69117  0.04464  0.61697  1.0000
  C   C570      1.0  0.70968  0.99506  0.76352  1.0000
  C   C571      1.0  0.70440  0.99830  0.95406  1.0000
  H   H996      1.0  0.68417  0.01824  0.94510  1.0000
  C   C572      1.0  0.71948  0.15668  0.83035  1.0000
  C   C573      1.0  0.78892  0.13973  0.94862  1.0000
  C   C574      1.0  0.81061  0.15314  0.93552  1.0000
  C   C575      1.0  0.81883  0.17166  0.95246  1.0000
  C   C576      1.0  0.80526  0.17696  0.98234  1.0000
  H   H997      1.0  0.69381  0.99924  0.75974  1.0000
  C   C577      1.0  0.77537  0.14504  0.97849  1.0000
  H   H998      1.0  0.82119  0.14916  0.91235  1.0000
  H   H999      1.0  0.83564  0.18182  0.94246  1.0000
  H   H1000     1.0  0.49154  0.02827  0.84147  1.0000
  C   C578      1.0  0.66104  0.05784  0.85732  1.0000
  C   C579      1.0  0.67636  0.04832  0.84309  1.0000
  C   C580      1.0  0.67165  0.03689  0.80891  1.0000
  C   C581      1.0  0.65144  0.03456  0.78893  1.0000
  C   C582      1.0  0.63595  0.04387  0.80339  1.0000
  C   C583      1.0  0.64083  0.05559  0.83723  1.0000
  H   H1001     1.0  0.69199  0.05001  0.85802  1.0000
  H   H1002     1.0  0.68380  0.02995  0.79763  1.0000
  H   H1003     1.0  0.62035  0.04226  0.78819  1.0000
  H   H1004     1.0  0.62888  0.06292  0.84790  1.0000
  H   H1005     1.0  0.72299  0.12701  0.79047  1.0000
  H   H1006     1.0  0.65803  0.05560  0.63160  1.0000
  H   H1007     1.0  0.72663  0.16655  0.90780  1.0000
  H   H1008     1.0  0.65212  0.00899  0.57397  1.0000
  H   H1009     1.0  0.74108  0.12900  0.90223  1.0000
  H   H1010     1.0  0.72167  0.02496  0.81711  1.0000
  H   H1011     1.0  0.74495  0.10345  0.80394  1.0000
  C   C584      1.0  0.73370  0.12891  0.81763  1.0000
  C   C585      1.0  0.73717  0.15696  0.91682  1.0000
  H   H1012     1.0  0.74755  0.10862  0.85681  1.0000
  H   H1013     1.0  0.71029  0.16360  0.85167  1.0000
  H   H1014     1.0  0.47713  0.07573  0.81022  1.0000
  H   H1015     1.0  0.73575  0.18699  0.80007  1.0000
  H   H1016     1.0  0.70765  0.02131  0.86770  1.0000
  H   H1017     1.0  0.72967  0.14794  0.94692  1.0000
  H   H1018     1.0  0.68959  0.06334  0.57800  1.0000
  H   H1019     1.0  0.72349  0.00964  0.76133  1.0000
  C   C586      1.0  0.73652  0.10814  0.83058  1.0000
  Fe  Fe87      1.0  0.84830  0.22513  0.99181  1.0000
  C   C587      1.0  0.68146  0.04722  0.58999  1.0000
  H   H1020     1.0  0.73170  0.01290  0.86138  1.0000
  C   C588      1.0  0.90492  0.16635  0.54131  1.0000
  H   H1021     1.0  0.75091  0.13883  0.80531  1.0000
  H   H1022     1.0  0.69164  0.11574  0.84362  1.0000
  H   H1023     1.0  0.75394  0.16758  0.92263  1.0000
  H   H1024     1.0  0.67787  0.14062  0.87666  1.0000
  Fe  Fe88      1.0  0.71314  0.07475  0.02741  1.0000
  H   H1025     1.0  0.70782  0.15243  0.80498  1.0000
  C   C589      1.0  0.68426  0.00284  0.94729  1.0000
  S   S172      1.0  0.81470  0.19970  0.00565  1.0000
  H   H1026     1.0  0.70495  0.11061  0.88892  1.0000
  H   H1027     1.0  0.64784  0.02990  0.62177  1.0000
  C   C590      1.0  0.78346  0.16361  0.99504  1.0000
  C   C591      1.0  0.65711  0.04528  0.60702  1.0000
  H   H1028     1.0  0.67370  0.00214  0.54772  1.0000
  H   H1029     1.0  0.51196  0.06597  0.84194  1.0000
  H   H1030     1.0  0.75368  0.01061  0.80642  1.0000
  H   H1031     1.0  0.90258  0.20457  0.57280  1.0000
  H   H1032     1.0  0.52537  0.05289  0.80913  1.0000
  H   H1033     1.0  0.69544  0.00372  0.61108  1.0000
  N   N43       1.0  0.68316  0.03382  0.55675  1.0000
  H   H1034     1.0  0.67407  0.01155  0.63946  1.0000
  H   H1035     1.0  0.74905  0.16932  0.78422  1.0000
  C   C592      1.0  0.74085  0.17370  0.81149  1.0000
  H   H1036     1.0  0.71987  0.09629  0.83834  1.0000
  C   C593      1.0  0.67748  0.00361  0.61289  1.0000
  C   C594      1.0  0.51014  0.05796  0.81355  1.0000
  H   H1037     1.0  0.67086  0.11747  0.90897  1.0000
  C   C595      1.0  0.67085  0.01197  0.57121  1.0000
  C   C596      1.0  0.71656  0.01434  0.84579  1.0000
  S   S173      1.0  0.69124  0.04969  0.99475  1.0000
  C   C597      1.0  0.70168  0.12304  0.86905  1.0000
  H   H1038     1.0  0.48834  0.03214  0.78809  1.0000
  H   H1039     1.0  0.72970  0.06703  0.55386  1.0000
  S   S174      1.0  0.60898  0.01350  0.55579  1.0000
  C   C598      1.0  0.70795  0.03625  0.54707  1.0000
  H   H1040     1.0  0.75536  0.99619  0.76345  1.0000
  S   S175      1.0  0.57885  0.99498  0.74352  1.0000
  H   H1041     1.0  0.47718  0.07651  0.73921  1.0000
  C   C599      1.0  0.90200  0.21059  0.54018  1.0000
  H   H1042     1.0  0.71927  0.99592  0.69728  1.0000
  H   H1043     1.0  0.90507  0.15121  0.53345  1.0000
  H   H1044     1.0  0.94002  0.23370  0.76294  1.0000
  H   H1045     1.0  0.68352  0.99533  0.83234  1.0000
  H   H1046     1.0  0.71585  0.03262  0.57573  1.0000
  C   C600      1.0  0.75265  0.99548  0.79779  1.0000
  H   H1047     1.0  0.47529  0.05066  0.74376  1.0000
  H   H1048     1.0  0.47837  0.06123  0.87835  1.0000
  H   H1049     1.0  0.94193  0.17398  0.54764  1.0000
  S   S176      1.0  0.87177  0.23703  0.93338  1.0000
  S   S177      1.0  0.90734  0.29401  0.39300  1.0000
  H   H1050     1.0  0.95681  0.36065  0.41502  1.0000
  C   C601      1.0  0.94938  0.31049  0.30039  1.0000
  S   S178      1.0  0.87905  0.26961  0.10597  1.0000
  Fe  Fe89      1.0  0.96738  0.41026  0.38016  1.0000
  H   H1051     1.0  0.95269  0.30906  0.23390  1.0000
  S   S179      1.0  0.93371  0.40949  0.41142  1.0000
  C   C602      1.0  0.94131  0.25856  0.03511  1.0000
  H   H1052     1.0  0.92853  0.33588  0.25947  1.0000
  H   H1053     1.0  0.91586  0.33363  0.08043  1.0000
  H   H1054     1.0  0.94023  0.36007  0.04368  1.0000
  C   C603      1.0  0.90368  0.39613  0.47984  1.0000
  C   C604      1.0  0.92660  0.40169  0.46525  1.0000
  C   C605      1.0  0.94300  0.40160  0.49390  1.0000
  C   C606      1.0  0.95590  0.34523  0.41203  1.0000
  H   H1055     1.0  0.90281  0.26344  0.24834  1.0000
  H   H1056     1.0  0.89089  0.39618  0.45809  1.0000
  H   H1057     1.0  0.95328  0.36461  0.49379  1.0000
  H   H1058     1.0  0.92742  0.45869  0.51406  1.0000
  Fe  Fe90      1.0  0.91028  0.26390  0.38078  1.0000
  C   C607      1.0  0.93327  0.31095  0.40440  1.0000
  C   C608      1.0  0.93495  0.33119  0.40619  1.0000
  H   H1059     1.0  0.94665  0.32766  0.49332  1.0000
  C   C609      1.0  0.95238  0.30467  0.41086  1.0000
  H   H1060     1.0  0.92012  0.33609  0.40243  1.0000
  H   H1061     1.0  0.94927  0.31466  0.06905  1.0000
  H   H1062     1.0  0.95104  0.28895  0.41150  1.0000
  S   S180      1.0  0.94266  0.26086  0.35249  1.0000
  H   H1063     1.0  0.94538  0.27534  0.08841  1.0000
  C   C610      1.0  0.96800  0.35393  0.07431  1.0000
  C   C611      1.0  0.95358  0.27285  0.05995  1.0000
  H   H1064     1.0  0.95421  0.34007  0.19786  1.0000
  C   C612      1.0  0.47727  0.47714  0.28000  1.0000
  H   H1065     1.0  0.47692  0.44041  0.44702  1.0000
  C   C613      1.0  0.90970  0.33817  0.51507  1.0000
  H   H1066     1.0  0.89972  0.27886  0.52163  1.0000
  C   C614      1.0  0.96203  0.34802  0.22443  1.0000
  H   H1067     1.0  0.93059  0.30312  0.03348  1.0000
  H   H1068     1.0  0.49021  0.47093  0.26898  1.0000
  C   C615      1.0  0.94202  0.35049  0.25113  1.0000
  C   C616      1.0  0.96400  0.31549  0.25846  1.0000
  H   H1069     1.0  0.93408  0.36021  0.23231  1.0000
  H   H1070     1.0  0.95656  0.34526  0.10148  1.0000
  H   H1071     1.0  0.92202  0.29741  0.49057  1.0000
  H   H1072     1.0  0.89957  0.31079  0.06078  1.0000
  C   C617      1.0  0.89257  0.26612  0.18547  1.0000
  H   H1073     1.0  0.91099  0.33409  0.48270  1.0000
  C   C618      1.0  0.94169  0.45305  0.50494  1.0000
  H   H1074     1.0  0.94371  0.32277  0.31143  1.0000
  C   C619      1.0  0.90210  0.24423  0.13890  1.0000
  C   C620      1.0  0.94703  0.33368  0.52403  1.0000
  C   C621      1.0  0.95838  0.26339  0.49631  1.0000
  H   H1075     1.0  0.92379  0.25018  0.04448  1.0000
  C   C622      1.0  0.93645  0.31737  0.04816  1.0000
  H   H1076     1.0  0.96350  0.47642  0.41491  1.0000
  H   H1077     1.0  0.96969  0.44042  0.44918  1.0000
  H   H1078     1.0  0.96146  0.27376  0.22176  1.0000
  H   H1079     1.0  0.91517  0.31022  0.10662  1.0000
  C   C623      1.0  0.89223  0.25927  0.14577  1.0000
  H   H1080     1.0  0.96287  0.45551  0.38829  1.0000
  H   H1081     1.0  0.91695  0.35485  0.51119  1.0000
  H   H1082     1.0  0.93742  0.44589  0.47578  1.0000
  C   C624      1.0  0.96092  0.35621  0.51627  1.0000
  Fe  Fe91      1.0  0.87624  0.25795  0.04213  1.0000
  H   H1083     1.0  0.47459  0.43863  0.35543  1.0000
  H   H1084     1.0  0.88492  0.27772  0.19111  1.0000
  H   H1085     1.0  0.93369  0.29779  0.29774  1.0000
  H   H1086     1.0  0.87467  0.33505  0.50169  1.0000
  H   H1087     1.0  0.96071  0.40572  0.48315  1.0000
  C   C625      1.0  0.95470  0.35450  0.03522  1.0000
  C   C626      1.0  0.90262  0.25799  0.21799  1.0000
  H   H1088     1.0  0.94737  0.35822  0.27917  1.0000
  H   H1089     1.0  0.95961  0.24971  0.17444  1.0000
  S   S181      1.0  0.97100  0.38544  0.34403  1.0000
  H   H1090     1.0  0.89370  0.29981  0.49514  1.0000
  C   C627      1.0  0.97126  0.25061  0.48854  1.0000
  H   H1091     1.0  0.47971  0.46516  0.39398  1.0000
  C   C628      1.0  0.91558  0.31820  0.07518  1.0000
  C   C629      1.0  0.90685  0.29529  0.51211  1.0000
  H   H1092     1.0  0.94525  0.26442  0.47615  1.0000
  H   H1093     1.0  0.95858  0.30501  0.32505  1.0000
  C   C630      1.0  0.96398  0.47088  0.49889  1.0000
  H   H1094     1.0  0.96045  0.48267  0.47775  1.0000
  C   C631      1.0  0.89710  0.39039  0.52231  1.0000
  H   H1095     1.0  0.97241  0.36336  0.21086  1.0000
  H   H1096     1.0  0.96678  0.47746  0.52918  1.0000
  C   C632      1.0  0.88441  0.33407  0.52946  1.0000
  H   H1097     1.0  0.94214  0.44154  0.53041  1.0000
  C   C633      1.0  0.96254  0.27501  0.53025  1.0000
  C   C634      1.0  0.97355  0.31887  0.41539  1.0000
  C   C635      1.0  0.51125  0.48029  0.65980  1.0000
  C   C636      1.0  0.49003  0.46635  0.67381  1.0000
  H   H1098     1.0  0.93412  0.31513  0.62391  1.0000
  S   S182      1.0  0.90122  0.27313  0.98763  1.0000
  H   H1099     1.0  0.92172  0.32165  0.97280  1.0000
  Fe  Fe92      1.0  0.87185  0.26797  0.94773  1.0000
  S   S183      1.0  0.86862  0.29099  0.89558  1.0000
  S   S184      1.0  0.97155  0.41462  0.73059  1.0000
  S   S185      1.0  0.94907  0.45779  0.73638  1.0000
  C   C637      1.0  0.95493  0.31576  0.76049  1.0000
  S   S186      1.0  0.95325  0.42585  0.64123  1.0000
  H   H1100     1.0  0.91908  0.24638  0.75938  1.0000
  C   C638      1.0  0.94773  0.26003  0.79706  1.0000
  H   H1101     1.0  0.89812  0.34697  0.78439  1.0000
  H   H1102     1.0  0.86801  0.31888  0.82535  1.0000
  Fe  Fe93      1.0  0.94468  0.38434  0.73633  1.0000
  C   C639      1.0  0.93645  0.39645  0.53690  1.0000
  S   S187      1.0  0.94741  0.36292  0.79238  1.0000
  Fe  Fe94      1.0  0.92807  0.39487  0.65266  1.0000
  C   C640      1.0  0.91894  0.27850  0.80253  1.0000
  S   S188      1.0  0.90398  0.38271  0.60400  1.0000
  H   H1103     1.0  0.93624  0.26546  0.88787  1.0000
  H   H1104     1.0  0.92868  0.35447  0.58015  1.0000
  Fe  Fe95      1.0  0.94503  0.42817  0.70867  1.0000
  H   H1105     1.0  0.96632  0.26200  0.79494  1.0000
  S   S189      1.0  0.95329  0.37905  0.67060  1.0000
  S   S190      1.0  0.91732  0.39808  0.71913  1.0000
  C   C641      1.0  0.94126  0.47832  0.71336  1.0000
  N   N44       1.0  0.94675  0.33499  0.01564  1.0000
  H   H1106     1.0  0.94659  0.25657  0.72971  1.0000
  C   C642      1.0  0.91203  0.49276  0.69105  1.0000
  H   H1107     1.0  0.95158  0.35227  0.93054  1.0000
  C   C643      1.0  0.91934  0.47582  0.70060  1.0000
  N   N45       1.0  0.56067  0.48191  0.79239  1.0000
  C   C644      1.0  0.92144  0.48063  0.82166  1.0000
  H   H1108     1.0  0.89477  0.49064  0.68274  1.0000
  H   H1109     1.0  0.90763  0.46080  0.70021  1.0000
  H   H1110     1.0  0.93602  0.47466  0.81780  1.0000
  H   H1111     1.0  0.96595  0.36673  0.01245  1.0000
  C   C645      1.0  0.48774  0.48646  0.73049  1.0000
  H   H1112     1.0  0.88553  0.25932  0.82826  1.0000
  H   H1113     1.0  0.93579  0.33769  0.64668  1.0000
  H   H1114     1.0  0.47860  0.48880  0.75796  1.0000
  H   H1115     1.0  0.52372  0.44442  0.79013  1.0000
  C   C646      1.0  0.95146  0.25526  0.99801  1.0000
  C   C647      1.0  0.96712  0.33185  0.99313  1.0000
  C   C648      1.0  0.95488  0.28939  0.83795  1.0000
  C   C649      1.0  0.93683  0.35324  0.94999  1.0000
  H   H1116     1.0  0.95714  0.32588  0.54271  1.0000
  H   H1117     1.0  0.91142  0.27511  0.77230  1.0000
  H   H1118     1.0  0.52905  0.48923  0.79553  1.0000
  C   C650      1.0  0.93851  0.33167  0.61687  1.0000
  C   C651      1.0  0.56415  0.47332  0.71569  1.0000
  H   H1119     1.0  0.95686  0.33819  0.60667  1.0000
  H   H1120     1.0  0.91674  0.29336  0.80703  1.0000
  H   H1121     1.0  0.57037  0.49334  0.85159  1.0000
  C   C652      1.0  0.95370  0.27515  0.87770  1.0000
  N   N46       1.0  0.92322  0.32899  0.54380  1.0000
  C   C653      1.0  0.91297  0.30638  0.55132  1.0000
  H   H1122     1.0  0.94088  0.24934  0.82533  1.0000
  H   H1123     1.0  0.88245  0.34533  0.55038  1.0000
  S   S191      1.0  0.84639  0.25586  0.00342  1.0000
  C   C654      1.0  0.89072  0.31107  0.86755  1.0000
  C   C655      1.0  0.91331  0.31589  0.87798  1.0000
  C   C656      1.0  0.93033  0.33194  0.85487  1.0000
  C   C657      1.0  0.92505  0.34327  0.82093  1.0000
  C   C658      1.0  0.90249  0.33841  0.81039  1.0000
  C   C659      1.0  0.88544  0.32245  0.83367  1.0000
  H   H1124     1.0  0.91759  0.30713  0.90367  1.0000
  H   H1125     1.0  0.94776  0.33554  0.86310  1.0000
  H   H1126     1.0  0.92269  0.35206  0.92932  1.0000
  C   C660      1.0  0.96199  0.31497  0.96389  1.0000
  H   H1127     1.0  0.96550  0.32464  0.73249  1.0000
  H   H1128     1.0  0.96364  0.36357  0.54545  1.0000
  H   H1129     1.0  0.97332  0.29740  0.83022  1.0000
  H   H1130     1.0  0.60376  0.47715  0.82348  1.0000
  H   H1131     1.0  0.90369  0.27104  0.86691  1.0000
  C   C661      1.0  0.95536  0.29380  0.76196  1.0000
  N   N47       1.0  0.94382  0.28007  0.80057  1.0000
  C   C662      1.0  0.47831  0.46941  0.70938  1.0000
  H   H1132     1.0  0.90718  0.24949  0.84364  1.0000
  H   H1133     1.0  0.93247  0.48868  0.88183  1.0000
  H   H1134     1.0  0.60199  0.47598  0.76794  1.0000
  H   H1135     1.0  0.89746  0.30196  0.57322  1.0000
  C   C663      1.0  0.92337  0.33773  0.58484  1.0000
  H   H1136     1.0  0.94747  0.28804  0.73341  1.0000
  H   H1137     1.0  0.96210  0.32320  0.78788  1.0000
  S   S192      1.0  0.47853  0.44602  0.64447  1.0000
  H   H1138     1.0  0.55772  0.47839  0.68651  1.0000
  H   H1139     1.0  0.53186  0.47266  0.83829  1.0000
  H   H1140     1.0  0.91880  0.48755  0.79090  1.0000
  H   H1141     1.0  0.94915  0.39659  0.55891  1.0000
  H   H1142     1.0  0.52048  0.47789  0.63251  1.0000
  C   C664      1.0  0.51983  0.45871  0.78332  1.0000
  H   H1143     1.0  0.58120  0.47230  0.70619  1.0000
  C   C665      1.0  0.90331  0.26379  0.83759  1.0000
  H   H1144     1.0  0.95247  0.28481  0.53586  1.0000
  H   H1145     1.0  0.94100  0.36830  0.96149  1.0000
  H   H1146     1.0  0.92486  0.29957  0.56717  1.0000
  C   C666      1.0  0.91338  0.39074  0.55111  1.0000
  H   H1147     1.0  0.90615  0.46748  0.83133  1.0000
  H   H1148     1.0  0.95352  0.31869  0.93626  1.0000
  H   H1149     1.0  0.90583  0.33329  0.60025  1.0000
  H   H1150     1.0  0.94758  0.30112  0.84714  1.0000
  H   H1151     1.0  0.93753  0.31679  0.75748  1.0000
  H   H1152     1.0  0.59842  0.45362  0.80232  1.0000
  H   H1153     1.0  0.87623  0.31882  0.54555  1.0000
  C   C667      1.0  0.53545  0.47633  0.80390  1.0000
  H   H1154     1.0  0.56073  0.45099  0.78860  1.0000
  C   C668      1.0  0.56616  0.48936  0.74668  1.0000
  H   H1155     1.0  0.50200  0.45592  0.79590  1.0000
  H   H1156     1.0  0.55248  0.45814  0.72624  1.0000
  H   H1157     1.0  0.96004  0.28422  0.90368  1.0000
  H   H1158     1.0  0.96489  0.26562  0.87360  1.0000
  H   H1159     1.0  0.51993  0.46253  0.74928  1.0000
  H   H1160     1.0  0.56361  0.45883  0.83877  1.0000
  H   H1161     1.0  0.91405  0.33860  0.00303  1.0000
  H   H1162     1.0  0.95171  0.30018  0.97995  1.0000
  C   C669      1.0  0.59475  0.46821  0.79912  1.0000
  C   C670      1.0  0.56881  0.46422  0.80522  1.0000
  C   C671      1.0  0.93762  0.24882  0.75991  1.0000
  C   C672      1.0  0.92893  0.33620  0.98613  1.0000
  H   H1163     1.0  0.97355  0.29437  0.75780  1.0000
  H   H1164     1.0  0.87926  0.38591  0.53295  1.0000
  H   H1165     1.0  0.81097  0.66345  0.09745  1.0000
  H   H1166     1.0  0.97178  0.58434  0.51320  1.0000
  Fe  Fe96      1.0  0.91022  0.64671  0.07656  1.0000
  S   S193      1.0  0.89863  0.63970  0.14522  1.0000
  H   H1167     1.0  0.84955  0.66975  0.14762  1.0000
  Fe  Fe97      1.0  0.94085  0.68052  0.34931  1.0000
  S   S194      1.0  0.90551  0.65985  0.36736  1.0000
  S   S195      1.0  0.95833  0.68326  0.28469  1.0000
  H   H1168     1.0  0.96811  0.69344  0.07252  1.0000
  S   S196      1.0  0.90967  0.67921  0.45745  1.0000
  Fe  Fe98      1.0  0.91937  0.65465  0.42893  1.0000
  Fe  Fe99      1.0  0.89926  0.68635  0.39381  1.0000
  S   S197      1.0  0.87015  0.69834  0.37981  1.0000
  Fe  Fe100     1.0  0.72252  0.69043  0.38944  1.0000
  S   S198      1.0  0.71865  0.65925  0.41840  1.0000
  H   H1169     1.0  0.75899  0.68066  0.12087  1.0000
  Fe  Fe101     1.0  0.71747  0.67675  0.30172  1.0000
  S   S199      1.0  0.71305  0.64456  0.32446  1.0000
  S   S200      1.0  0.71823  0.68793  0.23362  1.0000
  Fe  Fe102     1.0  0.69058  0.64964  0.37600  1.0000
  S   S201      1.0  0.65683  0.62919  0.40435  1.0000
  Fe  Fe103     1.0  0.74176  0.65747  0.36436  1.0000
  S   S202      1.0  0.76875  0.64205  0.37275  1.0000
  S   S203      1.0  0.69270  0.68098  0.35060  1.0000
  S   S204      1.0  0.74788  0.68949  0.33799  1.0000
  H   H1170     1.0  0.93083  0.56833  0.26886  1.0000
  S   S205      1.0  0.72964  0.71486  0.43309  1.0000
  S   S206      1.0  0.68535  0.62665  0.09882  1.0000
  C   C673      1.0  0.69473  0.72970  0.52717  1.0000
  H   H1171     1.0  0.95180  0.58281  0.47490  1.0000
  H   H1172     1.0  0.72736  0.61776  0.08774  1.0000
  S   S207      1.0  0.59181  0.66860  0.09499  1.0000
  S   S208      1.0  0.61032  0.72957  0.06777  1.0000
  Fe  Fe104     1.0  0.55940  0.57268  0.30419  1.0000
  S   S209      1.0  0.55829  0.60268  0.32149  1.0000
  S   S210      1.0  0.59470  0.57235  0.28605  1.0000
  Fe  Fe105     1.0  0.50848  0.55260  0.32133  1.0000
  S   S211      1.0  0.50410  0.58132  0.34068  1.0000
  Fe  Fe106     1.0  0.52763  0.59684  0.28468  1.0000
  S   S212      1.0  0.51948  0.62131  0.24376  1.0000
  Fe  Fe107     1.0  0.53524  0.58417  0.37559  1.0000
  S   S213      1.0  0.53747  0.59378  0.44076  1.0000
  S   S214      1.0  0.53027  0.56803  0.26269  1.0000
  S   S215      1.0  0.53801  0.55436  0.36064  1.0000
  H   H1173     1.0  0.64459  0.67010  0.08916  1.0000
  C   C674      1.0  0.55376  0.58421  0.47549  1.0000
  C   C675      1.0  0.56505  0.57077  0.46380  1.0000
  H   H1174     1.0  0.86506  0.67003  0.31594  1.0000
  H   H1175     1.0  0.88906  0.70419  0.21321  1.0000
  H   H1176     1.0  0.56455  0.56656  0.43241  1.0000
  H   H1177     1.0  0.64358  0.67168  0.32892  1.0000
  C   C676      1.0  0.95373  0.60491  0.39174  1.0000
  C   C677      1.0  0.57054  0.65549  0.13462  1.0000
  C   C678      1.0  0.57155  0.63705  0.15380  1.0000
  C   C679      1.0  0.55589  0.62644  0.18703  1.0000
  C   C680      1.0  0.53895  0.63413  0.20129  1.0000
  C   C681      1.0  0.53749  0.65231  0.18148  1.0000
  C   C682      1.0  0.55332  0.66304  0.14831  1.0000
  H   H1178     1.0  0.58485  0.63116  0.14367  1.0000
  H   H1179     1.0  0.55710  0.61242  0.20195  1.0000
  H   H1180     1.0  0.52434  0.65830  0.19230  1.0000
  H   H1181     1.0  0.55236  0.67722  0.13376  1.0000
  H   H1182     1.0  0.62936  0.68582  0.21668  1.0000
  H   H1183     1.0  0.84693  0.69007  0.17523  1.0000
  H   H1184     1.0  0.63044  0.54924  0.45247  1.0000
  C   C683      1.0  0.64039  0.61262  0.37177  1.0000
  C   C684      1.0  0.64990  0.60850  0.33473  1.0000
  C   C685      1.0  0.63610  0.59540  0.30903  1.0000
  C   C686      1.0  0.61278  0.58664  0.32018  1.0000
  C   C687      1.0  0.60358  0.59033  0.35785  1.0000
  C   C688      1.0  0.61730  0.60331  0.38351  1.0000
  H   H1185     1.0  0.66778  0.61546  0.32570  1.0000
  H   H1186     1.0  0.64333  0.59251  0.28000  1.0000
  H   H1187     1.0  0.58577  0.58325  0.36723  1.0000
  H   H1188     1.0  0.60986  0.60625  0.41231  1.0000
  C   C689      1.0  0.69390  0.64388  0.13604  1.0000
  C   C690      1.0  0.69017  0.63689  0.17860  1.0000
  C   C691      1.0  0.69764  0.65022  0.20887  1.0000
  C   C692      1.0  0.70851  0.67069  0.19672  1.0000
  C   C693      1.0  0.71169  0.67773  0.15418  1.0000
  C   C694      1.0  0.70461  0.66435  0.12387  1.0000
  H   H1189     1.0  0.68176  0.62106  0.18819  1.0000
  H   H1190     1.0  0.69482  0.64467  0.24155  1.0000
  H   H1191     1.0  0.71992  0.69359  0.14460  1.0000
  H   H1192     1.0  0.70741  0.66992  0.09113  1.0000
  C   C695      1.0  0.70718  0.71841  0.46367  1.0000
  H   H1193     1.0  0.66715  0.67731  0.26755  1.0000
  H   H1194     1.0  0.62739  0.64905  0.35939  1.0000
  C   C696      1.0  0.63419  0.67904  0.24598  1.0000
  C   C697      1.0  0.63557  0.61806  0.04184  1.0000
  C   C698      1.0  0.84190  0.68229  0.38181  1.0000
  C   C699      1.0  0.83658  0.66130  0.38762  1.0000
  C   C700      1.0  0.81402  0.64902  0.38527  1.0000
  C   C701      1.0  0.79666  0.65766  0.37793  1.0000
  C   C702      1.0  0.80197  0.67862  0.37334  1.0000
  C   C703      1.0  0.82452  0.69086  0.37491  1.0000
  H   H1195     1.0  0.84988  0.65456  0.39322  1.0000
  H   H1196     1.0  0.81000  0.63281  0.38908  1.0000
  H   H1197     1.0  0.78879  0.68546  0.36815  1.0000
  H   H1198     1.0  0.82851  0.70708  0.37059  1.0000
  C   C704      1.0  0.91562  0.65224  0.18295  1.0000
  C   C705      1.0  0.93509  0.66876  0.17208  1.0000
  C   C706      1.0  0.94801  0.67842  0.20345  1.0000
  C   C707      1.0  0.94153  0.67157  0.24572  1.0000
  C   C708      1.0  0.92217  0.65499  0.25631  1.0000
  C   C709      1.0  0.90924  0.64540  0.22511  1.0000
  H   H1199     1.0  0.94011  0.67417  0.13959  1.0000
  C   C710      1.0  0.64159  0.58934  0.50046  1.0000
  H   H1200     1.0  0.89429  0.63252  0.23371  1.0000
  S   S216      1.0  0.93381  0.70759  0.37175  1.0000
  Fe  Fe108     1.0  0.94492  0.69842  0.43359  1.0000
  C   C711      1.0  0.66043  0.68624  0.24443  1.0000
  H   H1201     1.0  0.56657  0.65673  0.26422  1.0000
  H   H1202     1.0  0.74390  0.64930  0.10281  1.0000
  H   H1203     1.0  0.48347  0.59668  0.14557  1.0000
  C   C712      1.0  0.67011  0.72352  0.47055  1.0000
  H   H1204     1.0  0.91840  0.60575  0.23236  1.0000
  C   C713      1.0  0.82456  0.67971  0.26742  1.0000
  C   C714      1.0  0.68638  0.71761  0.44742  1.0000
  H   H1205     1.0  0.93590  0.61916  0.15752  1.0000
  H   H1206     1.0  0.51053  0.51945  0.49543  1.0000
  H   H1207     1.0  0.61303  0.66469  0.33456  1.0000
  H   H1208     1.0  0.54619  0.60015  0.52548  1.0000
  C   C715      1.0  0.86614  0.66344  0.28618  1.0000
  H   H1209     1.0  0.67889  0.61573  0.46896  1.0000
  H   H1210     1.0  0.81581  0.69080  0.27499  1.0000
  H   H1211     1.0  0.72728  0.72498  0.51639  1.0000
  C   C716      1.0  0.70488  0.60154  0.46261  1.0000
  H   H1212     1.0  0.47596  0.52627  0.51399  1.0000
  H   H1213     1.0  0.68328  0.71333  0.41630  1.0000
  H   H1214     1.0  0.70352  0.60064  0.42862  1.0000
  H   H1215     1.0  0.48128  0.56358  0.51659  1.0000
  H   H1216     1.0  0.89262  0.71349  0.28604  1.0000
  H   H1217     1.0  0.96288  0.69135  0.19486  1.0000
  C   C717      1.0  0.49603  0.58885  0.15295  1.0000
  H   H1218     1.0  0.59890  0.62138  0.08391  1.0000
  H   H1219     1.0  0.63233  0.61340  0.07601  1.0000
  H   H1220     1.0  0.90862  0.56209  0.39928  1.0000
  C   C718      1.0  0.49503  0.55679  0.52244  1.0000
  C   C719      1.0  0.90130  0.70321  0.27384  1.0000
  H   H1221     1.0  0.47723  0.49784  0.40543  1.0000
  H   H1222     1.0  0.56408  0.60212  0.04435  1.0000
  C   C720      1.0  0.88899  0.69215  0.23806  1.0000
  H   H1223     1.0  0.58971  0.63533  0.24616  1.0000
  H   H1224     1.0  0.50730  0.59682  0.17592  1.0000
  H   H1225     1.0  0.90319  0.56948  0.25827  1.0000
  C   C721      1.0  0.65989  0.57733  0.44257  1.0000
  H   H1226     1.0  0.91605  0.58292  0.51137  1.0000
  N   N48       1.0  0.62319  0.65650  0.25104  1.0000
  C   C722      1.0  0.63369  0.64809  0.21665  1.0000
  C   C723      1.0  0.85749  0.66678  0.21222  1.0000
  H   H1227     1.0  0.50155  0.50525  0.29258  1.0000
  C   C724      1.0  0.62670  0.64669  0.29267  1.0000
  C   C725      1.0  0.62325  0.62532  0.21328  1.0000
  H   H1228     1.0  0.86863  0.65741  0.20541  1.0000
  H   H1229     1.0  0.75811  0.67189  0.17423  1.0000
  H   H1230     1.0  0.63294  0.65615  0.18567  1.0000
  H   H1231     1.0  0.65206  0.65047  0.22059  1.0000
  S   S217      1.0  0.91406  0.67626  0.03918  1.0000
  C   C726      1.0  0.59821  0.65185  0.24452  1.0000
  H   H1232     1.0  0.59601  0.65831  0.21282  1.0000
  C   C727      1.0  0.58379  0.65923  0.27566  1.0000
  H   H1233     1.0  0.64292  0.64290  0.29134  1.0000
  H   H1234     1.0  0.60665  0.62188  0.19927  1.0000
  H   H1235     1.0  0.63476  0.62032  0.19238  1.0000
  H   H1236     1.0  0.62114  0.61623  0.24379  1.0000
  C   C728      1.0  0.66726  0.65996  0.50664  1.0000
  H   H1237     1.0  0.58113  0.65017  0.30641  1.0000
  C   C729      1.0  0.90914  0.58897  0.42762  1.0000
  H   H1238     1.0  0.58816  0.63423  0.04561  1.0000
  H   H1239     1.0  0.68110  0.56331  0.50338  1.0000
  H   H1240     1.0  0.85277  0.70354  0.23670  1.0000
  H   H1241     1.0  0.74582  0.60420  0.06919  1.0000
  N   N49       1.0  0.86518  0.67802  0.24944  1.0000
  C   C730      1.0  0.92188  0.60875  0.43287  1.0000
  H   H1242     1.0  0.67252  0.56952  0.43489  1.0000
  H   H1243     1.0  0.62803  0.68629  0.27120  1.0000
  C   C731      1.0  0.93021  0.59650  0.23293  1.0000
  H   H1244     1.0  0.62333  0.57142  0.43329  1.0000
  H   H1245     1.0  0.68676  0.60638  0.51670  1.0000
  H   H1246     1.0  0.85262  0.63301  0.26655  1.0000
  H   H1247     1.0  0.89183  0.58284  0.44130  1.0000
  C   C732      1.0  0.62761  0.65892  0.33052  1.0000
  H   H1248     1.0  0.49972  0.56118  0.17849  1.0000
  H   H1249     1.0  0.76853  0.63678  0.06068  1.0000
  H   H1250     1.0  0.61317  0.63195  0.30085  1.0000
  H   H1251     1.0  0.84975  0.63429  0.32139  1.0000
  H   H1252     1.0  0.59072  0.67552  0.27881  1.0000
  H   H1253     1.0  0.66665  0.70224  0.25089  1.0000
  H   H1254     1.0  0.84009  0.65597  0.21854  1.0000
  H   H1255     1.0  0.85528  0.69745  0.29019  1.0000
  H   H1256     1.0  0.58507  0.55182  0.48396  1.0000
  H   H1257     1.0  0.93929  0.62481  0.28172  1.0000
  H   H1258     1.0  0.66396  0.59077  0.41918  1.0000
  C   C733      1.0  0.76422  0.66992  0.14245  1.0000
  H   H1259     1.0  0.92869  0.59008  0.20264  1.0000
  C   C734      1.0  0.57670  0.56245  0.49307  1.0000
  N   N50       1.0  0.95412  0.60960  0.23801  1.0000
  H   H1260     1.0  0.96291  0.63570  0.13710  1.0000
  S   S218      1.0  0.90994  0.62342  0.46202  1.0000
  N   N51       1.0  0.76714  0.63457  0.12831  1.0000
  C   C735      1.0  0.75173  0.61297  0.13270  1.0000
  C   C736      1.0  0.78342  0.63627  0.16222  1.0000
  C   C737      1.0  0.78023  0.63855  0.08621  1.0000
  C   C738      1.0  0.75250  0.64817  0.13191  1.0000
  C   C739      1.0  0.73615  0.60668  0.09694  1.0000
  C   C740      1.0  0.77232  0.63180  0.20727  1.0000
  C   C741      1.0  0.79771  0.65956  0.07501  1.0000
  H   H1261     1.0  0.48148  0.54195  0.24117  1.0000
  H   H1262     1.0  0.76187  0.60229  0.13573  1.0000
  H   H1263     1.0  0.74018  0.60963  0.16165  1.0000
  H   H1264     1.0  0.79625  0.65132  0.16025  1.0000
  H   H1265     1.0  0.79367  0.62583  0.15855  1.0000
  H   H1266     1.0  0.78937  0.62724  0.08286  1.0000
  H   H1267     1.0  0.50705  0.59023  0.12403  1.0000
  C   C742      1.0  0.63644  0.56364  0.43230  1.0000
  H   H1268     1.0  0.95046  0.60663  0.30557  1.0000
  H   H1269     1.0  0.97253  0.64044  0.31823  1.0000
  C   C743      1.0  0.66643  0.56766  0.51581  1.0000
  H   H1270     1.0  0.62497  0.64607  0.10750  1.0000
  H   H1271     1.0  0.76281  0.61558  0.21500  1.0000
  H   H1272     1.0  0.78584  0.63561  0.22946  1.0000
  H   H1273     1.0  0.76088  0.64089  0.21323  1.0000
  H   H1274     1.0  0.78922  0.67133  0.07064  1.0000
  H   H1275     1.0  0.80677  0.65972  0.04441  1.0000
  C   C744      1.0  0.63910  0.65391  0.08389  1.0000
  H   H1276     1.0  0.65438  0.72355  0.45724  1.0000
  H   H1277     1.0  0.78297  0.67498  0.14007  1.0000
  H   H1278     1.0  0.67191  0.64958  0.52967  1.0000
  C   C745      1.0  0.92004  0.54732  0.52103  1.0000
  H   H1279     1.0  0.73835  0.64139  0.15648  1.0000
  C   C746      1.0  0.92022  0.57853  0.26664  1.0000
  H   H1280     1.0  0.63933  0.60155  0.47832  1.0000
  H   H1281     1.0  0.65605  0.65098  0.48466  1.0000
  H   H1282     1.0  0.63778  0.55988  0.39974  1.0000
  C   C747      1.0  0.68258  0.60244  0.48474  1.0000
  H   H1283     1.0  0.52863  0.54154  0.51350  1.0000
  C   C748      1.0  0.94096  0.58521  0.38614  1.0000
  H   H1284     1.0  0.68354  0.66914  0.48917  1.0000
  C   C749      1.0  0.97083  0.59785  0.24007  1.0000
  C   C750      1.0  0.71117  0.72425  0.50376  1.0000
  H   H1285     1.0  0.81728  0.67320  0.23918  1.0000
  C   C751      1.0  0.94415  0.61671  0.41486  1.0000
  H   H1286     1.0  0.71868  0.61573  0.46580  1.0000
  H   H1287     1.0  0.65379  0.64844  0.08943  1.0000
  S   S219      1.0  0.95550  0.67330  0.40923  1.0000
  H   H1288     1.0  0.82037  0.66810  0.29443  1.0000
  H   H1289     1.0  0.91876  0.71260  0.26184  1.0000
  H   H1290     1.0  0.58474  0.59009  0.06018  1.0000
  H   H1291     1.0  0.95951  0.60954  0.14835  1.0000
  N   N52       1.0  0.66218  0.58372  0.48613  1.0000
  C   C752      1.0  0.97279  0.58577  0.20320  1.0000
  C   C753      1.0  0.85725  0.67982  0.17137  1.0000
  H   H1292     1.0  0.91737  0.64926  0.28859  1.0000
  H   H1293     1.0  0.64597  0.67871  0.50195  1.0000
  H   H1294     1.0  0.95471  0.63909  0.21073  1.0000
  H   H1295     1.0  0.87474  0.68850  0.15834  1.0000
  H   H1296     1.0  0.91762  0.58347  0.29770  1.0000
  H   H1297     1.0  0.66788  0.68550  0.21289  1.0000
  H   H1298     1.0  0.95416  0.63187  0.41921  1.0000
  H   H1299     1.0  0.95313  0.55055  0.45741  1.0000
  S   S220      1.0  0.47412  0.52817  0.32812  1.0000
  C   C754      1.0  0.67434  0.72979  0.51036  1.0000
  H   H1300     1.0  0.88285  0.66064  0.28530  1.0000
  H   H1301     1.0  0.66931  0.68839  0.53068  1.0000
  H   H1302     1.0  0.83085  0.64207  0.28889  1.0000
  C   C755      1.0  0.85031  0.69059  0.26083  1.0000
  H   H1303     1.0  0.62561  0.57682  0.50014  1.0000
  H   H1304     1.0  0.90007  0.68393  0.22495  1.0000
  S   S221      1.0  0.96358  0.72225  0.47388  1.0000
  C   C756      1.0  0.84863  0.64213  0.29051  1.0000
  C   C757      1.0  0.91860  0.57728  0.40385  1.0000
  S   S222      1.0  0.95252  0.57056  0.35618  1.0000
  S   S223      1.0  0.94215  0.64290  0.04769  1.0000
  H   H1305     1.0  0.94886  0.67311  0.51057  1.0000
  H   H1306     1.0  0.50471  0.55823  0.49195  1.0000
  C   C758      1.0  0.95364  0.61846  0.27895  1.0000
  C   C759      1.0  0.65591  0.67411  0.52658  1.0000
  H   H1307     1.0  0.72279  0.59214  0.10716  1.0000
  C   C760      1.0  0.55471  0.58963  0.51632  1.0000
  C   C761      1.0  0.48374  0.49659  0.29329  1.0000
  H   H1308     1.0  0.62967  0.54929  0.52524  1.0000
  H   H1309     1.0  0.90333  0.69271  0.29989  1.0000
  C   C762      1.0  0.59766  0.62309  0.04971  1.0000
  H   H1310     1.0  0.96993  0.54756  0.50074  1.0000
  H   H1311     1.0  0.48870  0.57639  0.24850  1.0000
  Fe  Fe109     1.0  0.59586  0.69748  0.05288  1.0000
  C   C763      1.0  0.95450  0.62217  0.15937  1.0000
  H   H1312     1.0  0.95641  0.57870  0.19014  1.0000
  H   H1313     1.0  0.91340  0.55137  0.49108  1.0000
  H   H1314     1.0  0.71048  0.58901  0.47649  1.0000
  H   H1315     1.0  0.61271  0.65143  0.53015  1.0000
  C   C764      1.0  0.96164  0.62677  0.20353  1.0000
  H   H1316     1.0  0.62222  0.69424  0.52264  1.0000
  C   C765      1.0  0.48518  0.56638  0.16878  1.0000
  C   C766      1.0  0.95683  0.57378  0.50064  1.0000
  H   H1317     1.0  0.47900  0.55837  0.14119  1.0000
  H   H1318     1.0  0.95327  0.60963  0.51495  1.0000
  H   H1319     1.0  0.95577  0.65031  0.50867  1.0000
  H   H1320     1.0  0.54979  0.51878  0.50810  1.0000
  C   C767      1.0  0.64684  0.54773  0.52611  1.0000
  H   H1321     1.0  0.96774  0.58745  0.26930  1.0000
  H   H1322     1.0  0.97076  0.61131  0.37729  1.0000
  H   H1323     1.0  0.64835  0.53646  0.50494  1.0000
  C   C768      1.0  0.96553  0.55853  0.47887  1.0000
  H   H1324     1.0  0.47542  0.59180  0.22135  1.0000
  C   C769      1.0  0.51861  0.52561  0.52366  1.0000
  H   H1325     1.0  0.47578  0.52631  0.17285  1.0000
  C   C770      1.0  0.94608  0.65797  0.52742  1.0000
  H   H1326     1.0  0.92746  0.53533  0.51405  1.0000
  H   H1327     1.0  0.92792  0.64915  0.52811  1.0000
  C   C771      1.0  0.58211  0.60255  0.03944  1.0000
  C   C772      1.0  0.63210  0.65199  0.03871  1.0000
  H   H1328     1.0  0.65385  0.62693  0.03734  1.0000
  H   H1329     1.0  0.64366  0.59029  0.03690  1.0000
  H   H1330     1.0  0.62071  0.66134  0.03358  1.0000
  H   H1331     1.0  0.71061  0.71698  0.84620  1.0000
  H   H1332     1.0  0.94710  0.53050  0.56461  1.0000
  C   C773      1.0  0.72003  0.69051  0.83939  1.0000
  Fe  Fe110     1.0  0.91997  0.62695  0.99997  1.0000
  S   S224      1.0  0.92278  0.59763  0.98011  1.0000
  S   S225      1.0  0.92432  0.65467  0.95668  1.0000
  Fe  Fe111     1.0  0.69106  0.63092  0.94028  1.0000
  S   S226      1.0  0.72725  0.64845  0.91774  1.0000
  S   S227      1.0  0.66003  0.62364  0.90223  1.0000
  H   H1333     1.0  0.73792  0.70053  0.83445  1.0000
  H   H1334     1.0  0.61462  0.61729  0.96894  1.0000
  Fe  Fe112     1.0  0.72397  0.66993  0.96374  1.0000
  S   S228      1.0  0.73561  0.70342  0.94610  1.0000
  C   C774      1.0  0.96281  0.51492  0.82289  1.0000
  H   H1335     1.0  0.80378  0.60913  0.00968  1.0000
  H   H1336     1.0  0.92796  0.61543  0.89301  1.0000
  C   C775      1.0  0.79987  0.65104  0.95347  1.0000
  H   H1337     1.0  0.91179  0.71340  0.98433  1.0000
  C   C776      1.0  0.95171  0.60322  0.86169  1.0000
  Fe  Fe113     1.0  0.66220  0.71911  0.68611  1.0000
  S   S229      1.0  0.66403  0.68902  0.71356  1.0000
  S   S230      1.0  0.63211  0.72077  0.65162  1.0000
  H   H1338     1.0  0.91634  0.73646  0.95259  1.0000
  H   H1339     1.0  0.55237  0.66362  0.91836  1.0000
  H   H1340     1.0  0.54098  0.67125  0.87265  1.0000
  C   C777      1.0  0.94597  0.52818  0.87868  1.0000
  H   H1341     1.0  0.97013  0.69034  0.62222  1.0000
  Fe  Fe114     1.0  0.59780  0.71033  0.95879  1.0000
  S   S231      1.0  0.59607  0.69656  0.89794  1.0000
  H   H1342     1.0  0.91553  0.65320  0.65442  1.0000
  Fe  Fe115     1.0  0.60356  0.56417  0.72454  1.0000
  S   S232      1.0  0.57242  0.56931  0.75309  1.0000
  S   S233      1.0  0.63250  0.56259  0.76397  1.0000
  Fe  Fe116     1.0  0.58488  0.56149  0.63788  1.0000
  S   S234      1.0  0.55267  0.56684  0.66034  1.0000
  S   S235      1.0  0.59049  0.55582  0.57106  1.0000
  Fe  Fe117     1.0  0.57569  0.59027  0.69520  1.0000
  S   S236      1.0  0.57157  0.62082  0.69757  1.0000
  Fe  Fe118     1.0  0.55282  0.54516  0.71534  1.0000
  S   S237      1.0  0.52050  0.52155  0.74341  1.0000
  S   S238      1.0  0.60808  0.58669  0.66832  1.0000
  S   S239      1.0  0.58376  0.53818  0.69099  1.0000
  C   C778      1.0  0.60620  0.70699  0.81452  1.0000
  S   S240      1.0  0.92886  0.57667  0.76282  1.0000
  Fe  Fe119     1.0  0.93581  0.56403  0.70359  1.0000
  S   S241      1.0  0.91590  0.53306  0.68693  1.0000
  Fe  Fe120     1.0  0.93286  0.60558  0.72338  1.0000
  S   S242      1.0  0.91141  0.62584  0.73446  1.0000
  S   S243      1.0  0.97046  0.61774  0.72625  1.0000
  H   H1343     1.0  0.91344  0.57728  0.56628  1.0000
  H   H1344     1.0  0.52704  0.54814  0.58196  1.0000
  H   H1345     1.0  0.56701  0.58570  0.57682  1.0000
  C   C779      1.0  0.63797  0.66972  0.71400  1.0000
  C   C780      1.0  0.63728  0.64950  0.71810  1.0000
  C   C781      1.0  0.61679  0.63424  0.71426  1.0000
  C   C782      1.0  0.59712  0.63926  0.70536  1.0000
  C   C783      1.0  0.59771  0.65938  0.70292  1.0000
  C   C784      1.0  0.61788  0.67442  0.70856  1.0000
  H   H1346     1.0  0.65264  0.64562  0.72351  1.0000
  H   H1347     1.0  0.61631  0.61869  0.71813  1.0000
  H   H1348     1.0  0.58259  0.66341  0.69636  1.0000
  H   H1349     1.0  0.61775  0.68964  0.70889  1.0000
  C   C785      1.0  0.97121  0.72391  0.88471  1.0000
  H   H1350     1.0  0.64273  0.58432  0.56870  1.0000
  C   C786      1.0  0.67190  0.67315  0.82440  1.0000
  C   C787      1.0  0.59927  0.71286  0.85191  1.0000
  H   H1351     1.0  0.90837  0.49542  0.86786  1.0000
  H   H1352     1.0  0.84455  0.62933  0.00297  1.0000
  C   C788      1.0  0.68398  0.71840  0.00314  1.0000
  H   H1353     1.0  0.54791  0.51530  0.82845  1.0000
  C   C789      1.0  0.71797  0.71691  0.96436  1.0000
  H   H1354     1.0  0.61093  0.66016  0.96835  1.0000
  C   C790      1.0  0.82311  0.66228  0.94874  1.0000
  C   C791      1.0  0.48443  0.53449  0.53989  1.0000
  Fe  Fe121     1.0  0.97262  0.60218  0.66936  1.0000
  H   H1355     1.0  0.78744  0.65709  0.93955  1.0000
  H   H1356     1.0  0.59050  0.62483  0.58270  1.0000
  C   C792      1.0  0.65331  0.60665  0.86370  1.0000
  C   C793      1.0  0.66658  0.59444  0.85401  1.0000
  C   C794      1.0  0.66010  0.58100  0.82335  1.0000
  C   C795      1.0  0.64055  0.57987  0.80183  1.0000
  C   C796      1.0  0.62748  0.59225  0.81138  1.0000
  C   C797      1.0  0.63371  0.60536  0.84246  1.0000
  H   H1357     1.0  0.68169  0.59524  0.87024  1.0000
  H   H1358     1.0  0.67032  0.57148  0.81619  1.0000
  H   H1359     1.0  0.61247  0.59160  0.79508  1.0000
  H   H1360     1.0  0.62328  0.61457  0.85020  1.0000
  H   H1361     1.0  0.91903  0.69695  0.74218  1.0000
  H   H1362     1.0  0.89154  0.65340  0.82685  1.0000
  C   C798      1.0  0.94887  0.51483  0.70460  1.0000
  H   H1363     1.0  0.58420  0.59979  0.00657  1.0000
  H   H1364     1.0  0.64377  0.64844  0.80919  1.0000
  H   H1365     1.0  0.63786  0.63937  0.96550  1.0000
  S   S244      1.0  0.73699  0.65484  0.01665  1.0000
  H   H1366     1.0  0.94812  0.67952  0.66247  1.0000
  S   S245      1.0  0.68756  0.65360  0.98297  1.0000
  C   C799      1.0  0.80912  0.62405  0.99295  1.0000
  C   C800      1.0  0.48830  0.50246  0.57084  1.0000
  C   C801      1.0  0.94002  0.59642  0.93605  1.0000
  H   H1367     1.0  0.89700  0.52403  0.84206  1.0000
  N   N53       1.0  0.62108  0.63087  0.02747  1.0000
  H   H1368     1.0  0.68041  0.66238  0.83781  1.0000
  Fe  Fe122     1.0  0.96678  0.58829  0.76253  1.0000
  C   C802      1.0  0.93899  0.60615  0.89667  1.0000
  H   H1369     1.0  0.95684  0.64477  0.58232  1.0000
  N   N54       1.0  0.67904  0.69263  0.84429  1.0000
  Fe  Fe123     1.0  0.70056  0.63660  0.03250  1.0000
  C   C803      1.0  0.66573  0.70609  0.82802  1.0000
  C   C804      1.0  0.67660  0.68857  0.89129  1.0000
  H   H1370     1.0  0.91431  0.69359  0.83638  1.0000
  H   H1371     1.0  0.61024  0.70017  0.56894  1.0000
  H   H1372     1.0  0.60994  0.69292  0.81447  1.0000
  H   H1373     1.0  0.95819  0.54345  0.86958  1.0000
  H   H1374     1.0  0.66591  0.70685  0.79338  1.0000
  C   C805      1.0  0.96601  0.59113  0.86645  1.0000
  H   H1375     1.0  0.68975  0.70023  0.90554  1.0000
  H   H1376     1.0  0.90302  0.71247  0.93279  1.0000
  H   H1377     1.0  0.96038  0.52975  0.70645  1.0000
  H   H1378     1.0  0.66921  0.71116  0.02448  1.0000
  H   H1379     1.0  0.89980  0.53289  0.78800  1.0000
  H   H1380     1.0  0.65728  0.64463  0.59437  1.0000
  H   H1381     1.0  0.95424  0.53765  0.61410  1.0000
  H   H1382     1.0  0.69837  0.73463  0.55743  1.0000
  C   C806      1.0  0.94020  0.71954  0.93788  1.0000
  H   H1383     1.0  0.97266  0.63217  0.98893  1.0000
  H   H1384     1.0  0.65542  0.61044  0.54694  1.0000
  H   H1385     1.0  0.82330  0.60056  0.93296  1.0000
  H   H1386     1.0  0.91258  0.70263  0.59551  1.0000
  C   C807      1.0  0.52056  0.49736  0.68067  1.0000
  H   H1387     1.0  0.95448  0.52055  0.90146  1.0000
  N   N55       1.0  0.86080  0.61592  0.87013  1.0000
  C   C808      1.0  0.85805  0.63645  0.85997  1.0000
  C   C809      1.0  0.83770  0.60054  0.86896  1.0000
  C   C810      1.0  0.87745  0.61312  0.83712  1.0000
  C   C811      1.0  0.86982  0.61537  0.91272  1.0000
  C   C812      1.0  0.88027  0.65432  0.85378  1.0000
  H   H1388     1.0  0.61383  0.71465  0.74838  1.0000
  C   C813      1.0  0.87489  0.59140  0.82724  1.0000
  C   C814      1.0  0.87070  0.59486  0.93221  1.0000
  H   H1389     1.0  0.84892  0.63687  0.83107  1.0000
  H   H1390     1.0  0.84749  0.64007  0.88511  1.0000
  H   H1391     1.0  0.83843  0.58493  0.87478  1.0000
  H   H1392     1.0  0.83152  0.60154  0.83718  1.0000
  H   H1393     1.0  0.87610  0.62117  0.80647  1.0000
  H   H1394     1.0  0.89535  0.62002  0.84487  1.0000
  H   H1395     1.0  0.88743  0.62582  0.91224  1.0000
  H   H1396     1.0  0.85957  0.62084  0.93528  1.0000
  H   H1397     1.0  0.87580  0.66843  0.84741  1.0000
  H   H1398     1.0  0.88974  0.65586  0.88221  1.0000
  C   C815      1.0  0.83937  0.65448  0.96634  1.0000
  C   C816      1.0  0.81882  0.60204  0.90027  1.0000
  H   H1399     1.0  0.94015  0.69203  0.85613  1.0000
  C   C817      1.0  0.94632  0.56128  0.57566  1.0000
  H   H1400     1.0  0.87381  0.58078  0.85509  1.0000
  H   H1401     1.0  0.88996  0.59157  0.80699  1.0000
  H   H1402     1.0  0.85976  0.58553  0.80937  1.0000
  H   H1403     1.0  0.85394  0.58303  0.93489  1.0000
  H   H1404     1.0  0.87595  0.59644  0.96451  1.0000
  H   H1405     1.0  0.88366  0.58993  0.91529  1.0000
  H   H1406     1.0  0.58869  0.73559  0.88026  1.0000
  C   C818      1.0  0.92267  0.64915  0.62542  1.0000
  S   S246      1.0  0.70094  0.61232  0.99191  1.0000
  H   H1407     1.0  0.92218  0.67813  0.55807  1.0000
  C   C819      1.0  0.92716  0.68539  0.74717  1.0000
  H   H1408     1.0  0.88831  0.52363  0.54047  1.0000
  H   H1409     1.0  0.80304  0.58944  0.89760  1.0000
  H   H1410     1.0  0.89596  0.50708  0.80270  1.0000
  C   C820      1.0  0.52678  0.63206  0.82536  1.0000
  C   C821      1.0  0.55993  0.65961  0.78934  1.0000
  C   C822      1.0  0.51711  0.62429  0.78457  1.0000
  C   C823      1.0  0.54897  0.67657  0.79074  1.0000
  H   H1411     1.0  0.51710  0.64206  0.83500  1.0000
  H   H1412     1.0  0.57850  0.66727  0.78947  1.0000
  H   H1413     1.0  0.55818  0.65427  0.75786  1.0000
  H   H1414     1.0  0.52083  0.63652  0.75862  1.0000
  H   H1415     1.0  0.52327  0.61191  0.77508  1.0000
  H   H1416     1.0  0.49829  0.61798  0.78959  1.0000
  H   H1417     1.0  0.55827  0.68817  0.81044  1.0000
  H   H1418     1.0  0.53071  0.67127  0.80125  1.0000
  H   H1419     1.0  0.54976  0.68398  0.75862  1.0000
  Fe  Fe124     1.0  0.94407  0.67090  0.00652  1.0000
  H   H1420     1.0  0.52180  0.61901  0.84994  1.0000
  C   C824      1.0  0.64168  0.59619  0.54459  1.0000
  Fe  Fe125     1.0  0.58661  0.73622  0.02182  1.0000
  N   N56       1.0  0.55215  0.64226  0.82321  1.0000
  Fe  Fe126     1.0  0.65810  0.74258  0.60582  1.0000
  Fe  Fe127     1.0  0.73700  0.63170  0.97297  1.0000
  H   H1421     1.0  0.58704  0.63721  0.97387  1.0000
  C   C825      1.0  0.94949  0.69048  0.75922  1.0000
  H   H1422     1.0  0.67521  0.68912  0.61403  1.0000
  H   H1423     1.0  0.68976  0.67685  0.58015  1.0000
  S   S247      1.0  0.62219  0.70176  0.99966  1.0000
  C   C826      1.0  0.94783  0.65534  0.76041  1.0000
  H   H1424     1.0  0.90469  0.53218  0.58316  1.0000
  C   C827      1.0  0.60512  0.64415  0.96226  1.0000
  C   C828      1.0  0.92655  0.51231  0.69412  1.0000
  H   H1425     1.0  0.68915  0.73704  0.81854  1.0000
  N   N57       1.0  0.93755  0.56554  0.53415  1.0000
  H   H1426     1.0  0.57681  0.66011  0.86155  1.0000
  C   C829      1.0  0.92597  0.65043  0.74607  1.0000
  C   C830      1.0  0.61489  0.68795  0.55468  1.0000
  H   H1427     1.0  0.52746  0.64671  0.90127  1.0000
  H   H1428     1.0  0.64771  0.65985  0.01805  1.0000
  H   H1429     1.0  0.92951  0.69998  0.63743  1.0000
  C   C831      1.0  0.70383  0.70304  0.83051  1.0000
  S   S248      1.0  0.96404  0.71568  0.76631  1.0000
  H   H1430     1.0  0.62871  0.63564  0.54637  1.0000
  S   S249      1.0  0.93503  0.59176  0.66379  1.0000
  C   C832      1.0  0.62038  0.63228  0.98067  1.0000
  H   H1431     1.0  0.71808  0.67869  0.81784  1.0000
  C   C833      1.0  0.92549  0.69760  0.86229  1.0000
  C   C834      1.0  0.54394  0.65814  0.89005  1.0000
  S   S250      1.0  0.57030  0.70363  0.01077  1.0000
  H   H1432     1.0  0.93315  0.55900  0.60185  1.0000
  H   H1433     1.0  0.67985  0.67417  0.90139  1.0000
  H   H1434     1.0  0.90391  0.67978  0.62961  1.0000
  C   C835      1.0  0.72300  0.73730  0.94995  1.0000
  H   H1435     1.0  0.91161  0.51802  0.91219  1.0000
  H   H1436     1.0  0.64752  0.69995  0.83918  1.0000
  C   C836      1.0  0.67710  0.67448  0.60705  1.0000
  C   C837      1.0  0.79289  0.63175  0.97500  1.0000
  C   C838      1.0  0.56344  0.62675  0.81307  1.0000
  H   H1437     1.0  0.65371  0.68253  0.94713  1.0000
  C   C839      1.0  0.60420  0.63729  0.59366  1.0000
  C   C840      1.0  0.55944  0.64897  0.86505  1.0000
  H   H1438     1.0  0.56026  0.62248  0.78110  1.0000
  H   H1439     1.0  0.95549  0.64373  0.76770  1.0000
  H   H1440     1.0  0.59855  0.64668  0.79432  1.0000
  H   H1441     1.0  0.89847  0.66178  0.72995  1.0000
  H   H1442     1.0  0.63884  0.67741  0.90123  1.0000
  C   C841      1.0  0.95752  0.67582  0.63572  1.0000
  H   H1443     1.0  0.55611  0.61253  0.83417  1.0000
  C   C842      1.0  0.91551  0.66547  0.74034  1.0000
  C   C843      1.0  0.65374  0.68779  0.91369  1.0000
  H   H1444     1.0  0.59887  0.67547  0.55365  1.0000
  H   H1445     1.0  0.56075  0.63603  0.88630  1.0000
  C   C844      1.0  0.60837  0.71926  0.77701  1.0000
  H   H1446     1.0  0.97309  0.67193  0.90480  1.0000
  H   H1447     1.0  0.82847  0.67700  0.93117  1.0000
  C   C845      1.0  0.58950  0.63296  0.81534  1.0000
  C   C846      1.0  0.56637  0.58134  0.54555  1.0000
  H   H1448     1.0  0.52040  0.52451  0.61186  1.0000
  H   H1449     1.0  0.93179  0.53868  0.93150  1.0000
  N   N58       1.0  0.94063  0.51656  0.84122  1.0000
  C   C847      1.0  0.63211  0.68167  0.58147  1.0000
  H   H1450     1.0  0.92939  0.63685  0.63714  1.0000
  H   H1451     1.0  0.67748  0.67593  0.79056  1.0000
  H   H1452     1.0  0.94741  0.69585  0.56932  1.0000
  H   H1453     1.0  0.65150  0.70292  0.91269  1.0000
  H   H1454     1.0  0.59456  0.63501  0.84757  1.0000
  H   H1455     1.0  0.97017  0.50611  0.84544  1.0000
  H   H1456     1.0  0.52893  0.49827  0.53747  1.0000
  H   H1457     1.0  0.63586  0.67038  0.81500  1.0000
  H   H1458     1.0  0.50256  0.55855  0.62149  1.0000
  H   H1459     1.0  0.64759  0.54151  0.55866  1.0000
  H   H1460     1.0  0.95051  0.61035  0.83118  1.0000
  H   H1461     1.0  0.81434  0.61611  0.89374  1.0000
  N   N59       1.0  0.94157  0.66667  0.60355  1.0000
  C   C848      1.0  0.64636  0.66140  0.82799  1.0000
  H   H1462     1.0  0.95200  0.72658  0.96124  1.0000
  C   C849      1.0  0.57254  0.49874  0.81770  1.0000
  C   C850      1.0  0.95414  0.58425  0.94035  1.0000
  C   C851      1.0  0.95618  0.54358  0.58064  1.0000
  C   C852      1.0  0.95970  0.67535  0.76640  1.0000
  H   H1463     1.0  0.90616  0.62701  0.58312  1.0000
  C   C853      1.0  0.65412  0.65902  0.59989  1.0000
  H   H1464     1.0  0.68420  0.66864  0.63461  1.0000
  H   H1465     1.0  0.70597  0.70797  0.79637  1.0000
  H   H1466     1.0  0.96007  0.57468  0.58309  1.0000
  H   H1467     1.0  0.88717  0.63204  0.62149  1.0000
  H   H1468     1.0  0.59560  0.62073  0.80468  1.0000
  H   H1469     1.0  0.67209  0.57349  0.54583  1.0000
  N   N60       1.0  0.94954  0.72887  0.89432  1.0000
  Fe  Fe128     1.0  0.89381  0.65741  0.99291  1.0000
  Fe  Fe129     1.0  0.63416  0.73408  0.01074  1.0000
  H   H1470     1.0  0.95491  0.57661  0.97058  1.0000
  S   S251      1.0  0.76427  0.61652  0.97864  1.0000
  C   C854      1.0  0.91652  0.72075  0.95194  1.0000
  C   C855      1.0  0.92583  0.53196  0.90251  1.0000
  C   C856      1.0  0.92537  0.49548  0.85535  1.0000
  C   C857      1.0  0.59598  0.74318  0.81364  1.0000
  H   H1471     1.0  0.61180  0.63045  0.61907  1.0000
  C   C858      1.0  0.90261  0.63901  0.59989  1.0000
  H   H1472     1.0  0.64029  0.65484  0.86037  1.0000
  H   H1473     1.0  0.55529  0.49865  0.73653  1.0000
  C   C859      1.0  0.91899  0.69163  0.61394  1.0000
  C   C860      1.0  0.56505  0.51784  0.81284  1.0000
  C   C861      1.0  0.69860  0.70756  0.99155  1.0000
  H   H1474     1.0  0.58402  0.49960  0.74147  1.0000
  H   H1475     1.0  0.88892  0.54724  0.55761  1.0000
  H   H1476     1.0  0.50230  0.53800  0.65778  1.0000
  S   S252      1.0  0.68838  0.73973  0.63851  1.0000
  C   C862      1.0  0.67408  0.72798  0.83935  1.0000
  H   H1477     1.0  0.62398  0.67717  0.61379  1.0000
  H   H1478     1.0  0.62529  0.59903  0.55193  1.0000
  H   H1479     1.0  0.91562  0.68965  0.89160  1.0000
  H   H1480     1.0  0.64391  0.65556  0.63039  1.0000
  C   C863      1.0  0.93292  0.68304  0.58410  1.0000
  C   C864      1.0  0.89946  0.53726  0.55279  1.0000
  H   H1481     1.0  0.96006  0.64822  0.67065  1.0000
  C   C865      1.0  0.83224  0.63547  0.98909  1.0000
  H   H1482     1.0  0.57709  0.52998  0.82798  1.0000
  S   S253      1.0  0.86850  0.66834  0.95749  1.0000
  H   H1483     1.0  0.93533  0.52471  0.77693  1.0000
  H   H1484     1.0  0.60598  0.64402  0.92785  1.0000
  C   C866      1.0  0.93056  0.52751  0.80885  1.0000
  C   C867      1.0  0.90438  0.52243  0.81128  1.0000
  H   H1485     1.0  0.93903  0.70333  0.94192  1.0000
  H   H1486     1.0  0.71748  0.68354  0.87204  1.0000
  H   H1487     1.0  0.64637  0.69571  0.58363  1.0000
  H   H1488     1.0  0.59595  0.64773  0.60642  1.0000
  H   H1489     1.0  0.91982  0.54325  0.88424  1.0000
  C   C868      1.0  0.62188  0.64752  0.55686  1.0000
  H   H1490     1.0  0.93791  0.54406  0.80942  1.0000
  H   H1491     1.0  0.69502  0.69213  0.00420  1.0000
  H   H1492     1.0  0.89775  0.64954  0.57758  1.0000
  C   C869      1.0  0.92600  0.58147  0.53867  1.0000
  H   H1493     1.0  0.59123  0.50409  0.80932  1.0000
  C   C870      1.0  0.93286  0.72063  0.86282  1.0000
  H   H1494     1.0  0.47942  0.53528  0.62544  1.0000
  H   H1495     1.0  0.96890  0.70778  0.89478  1.0000
  H   H1496     1.0  0.96001  0.50649  0.79503  1.0000
  N   N61       1.0  0.64099  0.66553  0.56616  1.0000
  C   C871      1.0  0.68899  0.73876  0.98840  1.0000
  C   C872      1.0  0.96750  0.58206  0.90603  1.0000
  C   C873      1.0  0.63381  0.59896  0.02009  1.0000
  H   H1497     1.0  0.56537  0.52363  0.77979  1.0000
  H   H1498     1.0  0.53689  0.50801  0.66948  1.0000
  H   H1499     1.0  0.93113  0.61276  0.54783  1.0000
  C   C874      1.0  0.50882  0.50052  0.71605  1.0000
  C   C875      1.0  0.97128  0.66272  0.65490  1.0000
  C   C876      1.0  0.95502  0.65966  0.57117  1.0000
  H   H1500     1.0  0.95191  0.60323  0.57080  1.0000
  H   H1501     1.0  0.97023  0.64030  0.93607  1.0000
  H   H1502     1.0  0.67843  0.72882  0.87223  1.0000
  H   H1503     1.0  0.94006  0.72725  0.83076  1.0000
  H   H1504     1.0  0.91726  0.72520  0.86702  1.0000
  C   C877      1.0  0.49802  0.54186  0.62569  1.0000
  C   C878      1.0  0.59431  0.73107  0.85155  1.0000
  C   C879      1.0  0.51254  0.53460  0.59401  1.0000
  H   H1505     1.0  0.61622  0.58885  0.02007  1.0000
  N   N62       1.0  0.50076  0.52446  0.55813  1.0000
  C   C880      1.0  0.95609  0.49791  0.71449  1.0000
  H   H1506     1.0  0.47506  0.50168  0.63559  1.0000
  H   H1507     1.0  0.50622  0.56584  0.54419  1.0000
  H   H1508     1.0  0.66045  0.73506  0.83461  1.0000
  H   H1509     1.0  0.64173  0.60287  0.98769  1.0000
  H   H1510     1.0  0.48125  0.49486  0.54325  1.0000
  S   S254      1.0  0.66197  0.74389  0.72492  1.0000
  C   C881      1.0  0.60312  0.73730  0.77630  1.0000
  H   H1511     1.0  0.97272  0.67015  0.56586  1.0000
  H   H1512     1.0  0.54511  0.51990  0.56251  1.0000
  C   C882      1.0  0.94180  0.60287  0.54336  1.0000
  S   S255      1.0  0.61159  0.74321  0.96599  1.0000
  H   H1513     1.0  0.50006  0.49452  0.58302  1.0000
  S   S256      1.0  0.88760  0.62813  0.03245  1.0000
  S   S257      1.0  0.65451  0.73867  0.53732  1.0000
  H   H1514     1.0  0.97307  0.49998  0.72427  1.0000
  C   C883      1.0  0.57706  0.56745  0.53421  1.0000
  C   C884      1.0  0.53639  0.51490  0.53425  1.0000
  C   C885      1.0  0.58927  0.84684  0.09235  1.0000
  C   C886      1.0  0.68628  0.99154  0.36771  1.0000
  H   H1515     1.0  0.75494  0.84223  0.48905  1.0000
  S   S258      1.0  0.64826  0.89705  0.11501  1.0000
  C   C887      1.0  0.57351  0.81030  0.10972  1.0000
  H   H1516     1.0  0.62655  0.97085  0.17513  1.0000
  H   H1517     1.0  0.61273  0.82074  0.16121  1.0000
  C   C888      1.0  0.51655  0.95616  0.45254  1.0000
  C   C889      1.0  0.66191  0.98678  0.38817  1.0000
  C   C890      1.0  0.47557  0.94441  0.32094  1.0000
  S   S259      1.0  0.58468  0.97190  0.24418  1.0000
  S   S260      1.0  0.55265  0.94226  0.32244  1.0000
  H   H1518     1.0  0.55509  0.83840  0.06839  1.0000
  H   H1519     1.0  0.64322  0.95417  0.17450  1.0000
  S   S261      1.0  0.60789  0.95061  0.31846  1.0000
  H   H1520     1.0  0.51954  0.94344  0.39299  1.0000
  Fe  Fe130     1.0  0.58002  0.94093  0.27523  1.0000
  S   S262      1.0  0.57417  0.91576  0.23337  1.0000
  Fe  Fe131     1.0  0.58114  0.95527  0.36261  1.0000
  S   S263      1.0  0.57578  0.94643  0.43228  1.0000
  C   C891      1.0  0.67691  0.97159  0.30857  1.0000
  H   H1521     1.0  0.51233  0.92554  0.43804  1.0000
  H   H1522     1.0  0.67257  0.79517  0.49927  1.0000
  H   H1523     1.0  0.74014  0.76312  0.41338  1.0000
  H   H1524     1.0  0.57979  0.85178  0.21513  1.0000
  H   H1525     1.0  0.62647  0.95038  0.48311  1.0000
  H   H1526     1.0  0.51036  0.94735  0.30233  1.0000
  C   C892      1.0  0.57083  0.79079  0.13848  1.0000
  C   C893      1.0  0.58473  0.96553  0.46571  1.0000
  H   H1527     1.0  0.58377  0.86476  0.16426  1.0000
  H   H1528     1.0  0.75874  0.78640  0.42642  1.0000
  C   C894      1.0  0.73572  0.97853  0.52874  1.0000
  H   H1529     1.0  0.68553  0.94002  0.06782  1.0000
  C   C895      1.0  0.71628  0.98174  0.33200  1.0000
  H   H1530     1.0  0.59210  0.89606  0.46215  1.0000
  C   C896      1.0  0.67988  0.95524  0.28167  1.0000
  C   C897      1.0  0.62826  0.90406  0.14622  1.0000
  C   C898      1.0  0.63356  0.90976  0.18612  1.0000
  C   C899      1.0  0.61756  0.91452  0.21239  1.0000
  C   C900      1.0  0.59596  0.91319  0.19918  1.0000
  C   C901      1.0  0.59081  0.90774  0.15912  1.0000
  C   C902      1.0  0.60699  0.90350  0.13253  1.0000
  H   H1531     1.0  0.64996  0.91018  0.19702  1.0000
  H   H1532     1.0  0.62156  0.91839  0.24346  1.0000
  H   H1533     1.0  0.57406  0.90645  0.14889  1.0000
  H   H1534     1.0  0.60255  0.89901  0.10216  1.0000
  N   N63       1.0  0.69116  0.97508  0.34544  1.0000
  H   H1535     1.0  0.65852  0.96688  0.31882  1.0000
  H   H1536     1.0  0.57029  0.86451  0.06113  1.0000
  H   H1537     1.0  0.64120  0.82342  0.10165  1.0000
  H   H1538     1.0  0.70506  0.94495  0.10721  1.0000
  H   H1539     1.0  0.57970  0.80848  0.07799  1.0000
  H   H1540     1.0  0.55590  0.81067  0.10559  1.0000
  H   H1541     1.0  0.57767  0.82010  0.19017  1.0000
  C   C903      1.0  0.62287  0.82050  0.09665  1.0000
  H   H1542     1.0  0.59653  0.84439  0.06190  1.0000
  H   H1543     1.0  0.62339  0.84476  0.13318  1.0000
  H   H1544     1.0  0.61510  0.80393  0.09768  1.0000
  H   H1545     1.0  0.71534  0.96329  0.41101  1.0000
  H   H1546     1.0  0.61692  0.96409  0.07078  1.0000
  H   H1547     1.0  0.75200  0.76368  0.46238  1.0000
  H   H1548     1.0  0.75837  0.81146  0.46337  1.0000
  C   C904      1.0  0.67774  0.98625  0.05920  1.0000
  S   S264      1.0  0.53344  0.99027  0.28439  1.0000
  H   H1549     1.0  0.55842  0.82987  0.16368  1.0000
  H   H1550     1.0  0.64901  0.98467  0.36483  1.0000
  C   C905      1.0  0.60076  0.98413  0.45184  1.0000
  H   H1551     1.0  0.49101  0.93541  0.41802  1.0000
  C   C906      1.0  0.69501  0.95191  0.08661  1.0000
  H   H1552     1.0  0.71900  0.98993  0.26401  1.0000
  N   N64       1.0  0.72736  0.79005  0.49334  1.0000
  H   H1553     1.0  0.69241  0.94169  0.43213  1.0000
  H   H1554     1.0  0.71720  0.78409  0.43086  1.0000
  H   H1555     1.0  0.62065  0.95197  0.13989  1.0000
  H   H1556     1.0  0.49364  0.96733  0.38609  1.0000
  C   C907      1.0  0.56662  0.85079  0.08358  1.0000
  C   C908      1.0  0.49816  0.95527  0.30706  1.0000
  C   C909      1.0  0.68528  0.95565  0.37358  1.0000
  H   H1557     1.0  0.71072  0.76233  0.46694  1.0000
  H   H1558     1.0  0.55508  0.78683  0.15960  1.0000
  C   C910      1.0  0.59590  0.91407  0.51457  1.0000
  C   C911      1.0  0.72387  0.77710  0.45758  1.0000
  C   C912      1.0  0.50938  0.93936  0.42336  1.0000
  C   C913      1.0  0.67881  0.95938  0.11397  1.0000
  H   H1559     1.0  0.77073  0.99184  0.50441  1.0000
  H   H1560     1.0  0.69696  0.95332  0.28225  1.0000
  C   C914      1.0  0.61178  0.82925  0.13098  1.0000
  H   H1561     1.0  0.62178  0.82750  0.06513  1.0000
  H   H1562     1.0  0.65665  0.94905  0.04274  1.0000
  N   N65       1.0  0.66386  0.96939  0.09086  1.0000
  C   C915      1.0  0.48850  0.98625  0.30413  1.0000
  H   H1563     1.0  0.53362  0.97647  0.37497  1.0000
  H   H1564     1.0  0.66654  0.94911  0.38049  1.0000
  C   C916      1.0  0.58752  0.85238  0.18313  1.0000
  N   N66       1.0  0.58784  0.82957  0.12475  1.0000
  H   H1565     1.0  0.67777  0.95961  0.24855  1.0000
  Fe  Fe132     1.0  0.64355  0.89334  0.04654  1.0000
  H   H1566     1.0  0.60615  0.85606  0.18514  1.0000
  H   H1567     1.0  0.67948  0.98580  0.28801  1.0000
  Fe  Fe133     1.0  0.61075  0.98175  0.29023  1.0000
  C   C917      1.0  0.57693  0.83205  0.16573  1.0000
  C   C918      1.0  0.69652  0.95702  0.41534  1.0000
  C   C919      1.0  0.73977  0.78145  0.52575  1.0000
  H   H1568     1.0  0.69616  0.81098  0.46587  1.0000
  H   H1569     1.0  0.69035  0.94402  0.35770  1.0000
  C   C920      1.0  0.60578  0.90797  0.47470  1.0000
  C   C921      1.0  0.74512  0.77257  0.43944  1.0000
  H   H1570     1.0  0.56976  0.77821  0.11908  1.0000
  H   H1571     1.0  0.61071  0.92077  0.44972  1.0000
  H   H1572     1.0  0.55776  0.85364  0.11183  1.0000
  H   H1573     1.0  0.66694  0.94047  0.29208  1.0000
  H   H1574     1.0  0.60127  0.86118  0.10062  1.0000
  H   H1575     1.0  0.59004  0.92701  0.50387  1.0000
  C   C922      1.0  0.74125  0.81114  0.47601  1.0000
  H   H1576     1.0  0.68921  0.96950  0.13534  1.0000
  H   H1577     1.0  0.72952  0.82903  0.52025  1.0000
  Fe  Fe134     1.0  0.55956  0.97408  0.29442  1.0000
  C   C923      1.0  0.63459  0.96269  0.15434  1.0000
  C   C924      1.0  0.74549  0.82741  0.50642  1.0000
  H   H1578     1.0  0.73321  0.81646  0.44911  1.0000
  H   H1579     1.0  0.58538  0.79169  0.15768  1.0000
  C   C925      1.0  0.70417  0.78919  0.51159  1.0000
  C   C926      1.0  0.64746  0.95385  0.06827  1.0000
  C   C927      1.0  0.50478  0.97624  0.29897  1.0000
  S   S265      1.0  0.58638  0.98721  0.33747  1.0000
  H   H1580     1.0  0.63916  0.93985  0.08935  1.0000
  C   C928      1.0  0.63916  0.95142  0.50662  1.0000
  C   C929      1.0  0.65150  0.97808  0.12178  1.0000
  C   C930      1.0  0.57595  0.96174  0.50746  1.0000
  C   C931      1.0  0.68842  0.79546  0.48125  1.0000
  H   H1581     1.0  0.65720  0.97359  0.41197  1.0000
  H   H1582     1.0  0.66828  0.94584  0.13447  1.0000
  H   H1583     1.0  0.56338  0.94746  0.51830  1.0000
  H   H1584     1.0  0.62010  0.90189  0.47894  1.0000
  H   H1585     1.0  0.53386  0.95665  0.46149  1.0000
  C   C932      1.0  0.75336  0.99173  0.50132  1.0000
  H   H1586     1.0  0.68307  0.78463  0.45772  1.0000
  H   H1587     1.0  0.49495  0.99090  0.40094  1.0000
  H   H1588     1.0  0.50562  0.95095  0.48213  1.0000
  H   H1589     1.0  0.64379  0.92223  0.51501  1.0000
  C   C933      1.0  0.49487  0.97568  0.41395  1.0000
  H   H1590     1.0  0.60780  0.98719  0.41983  1.0000
  H   H1591     1.0  0.72230  0.96873  0.32608  1.0000
  C   C934      1.0  0.62848  0.96045  0.04777  1.0000
  H   H1592     1.0  0.68989  0.96609  0.43589  1.0000
  N   N67       1.0  0.51644  0.97675  0.43477  1.0000
  C   C935      1.0  0.71327  0.97844  0.52521  1.0000
  H   H1593     1.0  0.75851  0.78715  0.51794  1.0000
  H   H1594     1.0  0.50355  0.98344  0.49334  1.0000
  H   H1595     1.0  0.58022  0.90163  0.52640  1.0000
  H   H1596     1.0  0.70738  0.96425  0.06598  1.0000
  C   C936      1.0  0.53633  0.98514  0.40259  1.0000
  H   H1597     1.0  0.75635  0.82474  0.53115  1.0000
  H   H1598     1.0  0.66380  0.98854  0.14004  1.0000
  H   H1599     1.0  0.55224  0.98334  0.41468  1.0000
  H   H1600     1.0  0.64210  0.98735  0.10544  1.0000
  H   H1601     1.0  0.54017  0.97943  0.51117  1.0000
  C   C937      1.0  0.51812  0.99001  0.46954  1.0000
  H   H1602     1.0  0.73503  0.76477  0.52612  1.0000
  H   H1603     1.0  0.69484  0.77362  0.52575  1.0000
  H   H1604     1.0  0.65632  0.95634  0.48988  1.0000
  H   H1605     1.0  0.63871  0.96347  0.52651  1.0000
  C   C938      1.0  0.53983  0.99354  0.49330  1.0000
  H   H1606     1.0  0.72659  0.98868  0.35744  1.0000
  H   H1607     1.0  0.67269  0.81833  0.04314  1.0000
  S   S266      1.0  0.56491  0.75578  0.03663  1.0000
  H   H1608     1.0  0.68513  0.98021  0.03333  1.0000
  H   H1609     1.0  0.69124  0.99110  0.49019  1.0000
  C   C939      1.0  0.70858  0.99132  0.49356  1.0000
  Fe  Fe135     1.0  0.66493  0.88753  0.96207  1.0000
  S   S267      1.0  0.63626  0.89203  0.92705  1.0000
  S   S268      1.0  0.69378  0.88246  0.92448  1.0000
  S   S269      1.0  0.63843  0.94807  0.94139  1.0000
  Fe  Fe136     1.0  0.69387  0.93825  0.60752  1.0000
  S   S270      1.0  0.67269  0.90688  0.59800  1.0000
  S   S271      1.0  0.69064  0.96324  0.56050  1.0000
  Fe  Fe137     1.0  0.70781  0.92374  0.69095  1.0000
  S   S272      1.0  0.68828  0.89143  0.68727  1.0000
  S   S273      1.0  0.72618  0.93356  0.74796  1.0000
  Fe  Fe138     1.0  0.70175  0.89715  0.62048  1.0000
  S   S274      1.0  0.70840  0.87279  0.58556  1.0000
  Fe  Fe139     1.0  0.66084  0.90350  0.66526  1.0000
  S   S275      1.0  0.62484  0.88566  0.68793  1.0000
  S   S276      1.0  0.72421  0.92888  0.62516  1.0000
  S   S277      1.0  0.67935  0.93564  0.67383  1.0000
  Fe  Fe140     1.0  0.63927  0.91737  0.96644  1.0000
  S   S278      1.0  0.71023  0.79279  0.69049  1.0000
  S   S279      1.0  0.65545  0.76930  0.63745  1.0000
  H   H1610     1.0  0.62255  0.90579  0.60316  1.0000
  H   H1611     1.0  0.57341  0.95232  0.84774  1.0000
  H   H1612     1.0  0.59186  0.75711  0.81331  1.0000
  H   H1613     1.0  0.56607  0.91942  0.57228  1.0000
  C   C940      1.0  0.60736  0.90083  0.69430  1.0000
  C   C941      1.0  0.61582  0.92160  0.68334  1.0000
  C   C942      1.0  0.60180  0.93368  0.68845  1.0000
  C   C943      1.0  0.58472  0.89212  0.71009  1.0000
  H   H1614     1.0  0.63307  0.92840  0.67036  1.0000
  H   H1615     1.0  0.60859  0.94960  0.68003  1.0000
  H   H1616     1.0  0.57806  0.87602  0.71849  1.0000
  C   C944      1.0  0.70837  0.85071  0.61588  1.0000
  C   C945      1.0  0.70171  0.83234  0.59850  1.0000
  C   C946      1.0  0.70210  0.81456  0.62151  1.0000
  C   C947      1.0  0.70968  0.81508  0.66163  1.0000
  C   C948      1.0  0.71642  0.83344  0.67905  1.0000
  C   C949      1.0  0.71545  0.85120  0.65645  1.0000
  H   H1617     1.0  0.69608  0.83189  0.56728  1.0000
  H   H1618     1.0  0.69684  0.80047  0.60807  1.0000
  H   H1619     1.0  0.72238  0.83395  0.71004  1.0000
  H   H1620     1.0  0.72088  0.86537  0.66986  1.0000
  H   H1621     1.0  0.66010  0.83337  0.86448  1.0000
  H   H1622     1.0  0.55314  0.89745  0.72738  1.0000
  H   H1623     1.0  0.47932  0.98180  0.64592  1.0000
  H   H1624     1.0  0.67433  0.93339  0.83867  1.0000
  C   C950      1.0  0.70147  0.89728  0.87579  1.0000
  C   C951      1.0  0.72348  0.91080  0.86821  1.0000
  C   C952      1.0  0.73063  0.92188  0.82907  1.0000
  C   C953      1.0  0.71612  0.91914  0.79655  1.0000
  C   C954      1.0  0.69401  0.90556  0.80385  1.0000
  C   C955      1.0  0.68662  0.89478  0.84360  1.0000
  H   H1625     1.0  0.73512  0.91268  0.89267  1.0000
  H   H1626     1.0  0.74770  0.93230  0.82373  1.0000
  H   H1627     1.0  0.68262  0.90352  0.77904  1.0000
  H   H1628     1.0  0.66964  0.88420  0.84907  1.0000
  C   C956      1.0  0.62577  0.91949  0.80554  1.0000
  C   C957      1.0  0.59714  0.81453  0.99146  1.0000
  H   H1629     1.0  0.73802  0.74466  0.92919  1.0000
  C   C958      1.0  0.66406  0.96737  0.94476  1.0000
  C   C959      1.0  0.68450  0.96303  0.94909  1.0000
  H   H1630     1.0  0.60859  0.92002  0.88759  1.0000
  N   N68       1.0  0.67518  0.80967  0.93753  1.0000
  C   C960      1.0  0.68129  0.81049  0.98229  1.0000
  C   C961      1.0  0.68934  0.79867  0.91645  1.0000
  S   S280      1.0  0.61360  0.89824  0.01639  1.0000
  C   C962      1.0  0.68001  0.83104  0.91814  1.0000
  C   C963      1.0  0.66677  0.81902  0.01123  1.0000
  C   C964      1.0  0.71534  0.80863  0.91458  1.0000
  H   H1631     1.0  0.69520  0.95400  0.78044  1.0000
  C   C965      1.0  0.67785  0.83433  0.87092  1.0000
  H   H1632     1.0  0.68016  0.79521  0.99694  1.0000
  H   H1633     1.0  0.69922  0.81995  0.98417  1.0000
  H   H1634     1.0  0.63169  0.95059  0.85343  1.0000
  H   H1635     1.0  0.72066  0.82434  0.89957  1.0000
  S   S281      1.0  0.67099  0.75269  0.00233  1.0000
  H   H1636     1.0  0.63949  0.80781  0.94440  1.0000
  H   H1637     1.0  0.66821  0.83816  0.93276  1.0000
  H   H1638     1.0  0.69708  0.84083  0.92512  1.0000
  H   H1639     1.0  0.93763  0.75466  0.89833  1.0000
  H   H1640     1.0  0.66889  0.83508  0.00149  1.0000
  H   H1641     1.0  0.96442  0.75800  0.91732  1.0000
  H   H1642     1.0  0.72367  0.80003  0.89551  1.0000
  H   H1643     1.0  0.64700  0.79867  0.86935  1.0000
  H   H1644     1.0  0.72195  0.80811  0.94587  1.0000
  H   H1645     1.0  0.62586  0.91019  0.83502  1.0000
  C   C966      1.0  0.57867  0.82218  0.98885  1.0000
  Fe  Fe141     1.0  0.57729  0.97348  0.69520  1.0000
  H   H1646     1.0  0.59221  0.94476  0.92120  1.0000
  C   C967      1.0  0.64188  0.78815  0.89805  1.0000
  H   H1647     1.0  0.68911  0.84966  0.85887  1.0000
  N   N69       1.0  0.59748  0.93603  0.83665  1.0000
  H   H1648     1.0  0.74737  0.77969  0.59106  1.0000
  H   H1649     1.0  0.63542  0.97328  0.02336  1.0000
  C   C968      1.0  0.57699  0.94217  0.82551  1.0000
  C   C969      1.0  0.60350  0.92489  0.80230  1.0000
  S   S282      1.0  0.60607  0.75252  0.72874  1.0000
  H   H1650     1.0  0.57674  0.91205  0.62048  1.0000
  C   C970      1.0  0.55483  0.92475  0.82276  1.0000
  C   C971      1.0  0.61866  0.88497  0.55671  1.0000
  H   H1651     1.0  0.69941  0.94768  0.86035  1.0000
  H   H1652     1.0  0.58022  0.95116  0.79448  1.0000
  C   C972      1.0  0.95381  0.75127  0.89210  1.0000
  H   H1653     1.0  0.68547  0.78313  0.93233  1.0000
  C   C973      1.0  0.62564  0.96977  0.80240  1.0000
  C   C974      1.0  0.69006  0.96287  0.80382  1.0000
  C   C975      1.0  0.70042  0.99354  0.83856  1.0000
  C   C976      1.0  0.58188  0.92966  0.91407  1.0000
  C   C977      1.0  0.66410  0.98739  0.94277  1.0000
  H   H1654     1.0  0.57648  0.97323  0.56755  1.0000
  S   S283      1.0  0.58194  0.84777  0.97365  1.0000
  H   H1655     1.0  0.69711  0.97365  0.71764  1.0000
  H   H1656     1.0  0.68379  0.82408  0.85260  1.0000
  C   C978      1.0  0.57864  0.92446  0.59559  1.0000
  H   H1657     1.0  0.55631  0.91575  0.79685  1.0000
  H   H1658     1.0  0.47692  0.95597  0.64966  1.0000
  H   H1659     1.0  0.61929  0.87319  0.58158  1.0000
  H   H1660     1.0  0.57412  0.93651  0.61082  1.0000
  H   H1661     1.0  0.56433  0.92979  0.90924  1.0000
  C   C979      1.0  0.61141  0.90130  0.57721  1.0000
  C   C980      1.0  0.57921  0.92508  0.70440  1.0000
  S   S284      1.0  0.56130  0.98935  0.64827  1.0000
  N   N70       1.0  0.64497  0.82008  0.72909  1.0000
  C   C981      1.0  0.66017  0.81264  0.75731  1.0000
  C   C982      1.0  0.65343  0.84279  0.72575  1.0000
  C   C983      1.0  0.64719  0.81272  0.68687  1.0000
  C   C984      1.0  0.62084  0.81149  0.74799  1.0000
  C   C985      1.0  0.65578  0.78965  0.76258  1.0000
  C   C986      1.0  0.65194  0.85237  0.76665  1.0000
  C   C987      1.0  0.64277  0.82533  0.64850  1.0000
  C   C988      1.0  0.60269  0.81887  0.72648  1.0000
  H   H1662     1.0  0.67841  0.81970  0.74580  1.0000
  H   H1663     1.0  0.65858  0.81698  0.78929  1.0000
  H   H1664     1.0  0.64431  0.84973  0.70325  1.0000
  H   H1665     1.0  0.67154  0.84831  0.71288  1.0000
  H   H1666     1.0  0.66467  0.81196  0.68013  1.0000
  H   H1667     1.0  0.63572  0.79702  0.68639  1.0000
  H   H1668     1.0  0.61484  0.79483  0.74786  1.0000
  H   H1669     1.0  0.61952  0.81342  0.78177  1.0000
  H   H1670     1.0  0.66918  0.78626  0.78089  1.0000
  H   H1671     1.0  0.63919  0.78152  0.77996  1.0000
  H   H1672     1.0  0.65673  0.78354  0.73231  1.0000
  H   H1673     1.0  0.65604  0.86891  0.75929  1.0000
  H   H1674     1.0  0.63459  0.84701  0.78249  1.0000
  H   H1675     1.0  0.66460  0.85007  0.78813  1.0000
  H   H1676     1.0  0.62622  0.82820  0.65174  1.0000
  H   H1677     1.0  0.64270  0.81700  0.62072  1.0000
  H   H1678     1.0  0.65669  0.83986  0.64176  1.0000
  H   H1679     1.0  0.59632  0.80992  0.70029  1.0000
  H   H1680     1.0  0.60852  0.83509  0.71526  1.0000
  H   H1681     1.0  0.58816  0.81707  0.74955  1.0000
  H   H1682     1.0  0.47872  0.96662  0.76304  1.0000
  C   C989      1.0  0.55660  0.80920  0.99902  1.0000
  H   H1683     1.0  0.64785  0.77489  0.89477  1.0000
  H   H1684     1.0  0.64656  0.93462  0.56016  1.0000
  C   C990      1.0  0.61689  0.95469  0.84179  1.0000
  H   H1685     1.0  0.64086  0.93309  0.80182  1.0000
  H   H1686     1.0  0.53566  0.77917  0.02144  1.0000
  C   C991      1.0  0.57103  0.78106  0.01537  1.0000
  H   H1687     1.0  0.66693  0.98758  0.61997  1.0000
  S   S285      1.0  0.56161  0.94006  0.71234  1.0000
  C   C992      1.0  0.48268  0.98165  0.74723  1.0000
  H   H1688     1.0  0.61240  0.97601  0.79061  1.0000
  S   S286      1.0  0.64300  0.86593  0.01419  1.0000
  C   C993      1.0  0.55284  0.78890  0.01276  1.0000
  C   C994      1.0  0.70871  0.74825  0.96230  1.0000
  H   H1689     1.0  0.60468  0.93366  0.77159  1.0000
  H   H1690     1.0  0.54226  0.81493  0.99694  1.0000
  C   C995      1.0  0.59329  0.79386  0.00432  1.0000
  H   H1691     1.0  0.58985  0.91041  0.80054  1.0000
  H   H1692     1.0  0.71794  0.77534  0.58420  1.0000
  H   H1693     1.0  0.68512  0.94798  0.94715  1.0000
  C   C996      1.0  0.57064  0.90423  0.71509  1.0000
  C   C997      1.0  0.70457  0.97841  0.95414  1.0000
  H   H1694     1.0  0.61475  0.93783  0.60101  1.0000
  H   H1695     1.0  0.67399  0.96517  0.79363  1.0000
  C   C998      1.0  0.68411  0.94883  0.84503  1.0000
  S   S287      1.0  0.61292  0.98886  0.66777  1.0000
  H   H1696     1.0  0.61424  0.82449  0.98346  1.0000
  C   C999      1.0  0.59264  0.92235  0.87692  1.0000
  H   H1697     1.0  0.60390  0.94737  0.55711  1.0000
  Fe  Fe142     1.0  0.61448  0.87215  0.98115  1.0000
  H   H1698     1.0  0.51898  0.98643  0.74129  1.0000
  H   H1699     1.0  0.70544  0.79877  0.53745  1.0000
  Fe  Fe143     1.0  0.68412  0.76502  0.67308  1.0000
  H   H1700     1.0  0.62298  0.78239  0.90087  1.0000
  H   H1701     1.0  0.68506  0.79638  0.88395  1.0000
  C   C1000     1.0  0.65017  0.79805  0.93777  1.0000
  H   H1702     1.0  0.58138  0.90700  0.87254  1.0000
  S   S288      1.0  0.66931  0.91402  0.99866  1.0000
  H   H1703     1.0  0.64527  0.78544  0.96340  1.0000
  H   H1704     1.0  0.61207  0.96336  0.86589  1.0000
  N   N71       1.0  0.61157  0.91968  0.54911  1.0000
  H   H1705     1.0  0.63251  0.96317  0.77691  1.0000
  H   H1706     1.0  0.60740  0.78790  0.00684  1.0000
  C   C1001     1.0  0.73032  0.97906  0.81474  1.0000
  H   H1707     1.0  0.54095  0.93124  0.81577  1.0000
  H   H1708     1.0  0.76717  0.99151  0.81101  1.0000
  H   H1709     1.0  0.63977  0.98276  0.81042  1.0000
  H   H1710     1.0  0.62753  0.91046  0.77966  1.0000
  C   C1002     1.0  0.73529  0.78469  0.57175  1.0000
  H   H1711     1.0  0.72025  0.97487  0.95816  1.0000
  C   C1003     1.0  0.60328  0.93314  0.57564  1.0000
  H   H1712     1.0  0.71288  0.76403  0.95127  1.0000
  H   H1713     1.0  0.58086  0.91911  0.94235  1.0000
  H   H1714     1.0  0.67301  0.95370  0.86681  1.0000
  H   H1715     1.0  0.73138  0.96500  0.80247  1.0000
  H   H1716     1.0  0.95072  0.76572  0.83037  1.0000
  H   H1717     1.0  0.54934  0.91464  0.85210  1.0000
  H   H1718     1.0  0.59416  0.89333  0.59229  1.0000
  Fe  Fe144     1.0  0.63339  0.74692  0.68779  1.0000
  C   C1004     1.0  0.96428  0.76337  0.84972  1.0000
  H   H1719     1.0  0.72614  0.97654  0.72896  1.0000
  H   H1720     1.0  0.69787  0.98450  0.86925  1.0000
  H   H1721     1.0  0.73114  0.97633  0.84906  1.0000
  N   N72       1.0  0.70822  0.98289  0.80502  1.0000
  H   H1722     1.0  0.73958  0.96863  0.55287  1.0000
  H   H1723     1.0  0.63588  0.89072  0.54046  1.0000
  H   H1724     1.0  0.73738  0.80049  0.57688  1.0000
  H   H1725     1.0  0.64850  0.81008  0.01375  1.0000
  C   C1005     1.0  0.71334  0.98456  0.72489  1.0000
  C   C1006     1.0  0.63577  0.93120  0.53337  1.0000
  H   H1726     1.0  0.64851  0.99098  0.93813  1.0000
  C   C1007     1.0  0.50546  0.99280  0.73481  1.0000
  H   H1727     1.0  0.60599  0.87739  0.53536  1.0000
  C   C1008     1.0  0.58330  0.97632  0.53538  1.0000
  H   H1728     1.0  0.61787  0.94773  0.03200  1.0000
