data_image0
_chemical_formula_structural       S2FeSC3SH2FeCH4SH2C5H2C2H4NSH5SH2CHCSC2FeH3CH2CH3CH2CH3CH2SNCH2CFeH2CH3C2H5CFeS2FeS2FeSFeSFeS2H3C5H4C2HCSHC6H3CSH3CH3C2HSHSH7FeSHCH2NC8H12NHFeH4C2FeHC2HSHCFeHFeHSFeHSHCFeCS2H4C2HCHCHC6H3CH4CH4CH2NH2C5H5SHCHNCH5C2H7CH3SCH2SFeS2FeS2FeSFeS2C6H4CHC4H4C2HC6H4SHSCNCHC2HC3H3CH7CFeCHCH6CH5NH2CSCHC2H4CH2CHSHNH2C4H6CH6NH7CHC3HCH3C6H2C2HSH2CH2FeSNH2FeSHSHFeS2FeSFeCH2C7H4C6H11SH2CHCSH2CHCH3CHSCH5C2H5CFeCH2SH2SC2FeS2FeS2FeSFeS3C4HC2H4C6H4C4H3C5H3CH3CHCNHSC2H5CHC3H5CHCHSHCHFeH5CH5CH2NC6HCH6CH7CH3NH3CH6CH8CHCHSCH2C2NC2H4CH7CH3CH3C2HFeSFeS2FeSFeS3H2CSC2HC7H4C4H2C6HSHCHNC6H4NC2H14C2HCH5CHNH4CSCH5C2NCH9CH2CH11CH3CSH3CH2C4H6FeS2H4C3H5CH4CFeHSHCHFeSNCSC2HFeSCHC8FeH3CFeC4H6SHFeCSH2CH5SHNC3H4CH9SC2H5SCHCH3SC2HSCHCHCH3FeS2FeS2FeSFeS3HC5H3CSH2FeC2H3C6H5C4H4CNC7H14NC3H3C2HNHCH2SCHC2H3CH10CSC2H2SCHCH9CH3CH6CHCH2CH6CH5C2NCHC2H2S2FeSC2HSH2SHC6H2CH2CH2FeH4CHSFeH5FeH4CH2FeCH2CHC2HCHSHNHCH2CNHCHCHCH3C2H2FeS2FeS2FeSFeSFeS2H2C6H4C5HCHFeSH5CHC2FeHCH3NSH4CH3CH5C3HCHCSCSH6CHNH2CH2CH3CHC2S2H4CHCFeCHCH4SNCFeSH2SHFeSFeSCSHC4H2C6H4C2H2C3H7C2H3CH4CH2C2H4NCH3CH4CHCHSH6NC2H4
_chemical_formula_sum              "S128 Fe64 C448 H768 N32"
_cell_length_a       39.8443
_cell_length_b       31.2014
_cell_length_c       47.4333
_cell_angle_alpha    90.3069
_cell_angle_beta     81.8095
_cell_angle_gamma    89.8822

_space_group_name_H-M_alt    "P 1"
_space_group_IT_number       1

loop_
  _space_group_symop_operation_xyz
  'x, y, z'

loop_
  _atom_site_type_symbol
  _atom_site_label
  _atom_site_symmetry_multiplicity
  _atom_site_fract_x
  _atom_site_fract_y
  _atom_site_fract_z
  _atom_site_occupancy
  S   S1        1.0  0.35741  0.11475  0.31247  1.0000
  S   S2        1.0  0.41088  0.21872  0.32456  1.0000
  Fe  Fe1       1.0  0.39375  0.06561  0.15071  1.0000
  S   S3        1.0  0.37039  0.12119  0.17762  1.0000
  C   C1        1.0  0.28108  0.40742  0.34653  1.0000
  C   C2        1.0  0.45561  0.07843  0.22508  1.0000
  C   C3        1.0  0.32655  0.24357  0.29557  1.0000
  S   S4        1.0  0.44381  0.08168  0.12490  1.0000
  H   H1        1.0  0.38883  0.17756  0.27111  1.0000
  H   H2        1.0  0.37507  0.26984  0.27676  1.0000
  Fe  Fe2       1.0  0.46164  0.02195  0.14371  1.0000
  C   C4        1.0  0.26860  0.30728  0.29453  1.0000
  H   H3        1.0  0.45625  0.14167  0.20615  1.0000
  H   H4        1.0  0.37511  0.06336  0.04589  1.0000
  H   H5        1.0  0.24870  0.25609  0.27217  1.0000
  H   H6        1.0  0.34613  0.05583  0.21851  1.0000
  S   S5        1.0  0.44793  0.05075  0.04412  1.0000
  H   H7        1.0  0.34083  0.05444  0.27127  1.0000
  H   H8        1.0  0.44387  0.05000  0.32049  1.0000
  C   C5        1.0  0.36419  0.11608  0.27486  1.0000
  C   C6        1.0  0.35564  0.08231  0.22988  1.0000
  C   C7        1.0  0.36960  0.11795  0.21484  1.0000
  C   C8        1.0  0.38148  0.15235  0.22988  1.0000
  C   C9        1.0  0.37951  0.15101  0.25977  1.0000
  H   H9        1.0  0.39223  0.18008  0.21835  1.0000
  H   H10       1.0  0.25813  0.33244  0.28174  1.0000
  C   C10       1.0  0.27418  0.26580  0.27664  1.0000
  C   C11       1.0  0.46679  0.12585  0.22394  1.0000
  H   H11       1.0  0.32484  0.26542  0.31436  1.0000
  H   H12       1.0  0.24311  0.18244  0.26229  1.0000
  H   H13       1.0  0.42753  0.07905  0.22867  1.0000
  H   H14       1.0  0.27125  0.20671  0.23357  1.0000
  N   N1        1.0  0.29180  0.22980  0.28982  1.0000
  S   S6        1.0  0.41239  0.00709  0.17118  1.0000
  H   H15       1.0  0.28749  0.19230  0.32844  1.0000
  H   H16       1.0  0.27122  0.24474  0.33371  1.0000
  H   H17       1.0  0.15996  0.45743  0.25406  1.0000
  H   H18       1.0  0.45655  0.14361  0.24360  1.0000
  H   H19       1.0  0.40496  0.01541  0.23423  1.0000
  S   S7        1.0  0.37506  0.02955  0.11428  1.0000
  H   H20       1.0  0.24972  0.30253  0.31380  1.0000
  H   H21       1.0  0.22037  0.22163  0.30866  1.0000
  C   C12       1.0  0.27296  0.21731  0.31846  1.0000
  H   H22       1.0  0.34101  0.21527  0.30171  1.0000
  C   C13       1.0  0.45773  0.00563  0.24259  1.0000
  S   S8        1.0  0.36212  0.32715  0.34488  1.0000
  C   C14       1.0  0.35265  0.08161  0.25976  1.0000
  C   C15       1.0  0.45551  0.06841  0.27609  1.0000
  Fe  Fe3       1.0  0.42766  0.03976  0.09077  1.0000
  H   H23       1.0  0.29881  0.16099  0.28310  1.0000
  H   H24       1.0  0.35141  0.24883  0.25051  1.0000
  H   H25       1.0  0.28825  0.27412  0.25541  1.0000
  C   C16       1.0  0.23693  0.19965  0.31875  1.0000
  H   H26       1.0  0.40872  0.00589  0.27129  1.0000
  H   H27       1.0  0.29239  0.32019  0.30069  1.0000
  C   C17       1.0  0.29638  0.19068  0.27054  1.0000
  H   H28       1.0  0.46280  0.06476  0.20328  1.0000
  H   H29       1.0  0.32045  0.19194  0.25573  1.0000
  H   H30       1.0  0.27409  0.15075  0.24043  1.0000
  C   C18       1.0  0.26930  0.18261  0.25088  1.0000
  H   H31       1.0  0.22506  0.19573  0.34125  1.0000
  H   H32       1.0  0.42762  0.07397  0.27845  1.0000
  C   C19       1.0  0.34911  0.26649  0.27101  1.0000
  H   H33       1.0  0.33991  0.29946  0.26791  1.0000
  H   H34       1.0  0.33668  0.98528  0.03965  1.0000
  H   H35       1.0  0.33520  0.40955  0.33322  1.0000
  C   C20       1.0  0.46341  0.04260  0.30192  1.0000
  H   H36       1.0  0.30014  0.97790  0.08379  1.0000
  H   H37       1.0  0.23752  0.16730  0.30888  1.0000
  S   S9        1.0  0.44907  0.98061  0.10796  1.0000
  N   N2        1.0  0.46923  0.05094  0.24701  1.0000
  C   C21       1.0  0.38597  0.05491  0.02435  1.0000
  H   H38       1.0  0.46569  0.10102  0.27911  1.0000
  H   H39       1.0  0.46194  0.00754  0.29903  1.0000
  C   C22       1.0  0.41915  0.99783  0.24894  1.0000
  Fe  Fe4       1.0  0.37598  0.16550  0.34091  1.0000
  H   H40       1.0  0.46648  0.99505  0.22021  1.0000
  H   H41       1.0  0.46928  0.98236  0.25593  1.0000
  C   C23       1.0  0.31418  0.39020  0.34288  1.0000
  H   H42       1.0  0.27677  0.43976  0.33971  1.0000
  H   H43       1.0  0.48870  0.05128  0.30738  1.0000
  H   H44       1.0  0.38962  0.97478  0.05444  1.0000
  C   C24       1.0  0.42075  0.04688  0.01793  1.0000
  C   C25       1.0  0.26542  0.41169  0.47104  1.0000
  H   H45       1.0  0.29717  0.29098  0.37040  1.0000
  H   H46       1.0  0.29969  0.42282  0.62812  1.0000
  H   H47       1.0  0.41250  0.24580  0.55703  1.0000
  H   H48       1.0  0.28927  0.40024  0.45807  1.0000
  H   H49       1.0  0.15137  0.44146  0.47305  1.0000
  C   C26       1.0  0.23387  0.37654  0.43666  1.0000
  Fe  Fe5       1.0  0.37525  0.19314  0.40327  1.0000
  S   S10       1.0  0.35358  0.18085  0.44935  1.0000
  S   S11       1.0  0.41023  0.24825  0.39108  1.0000
  Fe  Fe6       1.0  0.43314  0.17254  0.58907  1.0000
  S   S12       1.0  0.45457  0.23140  0.60692  1.0000
  S   S13       1.0  0.45273  0.16097  0.54220  1.0000
  Fe  Fe7       1.0  0.39927  0.14591  0.64868  1.0000
  S   S14       1.0  0.41775  0.20402  0.66987  1.0000
  Fe  Fe8       1.0  0.40280  0.24007  0.63239  1.0000
  S   S15       1.0  0.38436  0.30938  0.63189  1.0000
  Fe  Fe9       1.0  0.46722  0.18969  0.64225  1.0000
  S   S16       1.0  0.38046  0.18272  0.61273  1.0000
  S   S17       1.0  0.44952  0.13021  0.62269  1.0000
  H   H50       1.0  0.37358  0.34393  0.57671  1.0000
  H   H51       1.0  0.39926  0.37145  0.54809  1.0000
  H   H52       1.0  0.25842  0.36677  0.42414  1.0000
  C   C27       1.0  0.34213  0.32895  0.63589  1.0000
  C   C28       1.0  0.33659  0.37232  0.62997  1.0000
  C   C29       1.0  0.30354  0.38945  0.63281  1.0000
  C   C30       1.0  0.28116  0.32017  0.64818  1.0000
  C   C31       1.0  0.31423  0.30287  0.64494  1.0000
  H   H53       1.0  0.45348  0.09969  0.42885  1.0000
  H   H54       1.0  0.19553  0.34247  0.46685  1.0000
  H   H55       1.0  0.31812  0.26951  0.64973  1.0000
  H   H56       1.0  0.25847  0.38634  0.48718  1.0000
  C   C32       1.0  0.45349  0.07210  0.44353  1.0000
  C   C33       1.0  0.20526  0.42897  0.47186  1.0000
  H   H57       1.0  0.44542  0.26957  0.53306  1.0000
  C   C34       1.0  0.22111  0.33728  0.45470  1.0000
  S   S18       1.0  0.21131  0.40176  0.36277  1.0000
  H   H58       1.0  0.42679  0.18978  0.44602  1.0000
  C   C35       1.0  0.38162  0.17431  0.47468  1.0000
  C   C36       1.0  0.36851  0.16357  0.50282  1.0000
  C   C37       1.0  0.38998  0.16001  0.52381  1.0000
  C   C38       1.0  0.42484  0.16662  0.51668  1.0000
  C   C39       1.0  0.43798  0.17734  0.48854  1.0000
  C   C40       1.0  0.41648  0.18115  0.46758  1.0000
  H   H59       1.0  0.34159  0.15797  0.50840  1.0000
  H   H60       1.0  0.37964  0.15144  0.54538  1.0000
  H   H61       1.0  0.46481  0.18341  0.48303  1.0000
  C   C41       1.0  0.27563  0.36352  0.64218  1.0000
  S   S19       1.0  0.23376  0.38434  0.64804  1.0000
  H   H62       1.0  0.33117  0.27735  0.46538  1.0000
  H   H63       1.0  0.25973  0.29990  0.65557  1.0000
  H   H64       1.0  0.32711  0.34991  0.53919  1.0000
  C   C42       1.0  0.24609  0.45309  0.43154  1.0000
  H   H65       1.0  0.29086  0.26836  0.55900  1.0000
  H   H66       1.0  0.29292  0.41935  0.41041  1.0000
  H   H67       1.0  0.37436  0.27694  0.47058  1.0000
  C   C43       1.0  0.17338  0.43256  0.45697  1.0000
  C   C44       1.0  0.25973  0.34034  0.36697  1.0000
  H   H68       1.0  0.42001  0.30287  0.55837  1.0000
  S   S20       1.0  0.34089  0.20765  0.37058  1.0000
  H   H69       1.0  0.16696  0.40197  0.44705  1.0000
  S   S21       1.0  0.40622  0.14525  0.37520  1.0000
  H   H70       1.0  0.44275  0.08189  0.46547  1.0000
  H   H71       1.0  0.48518  0.02052  0.45344  1.0000
  H   H72       1.0  0.35805  0.39283  0.62314  1.0000
  H   H73       1.0  0.30380  0.25970  0.59282  1.0000
  H   H74       1.0  0.48050  0.03004  0.49998  1.0000
  H   H75       1.0  0.17595  0.45830  0.44079  1.0000
  H   H76       1.0  0.34943  0.32580  0.47619  1.0000
  Fe  Fe10      1.0  0.43928  0.20115  0.36060  1.0000
  S   S22       1.0  0.18613  0.46594  0.60350  1.0000
  H   H77       1.0  0.35900  0.39271  0.56486  1.0000
  C   C45       1.0  0.25365  0.38247  0.35848  1.0000
  H   H78       1.0  0.32795  0.45354  0.67253  1.0000
  H   H79       1.0  0.30553  0.31280  0.57908  1.0000
  N   N3        1.0  0.35866  0.29256  0.53216  1.0000
  C   C46       1.0  0.33719  0.27732  0.51023  1.0000
  C   C47       1.0  0.34642  0.26949  0.55961  1.0000
  C   C48       1.0  0.39519  0.28095  0.52161  1.0000
  C   C49       1.0  0.35435  0.34045  0.53511  1.0000
  C   C50       1.0  0.34917  0.29060  0.47905  1.0000
  C   C51       1.0  0.30947  0.27860  0.57292  1.0000
  C   C52       1.0  0.41922  0.27490  0.54411  1.0000
  C   C53       1.0  0.37293  0.36296  0.55732  1.0000
  H   H80       1.0  0.33544  0.24169  0.51025  1.0000
  H   H81       1.0  0.31066  0.28912  0.51537  1.0000
  H   H82       1.0  0.36205  0.27690  0.57656  1.0000
  H   H83       1.0  0.34915  0.23415  0.55632  1.0000
  H   H84       1.0  0.39658  0.25004  0.50975  1.0000
  H   H85       1.0  0.40702  0.30502  0.50602  1.0000
  H   H86       1.0  0.36373  0.35641  0.51462  1.0000
  H   H87       1.0  0.22801  0.45307  0.41566  1.0000
  H   H88       1.0  0.23909  0.32739  0.46925  1.0000
  H   H89       1.0  0.28138  0.46670  0.39337  1.0000
  H   H90       1.0  0.21895  0.30974  0.44010  1.0000
  H   H91       1.0  0.19985  0.40594  0.48975  1.0000
  N   N4        1.0  0.23768  0.41757  0.45283  1.0000
  H   H92       1.0  0.21644  0.38108  0.42057  1.0000
  Fe  Fe11      1.0  0.21890  0.45232  0.63744  1.0000
  H   H93       1.0  0.29668  0.44453  0.49843  1.0000
  H   H94       1.0  0.43580  0.04814  0.43647  1.0000
  H   H95       1.0  0.23864  0.32072  0.37613  1.0000
  H   H96       1.0  0.48322  0.10939  0.48747  1.0000
  C   C54       1.0  0.29287  0.32334  0.36368  1.0000
  C   C55       1.0  0.27398  0.45149  0.48808  1.0000
  Fe  Fe12      1.0  0.37786  0.26003  0.35661  1.0000
  H   H97       1.0  0.20770  0.46050  0.48234  1.0000
  C   C56       1.0  0.28220  0.45191  0.41453  1.0000
  C   C57       1.0  0.32026  0.34806  0.35129  1.0000
  H   H98       1.0  0.25317  0.45923  0.50550  1.0000
  S   S23       1.0  0.37634  0.08997  0.67510  1.0000
  H   H99       1.0  0.47004  0.10912  0.35575  1.0000
  C   C58       1.0  0.48899  0.05144  0.44203  1.0000
  Fe  Fe13      1.0  0.19205  0.47070  0.36111  1.0000
  H   H100      1.0  0.29341  0.41515  0.74635  1.0000
  Fe  Fe14      1.0  0.37537  0.02330  0.90288  1.0000
  H   H101      1.0  0.42302  0.17067  0.80194  1.0000
  S   S24       1.0  0.35218  0.03794  0.94833  1.0000
  Fe  Fe15      1.0  0.37737  0.04728  0.83993  1.0000
  H   H102      1.0  0.42472  0.02545  0.94672  1.0000
  S   S25       1.0  0.35947  0.09687  0.81047  1.0000
  H   H103      1.0  0.43451  0.13544  0.72029  1.0000
  C   C59       1.0  0.43459  0.03640  0.98985  1.0000
  Fe  Fe16      1.0  0.43995  0.01192  0.86118  1.0000
  C   C60       1.0  0.47058  0.08369  0.71756  1.0000
  S   S26       1.0  0.34167  0.00713  0.87006  1.0000
  S   S27       1.0  0.40727  0.06916  0.87427  1.0000
  H   H104      1.0  0.34768  0.15888  0.76893  1.0000
  H   H105      1.0  0.46860  0.09103  0.94102  1.0000
  H   H106      1.0  0.35528  0.15776  0.71606  1.0000
  H   H107      1.0  0.46134  0.02942  0.98490  1.0000
  C   C61       1.0  0.37915  0.04245  0.97460  1.0000
  C   C62       1.0  0.41389  0.03407  0.96824  1.0000
  H   H108      1.0  0.45730  0.06357  0.73483  1.0000
  C   C63       1.0  0.36527  0.05291  0.00269  1.0000
  H   H109      1.0  0.45748  0.21296  0.77100  1.0000
  C   C64       1.0  0.26734  0.46111  0.70342  1.0000
  H   H110      1.0  0.42789  0.19559  0.74915  1.0000
  C   C65       1.0  0.37357  0.09276  0.71259  1.0000
  C   C66       1.0  0.38180  0.05665  0.72783  1.0000
  C   C67       1.0  0.37834  0.05757  0.75782  1.0000
  C   C68       1.0  0.36531  0.09413  0.77282  1.0000
  C   C69       1.0  0.35744  0.13032  0.75753  1.0000
  C   C70       1.0  0.36189  0.12985  0.72757  1.0000
  H   H111      1.0  0.39120  0.02802  0.71633  1.0000
  H   H112      1.0  0.38573  0.03005  0.76924  1.0000
  H   H113      1.0  0.47323  0.11344  0.98921  1.0000
  C   C71       1.0  0.31629  0.38579  0.70747  1.0000
  H   H114      1.0  0.47092  0.09780  0.77719  1.0000
  H   H115      1.0  0.29276  0.01551  0.72028  1.0000
  H   H116      1.0  0.47534  0.14817  0.70256  1.0000
  H   H117      1.0  0.30339  0.04104  0.75194  1.0000
  C   C72       1.0  0.45564  0.19701  0.75037  1.0000
  H   H118      1.0  0.45858  0.26006  0.73088  1.0000
  H   H119      1.0  0.46150  0.21870  0.91730  1.0000
  H   H120      1.0  0.29311  0.37868  0.69792  1.0000
  H   H121      1.0  0.48679  0.18921  0.00450  1.0000
  C   C73       1.0  0.23773  0.44127  0.72346  1.0000
  H   H122      1.0  0.45141  0.16224  0.95606  1.0000
  H   H123      1.0  0.26590  0.99610  0.82779  1.0000
  N   N5        1.0  0.30062  0.46601  0.71486  1.0000
  H   H124      1.0  0.46899  0.21810  0.70575  1.0000
  H   H125      1.0  0.26520  0.00931  0.75233  1.0000
  C   C74       1.0  0.31165  0.42502  0.72761  1.0000
  C   C75       1.0  0.31403  0.97921  0.80117  1.0000
  C   C76       1.0  0.44462  0.14827  0.80254  1.0000
  C   C77       1.0  0.47178  0.22866  0.72753  1.0000
  C   C78       1.0  0.45447  0.12559  0.77359  1.0000
  H   H126      1.0  0.46497  0.16495  0.90448  1.0000
  H   H127      1.0  0.33839  0.05945  0.00770  1.0000
  H   H128      1.0  0.24368  0.40884  0.73078  1.0000
  H   H129      1.0  0.43043  0.11133  0.76885  1.0000
  H   H130      1.0  0.32164  0.35704  0.71983  1.0000
  S   S28       1.0  0.41221  0.99281  0.82496  1.0000
  H   H131      1.0  0.47434  0.10156  0.84856  1.0000
  C   C79       1.0  0.28700  0.01212  0.81399  1.0000
  H   H132      1.0  0.46183  0.07257  0.69753  1.0000
  N   N6        1.0  0.47052  0.15234  0.74876  1.0000
  C   C80       1.0  0.29234  0.01167  0.74362  1.0000
  H   H133      1.0  0.43535  0.12384  0.81872  1.0000
  H   H134      1.0  0.27079  0.44095  0.68378  1.0000
  H   H135      1.0  0.21590  0.43709  0.71153  1.0000
  H   H136      1.0  0.29865  0.03499  0.82776  1.0000
  H   H137      1.0  0.27678  0.03162  0.79783  1.0000
  C   C81       1.0  0.46204  0.13189  0.72169  1.0000
  C   C82       1.0  0.47705  0.18906  0.91707  1.0000
  H   H138      1.0  0.46612  0.16515  0.80996  1.0000
  H   H139      1.0  0.22890  0.46248  0.74173  1.0000
  H   H140      1.0  0.33755  0.99751  0.79398  1.0000
  H   H141      1.0  0.33997  0.98254  0.74563  1.0000
  H   H142      1.0  0.33828  0.38952  0.69050  1.0000
  H   H143      1.0  0.48035  0.20311  0.96071  1.0000
  H   H144      1.0  0.33616  0.43002  0.73592  1.0000
  C   C83       1.0  0.47744  0.17396  0.94796  1.0000
  H   H145      1.0  0.23860  0.75646  0.19613  1.0000
  H   H146      1.0  0.03234  0.65390  0.03993  1.0000
  H   H147      1.0  0.05114  0.55675  0.08123  1.0000
  S   S29       1.0  0.37934  0.90238  0.13029  1.0000
  C   C84       1.0  0.99897  0.60651  0.33718  1.0000
  H   H148      1.0  0.43230  0.89674  0.03047  1.0000
  H   H149      1.0  0.10374  0.47689  0.24346  1.0000
  S   S30       1.0  0.21509  0.61981  0.31618  1.0000
  Fe  Fe17      1.0  0.21620  0.75295  0.13755  1.0000
  S   S31       1.0  0.25236  0.69893  0.12408  1.0000
  S   S32       1.0  0.23155  0.81988  0.15065  1.0000
  Fe  Fe18      1.0  0.15399  0.69660  0.13200  1.0000
  S   S33       1.0  0.18594  0.63939  0.11774  1.0000
  S   S34       1.0  0.09681  0.69272  0.13534  1.0000
  Fe  Fe19      1.0  0.21559  0.65805  0.15283  1.0000
  S   S35       1.0  0.23030  0.60503  0.18132  1.0000
  Fe  Fe20      1.0  0.21878  0.68584  0.09048  1.0000
  S   S36       1.0  0.18153  0.71281  0.16881  1.0000
  S   S37       1.0  0.18477  0.74240  0.10221  1.0000
  C   C85       1.0  0.21642  0.61424  0.27896  1.0000
  C   C86       1.0  0.22783  0.57626  0.26496  1.0000
  C   C87       1.0  0.23194  0.57391  0.23504  1.0000
  C   C88       1.0  0.22382  0.60905  0.21890  1.0000
  C   C89       1.0  0.21077  0.64627  0.23296  1.0000
  C   C90       1.0  0.20781  0.64921  0.26285  1.0000
  H   H150      1.0  0.23478  0.54925  0.27714  1.0000
  H   H151      1.0  0.24178  0.54484  0.22433  1.0000
  H   H152      1.0  0.20347  0.67288  0.22073  1.0000
  H   H153      1.0  0.19866  0.67853  0.27359  1.0000
  C   C91       1.0  0.04521  0.56122  0.14013  1.0000
  H   H154      1.0  0.17227  0.51175  0.25633  1.0000
  C   C92       1.0  0.09499  0.60509  0.14428  1.0000
  C   C93       1.0  0.07781  0.64169  0.13702  1.0000
  C   C94       1.0  0.04434  0.63791  0.13146  1.0000
  C   C95       1.0  0.02823  0.59786  0.13284  1.0000
  H   H155      1.0  0.12073  0.60773  0.14882  1.0000
  H   H156      1.0  0.03088  0.66608  0.12586  1.0000
  H   H157      1.0  0.00680  0.58007  0.20349  1.0000
  H   H158      1.0  0.23883  0.74640  0.27424  1.0000
  C   C96       1.0  0.06896  0.54924  0.26005  1.0000
  C   C97       1.0  0.11107  0.55483  0.21715  1.0000
  H   H159      1.0  0.29374  0.65559  0.19625  1.0000
  C   C98       1.0  0.33761  0.88129  0.13472  1.0000
  C   C99       1.0  0.33263  0.83937  0.12507  1.0000
  C   C100      1.0  0.30014  0.82069  0.12877  1.0000
  C   C101      1.0  0.27233  0.84343  0.14281  1.0000
  C   C102      1.0  0.27725  0.88550  0.15223  1.0000
  C   C103      1.0  0.30966  0.90449  0.14804  1.0000
  H   H160      1.0  0.35412  0.82110  0.11481  1.0000
  H   H161      1.0  0.29676  0.78832  0.12140  1.0000
  H   H162      1.0  0.25589  0.90337  0.16310  1.0000
  H   H163      1.0  0.31311  0.93674  0.15561  1.0000
  S   S38       1.0  0.17442  0.50565  0.32417  1.0000
  H   H164      1.0  0.26200  0.69109  0.18708  1.0000
  S   S39       1.0  0.24091  0.67119  0.04468  1.0000
  C   C104      1.0  0.05212  0.56831  0.33912  1.0000
  N   N7        1.0  0.36203  0.92354  0.03649  1.0000
  C   C105      1.0  0.35303  0.87807  0.04502  1.0000
  H   H165      1.0  0.04845  0.51970  0.22333  1.0000
  C   C106      1.0  0.39115  0.93941  0.05105  1.0000
  C   C107      1.0  0.04520  0.51819  0.24692  1.0000
  H   H166      1.0  0.34762  0.74825  0.19498  1.0000
  C   C108      1.0  0.01715  0.56791  0.33784  1.0000
  C   C109      1.0  0.42745  0.93089  0.03580  1.0000
  C   C110      1.0  0.05081  0.64623  0.33796  1.0000
  H   H167      1.0  0.14621  0.56852  0.09348  1.0000
  H   H168      1.0  0.28032  0.81433  0.25173  1.0000
  H   H169      1.0  0.09388  0.62761  0.01915  1.0000
  C   C111      1.0  0.13185  0.55247  0.07802  1.0000
  H   H170      1.0  0.01501  0.56016  0.04244  1.0000
  H   H171      1.0  0.38985  0.92559  0.07270  1.0000
  H   H172      1.0  0.34841  0.87547  0.06865  1.0000
  H   H173      1.0  0.01008  0.71279  0.21733  1.0000
  H   H174      1.0  0.30649  0.70262  0.17635  1.0000
  H   H175      1.0  0.32831  0.86824  0.03866  1.0000
  H   H176      1.0  0.06461  0.54414  0.28344  1.0000
  C   C112      1.0  0.21375  0.66831  0.01841  1.0000
  Fe  Fe21      1.0  0.19404  0.56440  0.34393  1.0000
  C   C113      1.0  0.33809  0.78161  0.19772  1.0000
  H   H177      1.0  0.30920  0.94133  0.03637  1.0000
  C   C114      1.0  0.10804  0.54239  0.02100  1.0000
  H   H178      1.0  0.11095  0.49391  0.27800  1.0000
  H   H179      1.0  0.00262  0.59548  0.12825  1.0000
  H   H180      1.0  0.01849  0.52727  0.25472  1.0000
  H   H181      1.0  0.25891  0.78299  0.29486  1.0000
  H   H182      1.0  0.29283  0.81929  0.20046  1.0000
  H   H183      1.0  0.08880  0.63073  0.27708  1.0000
  C   C115      1.0  0.29923  0.78456  0.19910  1.0000
  H   H184      1.0  0.41413  0.96325  0.24579  1.0000
  H   H185      1.0  0.05913  0.58184  0.25675  1.0000
  H   H186      1.0  0.16925  0.69082  0.04559  1.0000
  H   H187      1.0  0.34700  0.79669  0.21651  1.0000
  H   H188      1.0  0.27832  0.73139  0.28545  1.0000
  N   N8        1.0  0.27844  0.76015  0.22278  1.0000
  H   H189      1.0  0.16763  0.55944  0.21442  1.0000
  H   H190      1.0  0.11698  0.51217  0.02991  1.0000
  C   C116      1.0  0.11743  0.50102  0.25480  1.0000
  S   S40       1.0  0.02554  0.51039  0.14169  1.0000
  C   C117      1.0  0.05159  0.63819  0.05122  1.0000
  H   H191      1.0  0.04637  0.63176  0.19363  1.0000
  C   C118      1.0  0.11119  0.58654  0.06443  1.0000
  C   C119      1.0  0.28755  0.68997  0.19367  1.0000
  H   H192      1.0  0.07198  0.51083  0.06618  1.0000
  H   H193      1.0  0.30620  0.92143  0.08570  1.0000
  H   H194      1.0  0.35007  0.79976  0.17882  1.0000
  H   H195      1.0  0.19891  0.80716  0.21938  1.0000
  C   C120      1.0  0.31912  0.95185  0.07871  1.0000
  H   H196      1.0  0.14727  0.60530  0.20095  1.0000
  H   H197      1.0  0.09605  0.60852  0.33859  1.0000
  C   C121      1.0  0.12461  0.57740  0.26544  1.0000
  H   H198      1.0  0.03824  0.51561  0.02418  1.0000
  S   S41       1.0  0.07410  0.51920  0.34006  1.0000
  H   H199      1.0  0.04826  0.48471  0.25392  1.0000
  N   N9        1.0  0.08848  0.56963  0.04410  1.0000
  H   H200      1.0  0.15198  0.55685  0.18139  1.0000
  H   H201      1.0  0.06762  0.66319  0.05944  1.0000
  C   C122      1.0  0.07345  0.60731  0.03056  1.0000
  C   C123      1.0  0.14654  0.56991  0.20342  1.0000
  C   C124      1.0  0.07868  0.56499  0.14588  1.0000
  C   C125      1.0  0.11369  0.62472  0.26389  1.0000
  H   H202      1.0  0.05988  0.67445  0.21501  1.0000
  H   H203      1.0  0.39835  0.84070  0.05052  1.0000
  H   H204      1.0  0.11288  0.63532  0.24176  1.0000
  H   H205      1.0  0.15238  0.57669  0.25883  1.0000
  H   H206      1.0  0.01384  0.50866  0.05842  1.0000
  H   H207      1.0  0.12128  0.56847  0.28843  1.0000
  C   C126      1.0  0.17960  0.68024  0.02435  1.0000
  H   H208      1.0  0.13233  0.64525  0.27293  1.0000
  H   H209      1.0  0.09215  0.53675  0.15133  1.0000
  H   H210      1.0  0.31423  0.70924  0.22822  1.0000
  H   H211      1.0  0.10458  0.52595  0.20514  1.0000
  H   H212      1.0  0.44587  0.94074  0.05009  1.0000
  H   H213      1.0  0.31142  0.77539  0.25385  1.0000
  N   N10       1.0  0.10631  0.54592  0.24876  1.0000
  H   H214      1.0  0.03333  0.63435  0.23165  1.0000
  H   H215      1.0  0.33973  0.95789  0.09155  1.0000
  H   H216      1.0  0.09319  0.58049  0.21247  1.0000
  H   H217      1.0  0.12922  0.61090  0.05408  1.0000
  H   H218      1.0  0.29298  0.77401  0.17804  1.0000
  H   H219      1.0  0.22150  0.81452  0.24898  1.0000
  H   H220      1.0  0.22587  0.73923  0.23120  1.0000
  C   C127      1.0  0.01568  0.64587  0.33762  1.0000
  H   H221      1.0  0.23865  0.83408  0.21391  1.0000
  C   C128      1.0  0.28436  0.77898  0.25094  1.0000
  C   C129      1.0  0.22468  0.80759  0.22580  1.0000
  C   C130      1.0  0.03824  0.65331  0.21197  1.0000
  H   H222      1.0  0.09603  0.60417  0.08234  1.0000
  C   C131      1.0  0.28844  0.71351  0.22221  1.0000
  H   H223      1.0  0.03702  0.62183  0.06964  1.0000
  H   H224      1.0  0.27146  0.69531  0.23860  1.0000
  H   H225      1.0  0.11532  0.52832  0.09010  1.0000
  C   C132      1.0  0.33154  0.95146  0.04634  1.0000
  C   C133      1.0  0.15526  0.49018  0.24636  1.0000
  C   C134      1.0  0.26400  0.75848  0.27770  1.0000
  C   C135      1.0  0.06129  0.54207  0.06041  1.0000
  C   C136      1.0  0.24167  0.76364  0.21863  1.0000
  C   C137      1.0  0.37963  0.84317  0.03531  1.0000
  H   H226      1.0  0.00401  0.53761  0.33762  1.0000
  H   H227      1.0  0.01281  0.68940  0.18354  1.0000
  C   C138      1.0  0.03064  0.53139  0.04509  1.0000
  C   C139      1.0  0.06897  0.60765  0.33867  1.0000
  H   H228      1.0  0.00114  0.68778  0.26535  1.0000
  S   S42       1.0  0.99358  0.69510  0.33819  1.0000
  H   H229      1.0  0.06404  0.67650  0.33793  1.0000
  H   H230      1.0  0.36658  0.81182  0.03459  1.0000
  C   C140      1.0  0.00791  0.68127  0.20657  1.0000
  H   H231      1.0  0.16235  0.48924  0.22289  1.0000
  H   H232      1.0  0.15080  0.53637  0.06203  1.0000
  Fe  Fe22      1.0  0.39731  0.97165  0.13323  1.0000
  S   S43       1.0  0.02944  0.69907  0.63879  1.0000
  N   N11       1.0  0.09410  0.62496  0.54435  1.0000
  H   H233      1.0  0.17163  0.65158  0.56742  1.0000
  H   H234      1.0  0.04315  0.55823  0.54441  1.0000
  Fe  Fe23      1.0  0.16360  0.53885  0.40477  1.0000
  S   S44       1.0  0.14557  0.55025  0.45190  1.0000
  H   H235      1.0  0.02127  0.68031  0.57171  1.0000
  S   S45       1.0  0.25626  0.50426  0.62354  1.0000
  H   H236      1.0  0.04242  0.57527  0.45486  1.0000
  Fe  Fe24      1.0  0.15801  0.51250  0.63491  1.0000
  S   S46       1.0  0.19136  0.56833  0.62073  1.0000
  S   S47       1.0  0.10060  0.51719  0.64082  1.0000
  Fe  Fe25      1.0  0.22146  0.52081  0.59167  1.0000
  S   S48       1.0  0.24323  0.53582  0.54604  1.0000
  Fe  Fe26      1.0  0.22227  0.54632  0.65408  1.0000
  C   C141      1.0  0.08730  0.61575  0.51441  1.0000
  H   H237      1.0  0.27995  0.48010  0.47462  1.0000
  H   H238      1.0  0.15597  0.66851  0.65766  1.0000
  C   C142      1.0  0.07399  0.66267  0.55802  1.0000
  C   C143      1.0  0.21587  0.53888  0.51998  1.0000
  C   C144      1.0  0.22889  0.55197  0.49230  1.0000
  C   C145      1.0  0.20777  0.55451  0.47099  1.0000
  C   C146      1.0  0.17346  0.54402  0.47729  1.0000
  C   C147      1.0  0.16057  0.53017  0.50482  1.0000
  C   C148      1.0  0.18166  0.52767  0.52615  1.0000
  H   H239      1.0  0.25535  0.56072  0.48743  1.0000
  H   H240      1.0  0.21786  0.56557  0.44989  1.0000
  H   H241      1.0  0.04182  0.64049  0.42176  1.0000
  H   H242      1.0  0.17151  0.51704  0.54732  1.0000
  C   C149      1.0  0.04848  0.64823  0.64032  1.0000
  C   C150      1.0  0.08321  0.64569  0.64233  1.0000
  C   C151      1.0  0.09938  0.60567  0.64284  1.0000
  C   C152      1.0  0.08090  0.56789  0.64141  1.0000
  C   C153      1.0  0.04607  0.57041  0.63978  1.0000
  C   C154      1.0  0.02991  0.61045  0.63914  1.0000
  H   H243      1.0  0.09768  0.67486  0.64308  1.0000
  H   H244      1.0  0.12614  0.60394  0.64413  1.0000
  H   H245      1.0  0.03163  0.54128  0.63861  1.0000
  H   H246      1.0  0.14715  0.61030  0.52986  1.0000
  H   H247      1.0  0.13009  0.66152  0.58626  1.0000
  H   H248      1.0  0.08678  0.69324  0.55082  1.0000
  H   H249      1.0  0.29974  0.47236  0.42486  1.0000
  H   H250      1.0  0.07347  0.66222  0.58154  1.0000
  H   H251      1.0  0.08728  0.64371  0.47250  1.0000
  H   H252      1.0  0.03511  0.69227  0.53562  1.0000
  H   H253      1.0  0.03158  0.60650  0.39483  1.0000
  S   S49       1.0  0.14512  0.58045  0.37176  1.0000
  H   H254      1.0  0.06035  0.60835  0.51353  1.0000
  H   H255      1.0  0.14685  0.60734  0.58152  1.0000
  C   C155      1.0  0.03692  0.66760  0.55215  1.0000
  H   H256      1.0  0.09200  0.59111  0.58431  1.0000
  C   C156      1.0  0.14529  0.63908  0.57135  1.0000
  S   S50       1.0  0.18693  0.49344  0.67028  1.0000
  H   H257      1.0  0.08674  0.68319  0.50028  1.0000
  H   H258      1.0  0.07355  0.57638  0.42380  1.0000
  C   C157      1.0  0.05132  0.56643  0.56512  1.0000
  H   H259      1.0  0.02441  0.63794  0.54645  1.0000
  C   C158      1.0  0.08735  0.58511  0.56212  1.0000
  H   H260      1.0  0.12521  0.65378  0.48693  1.0000
  H   H261      1.0  0.05105  0.53603  0.57728  1.0000
  H   H262      1.0  0.03273  0.58788  0.57789  1.0000
  C   C159      1.0  0.13146  0.63504  0.54266  1.0000
  H   H263      1.0  0.13769  0.66586  0.53143  1.0000
  S   S51       1.0  0.21524  0.52880  0.37919  1.0000
  C   C160      1.0  0.04586  0.57394  0.43128  1.0000
  H   H264      1.0  0.10120  0.58634  0.50590  1.0000
  H   H265      1.0  0.10525  0.55901  0.55374  1.0000
  H   H266      1.0  0.13420  0.52115  0.50965  1.0000
  H   H267      1.0  0.02807  0.65945  0.46499  1.0000
  H   H268      1.0  0.29897  0.52442  0.66773  1.0000
  C   C161      1.0  0.09725  0.65163  0.49260  1.0000
  C   C162      1.0  0.02749  0.61100  0.41835  1.0000
  H   H269      1.0  0.03794  0.54222  0.42390  1.0000
  H   H270      1.0  0.00555  0.64115  0.49728  1.0000
  H   H271      1.0  0.00310  0.61197  0.63783  1.0000
  H   H272      1.0  0.01959  0.69234  0.39722  1.0000
  H   H273      1.0  0.34380  0.52585  0.65828  1.0000
  C   C163      1.0  0.00226  0.65307  0.47584  1.0000
  Fe  Fe27      1.0  0.12643  0.52056  0.35356  1.0000
  C   C164      1.0  0.99589  0.69517  0.41257  1.0000
  H   H274      1.0  0.00162  0.70676  0.43335  1.0000
  H   H275      1.0  0.24300  0.48479  0.44245  1.0000
  S   S52       1.0  0.24307  0.59578  0.68211  1.0000
  H   H276      1.0  0.16715  0.62811  0.68120  1.0000
  H   H277      1.0  0.18800  0.67960  0.67905  1.0000
  S   S53       1.0  0.14138  0.47949  0.38834  1.0000
  C   C165      1.0  0.16339  0.66310  0.67904  1.0000
  C   C166      1.0  0.32320  0.52163  0.67645  1.0000
  Fe  Fe28      1.0  0.13173  0.68818  0.84785  1.0000
  S   S54       1.0  0.14965  0.62949  0.86794  1.0000
  S   S55       1.0  0.08089  0.69015  0.83154  1.0000
  Fe  Fe29      1.0  0.19542  0.73990  0.85795  1.0000
  S   S56       1.0  0.21798  0.68350  0.87820  1.0000
  S   S57       1.0  0.21328  0.80948  0.85833  1.0000
  Fe  Fe30      1.0  0.20000  0.64527  0.84241  1.0000
  S   S58       1.0  0.22537  0.58938  0.81710  1.0000
  Fe  Fe31      1.0  0.16526  0.67314  0.90150  1.0000
  S   S59       1.0  0.14523  0.66406  0.94846  1.0000
  S   S60       1.0  0.18125  0.70240  0.82052  1.0000
  S   S61       1.0  0.14358  0.73120  0.88305  1.0000
  C   C167      1.0  0.26876  0.79171  0.99048  1.0000
  C   C168      1.0  0.17220  0.66596  0.97493  1.0000
  C   C169      1.0  0.20620  0.65350  0.96908  1.0000
  C   C170      1.0  0.22691  0.65479  0.99074  1.0000
  H   H278      1.0  0.11505  0.73438  0.74500  1.0000
  C   C171      1.0  0.00351  0.60599  0.83043  1.0000
  C   C172      1.0  0.15892  0.67904  0.00267  1.0000
  H   H279      1.0  0.21641  0.64237  0.94795  1.0000
  H   H280      1.0  0.25322  0.64513  0.98610  1.0000
  H   H281      1.0  0.32520  0.54860  0.69145  1.0000
  H   H282      1.0  0.29275  0.78915  0.97574  1.0000
  C   C173      1.0  0.23655  0.59359  0.71964  1.0000
  C   C174      1.0  0.25032  0.62612  0.73496  1.0000
  C   C175      1.0  0.24560  0.62596  0.76487  1.0000
  C   C176      1.0  0.22823  0.59227  0.77972  1.0000
  C   C177      1.0  0.21486  0.55927  0.76443  1.0000
  C   C178      1.0  0.21834  0.56041  0.73447  1.0000
  H   H283      1.0  0.25640  0.65119  0.77647  1.0000
  H   H284      1.0  0.20152  0.53302  0.77584  1.0000
  H   H285      1.0  0.20740  0.53535  0.72292  1.0000
  H   H286      1.0  0.07030  0.67606  0.89806  1.0000
  C   C179      1.0  0.02286  0.64377  0.82937  1.0000
  C   C180      1.0  0.05766  0.64203  0.83134  1.0000
  C   C181      1.0  0.07321  0.60212  0.83310  1.0000
  C   C182      1.0  0.05415  0.56431  0.83303  1.0000
  H   H287      1.0  0.01066  0.67452  0.82780  1.0000
  H   H288      1.0  0.10006  0.60018  0.83412  1.0000
  H   H289      1.0  0.06648  0.53356  0.83419  1.0000
  C   C183      1.0  0.31644  0.82081  0.84655  1.0000
  C   C184      1.0  0.28362  0.80325  0.84862  1.0000
  C   C185      1.0  0.25520  0.82944  0.85602  1.0000
  C   C186      1.0  0.25996  0.87316  0.86164  1.0000
  C   C187      1.0  0.29278  0.89061  0.85992  1.0000
  H   H290      1.0  0.28033  0.76961  0.84411  1.0000
  H   H291      1.0  0.23809  0.89365  0.86745  1.0000
  H   H292      1.0  0.16808  0.75930  0.74430  1.0000
  C   C188      1.0  0.01914  0.56609  0.83223  1.0000
  H   H293      1.0  0.03348  0.52539  0.76875  1.0000
  H   H294      1.0  0.06902  0.68690  0.73172  1.0000
  H   H295      1.0  0.27164  0.76909  0.00805  1.0000
  C   C189      1.0  0.99484  0.56158  0.70869  1.0000
  H   H296      1.0  0.28281  0.52874  0.73063  1.0000
  C   C190      1.0  0.05998  0.64722  0.90991  1.0000
  N   N12       1.0  0.14100  0.67467  0.73250  1.0000
  H   H297      1.0  0.30690  0.47274  0.77714  1.0000
  S   S62       1.0  0.40997  0.96708  0.89219  1.0000
  C   C191      1.0  0.32666  0.91030  0.77705  1.0000
  C   C192      1.0  0.32733  0.47739  0.69013  1.0000
  H   H298      1.0  0.25807  0.49258  0.69672  1.0000
  H   H299      1.0  0.01521  0.60004  0.77202  1.0000
  H   H300      1.0  0.28514  0.85288  0.91736  1.0000
  H   H301      1.0  0.26800  0.87382  0.76231  1.0000
  H   H302      1.0  0.35331  0.91674  0.96385  1.0000
  C   C193      1.0  0.13537  0.68104  0.70200  1.0000
  H   H303      1.0  0.21072  0.74330  0.73244  1.0000
  C   C194      1.0  0.25598  0.90591  0.76224  1.0000
  C   C195      1.0  0.17572  0.68981  0.73703  1.0000
  C   C196      1.0  0.32123  0.86453  0.85212  1.0000
  H   H304      1.0  0.28146  0.85764  0.95577  1.0000
  H   H305      1.0  0.07322  0.61927  0.89881  1.0000
  H   H306      1.0  0.39346  0.91056  0.99572  1.0000
  H   H307      1.0  0.37254  0.93683  0.79211  1.0000
  H   H308      1.0  0.01113  0.67689  0.91880  1.0000
  C   C197      1.0  0.07778  0.68523  0.75284  1.0000
  H   H309      1.0  0.11132  0.66557  0.69802  1.0000
  C   C198      1.0  0.26856  0.93658  0.78407  1.0000
  H   H310      1.0  0.09134  0.53184  0.00541  1.0000
  S   S63       1.0  0.36301  0.88540  0.84751  1.0000
  H   H311      1.0  0.33830  0.80043  0.84037  1.0000
  C   C199      1.0  0.18393  0.73707  0.72965  1.0000
  H   H312      1.0  0.12087  0.70117  0.77393  1.0000
  Fe  Fe32      1.0  0.37838  0.95362  0.85738  1.0000
  H   H313      1.0  0.13209  0.71562  0.69739  1.0000
  H   H314      1.0  0.06115  0.70686  0.76744  1.0000
  H   H315      1.0  0.19571  0.66970  0.72474  1.0000
  H   H316      1.0  0.26455  0.65180  0.72364  1.0000
  H   H317      1.0  0.29602  0.92421  0.86448  1.0000
  C   C200      1.0  0.13830  0.62747  0.73913  1.0000
  H   H318      1.0  0.03425  0.61130  0.73661  1.0000
  H   H319      1.0  0.06777  0.56114  0.75975  1.0000
  H   H320      1.0  0.37598  0.93147  0.75371  1.0000
  H   H321      1.0  0.17954  0.68598  0.75961  1.0000
  H   H322      1.0  0.18150  0.74476  0.70726  1.0000
  C   C201      1.0  0.36536  0.91722  0.77442  1.0000
  H   H323      1.0  0.01714  0.64606  0.88703  1.0000
  H   H324      1.0  0.31915  0.89099  0.79661  1.0000
  N   N13       1.0  0.23754  0.78712  0.94579  1.0000
  C   C202      1.0  0.20680  0.76569  0.93670  1.0000
  C   C203      1.0  0.26831  0.76797  0.92783  1.0000
  C   C204      1.0  0.23494  0.83446  0.93974  1.0000
  C   C205      1.0  0.23695  0.77919  0.97721  1.0000
  C   C206      1.0  0.17195  0.78224  0.95114  1.0000
  C   C207      1.0  0.27546  0.72034  0.93327  1.0000
  H   H325      1.0  0.13137  0.58993  0.98995  1.0000
  C   C208      1.0  0.13906  0.56377  0.00340  1.0000
  H   H326      1.0  0.20703  0.76870  0.91329  1.0000
  H   H327      1.0  0.20688  0.73079  0.94084  1.0000
  H   H328      1.0  0.29193  0.78515  0.93052  1.0000
  H   H329      1.0  0.26614  0.77141  0.90478  1.0000
  H   H330      1.0  0.22480  0.83949  0.91923  1.0000
  H   H331      1.0  0.21646  0.85037  0.95637  1.0000
  C   C209      1.0  0.37041  0.92867  0.00463  1.0000
  H   H332      1.0  0.23106  0.74508  0.98262  1.0000
  H   H333      1.0  0.16797  0.81660  0.94676  1.0000
  H   H334      1.0  0.15175  0.76426  0.94230  1.0000
  H   H335      1.0  0.16794  0.77620  0.97439  1.0000
  H   H336      1.0  0.25558  0.69904  0.92708  1.0000
  H   H337      1.0  0.29949  0.71078  0.91984  1.0000
  H   H338      1.0  0.27880  0.71431  0.95572  1.0000
  C   C210      1.0  0.02026  0.56760  0.91379  1.0000
  H   H339      1.0  0.05242  0.53249  0.73166  1.0000
  H   H340      1.0  0.02933  0.57043  0.89058  1.0000
  H   H341      1.0  0.32280  0.88906  0.75889  1.0000
  N   N14       1.0  0.00267  0.60847  0.92510  1.0000
  H   H342      1.0  0.11737  0.62982  0.78497  1.0000
  H   H343      1.0  0.15249  0.53965  0.98855  1.0000
  H   H344      1.0  0.25092  0.96429  0.78612  1.0000
  C   C211      1.0  0.11482  0.70026  0.75171  1.0000
  H   H345      1.0  0.11499  0.61355  0.73237  1.0000
  H   H346      1.0  0.37681  0.96265  0.99947  1.0000
  H   H347      1.0  0.07386  0.65258  0.76170  1.0000
  H   H348      1.0  0.25965  0.91936  0.74045  1.0000
  H   H349      1.0  0.15964  0.60948  0.72670  1.0000
  H   H350      1.0  0.37790  0.88558  0.77571  1.0000
  C   C212      1.0  0.26788  0.86097  0.93719  1.0000
  H   H351      1.0  0.26143  0.89545  0.93554  1.0000
  H   H352      1.0  0.04344  0.56176  0.92388  1.0000
  H   H353      1.0  0.03101  0.61009  0.96074  1.0000
  H   H354      1.0  0.99801  0.64746  0.96378  1.0000
  H   H355      1.0  0.13615  0.58000  0.77282  1.0000
  H   H356      1.0  0.16269  0.62422  0.77822  1.0000
  H   H357      1.0  0.06677  0.65015  0.93170  1.0000
  H   H358      1.0  0.21557  0.79686  0.98983  1.0000
  C   C213      1.0  0.13865  0.61532  0.77060  1.0000
  H   H359      1.0  0.32455  0.51671  0.73649  1.0000
  C   C214      1.0  0.99926  0.52595  0.91664  1.0000
  H   H360      1.0  0.01056  0.53217  0.70628  1.0000
  S   S64       1.0  0.99600  0.51787  0.83338  1.0000
  C   C215      1.0  0.04438  0.54869  0.75237  1.0000
  H   H361      1.0  0.01070  0.58585  0.69585  1.0000
  H   H362      1.0  0.22830  0.90080  0.76836  1.0000
  C   C216      1.0  0.02121  0.64571  0.90973  1.0000
  C   C217      1.0  0.00446  0.61407  0.95646  1.0000
  N   N15       1.0  0.30513  0.95032  0.77763  1.0000
  C   C218      1.0  0.34260  0.91538  0.98680  1.0000
  C   C219      1.0  0.29901  0.50214  0.73648  1.0000
  H   H363      1.0  0.13267  0.68889  0.00732  1.0000
  H   H364      1.0  0.31982  0.95981  0.81955  1.0000
  H   H365      1.0  0.26400  0.92056  0.80525  1.0000
  H   H366      1.0  0.33372  0.88215  0.99128  1.0000
  C   C220      1.0  0.01998  0.58645  0.75018  1.0000
  H   H367      1.0  0.99939  0.48915  0.74132  1.0000
  H   H368      1.0  0.32094  0.93814  0.98959  1.0000
  H   H369      1.0  0.99689  0.55282  0.97945  1.0000
  H   H370      1.0  0.28321  0.52155  0.78054  1.0000
  H   H371      1.0  0.26615  0.82463  0.99956  1.0000
  H   H372      1.0  0.31227  0.94865  0.73113  1.0000
  H   H373      1.0  0.01636  0.49826  0.91045  1.0000
  C   C221      1.0  0.31318  0.97166  0.74902  1.0000
  H   H374      1.0  0.39299  0.84772  0.01351  1.0000
  H   H375      1.0  0.05876  0.59715  0.01340  1.0000
  H   H376      1.0  0.35309  0.47661  0.69673  1.0000
  C   C222      1.0  0.28717  0.49122  0.76805  1.0000
  H   H377      1.0  0.26307  0.47349  0.77169  1.0000
  H   H378      1.0  0.43313  0.95064  0.01632  1.0000
  H   H379      1.0  0.15778  0.57589  0.01667  1.0000
  C   C223      1.0  0.82438  0.30421  0.06960  1.0000
  C   C224      1.0  0.78674  0.40441  0.21566  1.0000
  H   H380      1.0  0.52911  0.00111  0.09175  1.0000
  Fe  Fe33      1.0  0.71465  0.17898  0.11442  1.0000
  S   S65       1.0  0.68208  0.23708  0.12437  1.0000
  Fe  Fe34      1.0  0.71251  0.15774  0.17785  1.0000
  S   S66       1.0  0.68073  0.21550  0.19199  1.0000
  S   S67       1.0  0.72275  0.10360  0.20699  1.0000
  Fe  Fe35      1.0  0.65111  0.19597  0.15704  1.0000
  S   S68       1.0  0.59363  0.19540  0.16324  1.0000
  Fe  Fe36      1.0  0.71539  0.25065  0.15793  1.0000
  S   S69       1.0  0.73298  0.32004  0.15983  1.0000
  S   S70       1.0  0.68126  0.13677  0.14443  1.0000
  S   S71       1.0  0.74964  0.19399  0.14646  1.0000
  H   H381      1.0  0.56932  0.18861  0.09658  1.0000
  H   H382      1.0  0.50407  0.18944  0.29230  1.0000
  C   C225      1.0  0.56356  0.12221  0.08411  1.0000
  S   S72       1.0  0.88663  0.38116  0.14877  1.0000
  C   C226      1.0  0.74809  0.31126  0.08250  1.0000
  C   C227      1.0  0.69598  0.07927  0.26072  1.0000
  H   H383      1.0  0.63247  0.06177  0.05293  1.0000
  C   C228      1.0  0.57210  0.08629  0.03665  1.0000
  C   C229      1.0  0.77619  0.33543  0.15485  1.0000
  C   C230      1.0  0.78534  0.37598  0.14348  1.0000
  C   C231      1.0  0.81927  0.38998  0.14055  1.0000
  C   C232      1.0  0.84425  0.36375  0.14943  1.0000
  C   C233      1.0  0.83518  0.32287  0.16022  1.0000
  C   C234      1.0  0.80135  0.30872  0.16287  1.0000
  H   H384      1.0  0.76600  0.39684  0.13719  1.0000
  H   H385      1.0  0.82599  0.42130  0.13193  1.0000
  H   H386      1.0  0.85432  0.30237  0.16716  1.0000
  H   H387      1.0  0.79457  0.27763  0.17193  1.0000
  C   C235      1.0  0.71418  0.10719  0.30400  1.0000
  C   C236      1.0  0.73307  0.13864  0.28772  1.0000
  C   C237      1.0  0.73365  0.14016  0.25799  1.0000
  C   C238      1.0  0.71580  0.10969  0.24433  1.0000
  H   H388      1.0  0.74828  0.16093  0.29801  1.0000
  H   H389      1.0  0.74950  0.16328  0.24548  1.0000
  C   C239      1.0  0.57158  0.14640  0.16277  1.0000
  C   C240      1.0  0.58803  0.10684  0.16356  1.0000
  C   C241      1.0  0.56974  0.06845  0.16270  1.0000
  C   C242      1.0  0.53503  0.06924  0.16044  1.0000
  C   C243      1.0  0.51854  0.10878  0.15996  1.0000
  C   C244      1.0  0.53666  0.14717  0.16140  1.0000
  H   H390      1.0  0.61482  0.10565  0.16482  1.0000
  S   S73       1.0  0.73679  0.16158  0.06905  1.0000
  H   H391      1.0  0.52364  0.17759  0.16096  1.0000
  C   C245      1.0  0.69456  0.07867  0.29047  1.0000
  H   H392      1.0  0.77948  0.37735  0.23040  1.0000
  N   N16       1.0  0.58948  0.18261  0.26121  1.0000
  C   C246      1.0  0.58895  0.13858  0.24796  1.0000
  C   C247      1.0  0.55915  0.18703  0.28404  1.0000
  C   C248      1.0  0.62122  0.18928  0.27460  1.0000
  C   C249      1.0  0.58849  0.21545  0.23814  1.0000
  C   C250      1.0  0.62099  0.12563  0.22739  1.0000
  C   C251      1.0  0.52420  0.18733  0.27356  1.0000
  H   H393      1.0  0.87269  0.42187  0.20616  1.0000
  H   H394      1.0  0.62841  0.06409  0.10661  1.0000
  H   H395      1.0  0.55838  0.16017  0.29944  1.0000
  H   H396      1.0  0.56752  0.13571  0.23537  1.0000
  N   N17       1.0  0.76539  0.97766  0.28497  1.0000
  C   C252      1.0  0.84532  0.46537  0.23893  1.0000
  C   C253      1.0  0.71237  0.17168  0.04148  1.0000
  H   H397      1.0  0.62034  0.22061  0.28596  1.0000
  H   H398      1.0  0.61180  0.21358  0.22229  1.0000
  H   H399      1.0  0.56732  0.20882  0.22574  1.0000
  H   H400      1.0  0.49469  0.12946  0.21954  1.0000
  H   H401      1.0  0.62533  0.14686  0.20861  1.0000
  H   H402      1.0  0.64407  0.12493  0.23785  1.0000
  H   H403      1.0  0.78403  0.43806  0.25586  1.0000
  H   H404      1.0  0.73913  0.01018  0.32213  1.0000
  H   H405      1.0  0.61763  0.09269  0.21927  1.0000
  H   H406      1.0  0.76077  0.34235  0.08508  1.0000
  H   H407      1.0  0.52074  0.21542  0.26006  1.0000
  H   H408      1.0  0.77562  0.27853  0.11136  1.0000
  H   H409      1.0  0.56089  0.21653  0.29710  1.0000
  H   H410      1.0  0.52533  0.03028  0.06014  1.0000
  C   C254      1.0  0.53340  0.03297  0.08151  1.0000
  C   C255      1.0  0.62814  0.15558  0.29679  1.0000
  H   H411      1.0  0.62996  0.12254  0.28810  1.0000
  C   C256      1.0  0.79219  0.25814  0.03981  1.0000
  H   H412      1.0  0.79540  0.99506  0.22779  1.0000
  H   H413      1.0  0.81338  0.23657  0.12567  1.0000
  H   H414      1.0  0.51985  0.00751  0.27434  1.0000
  H   H415      1.0  0.76141  0.46241  0.23063  1.0000
  H   H416      1.0  0.60733  0.27297  0.25839  1.0000
  C   C257      1.0  0.50753  0.05365  0.24169  1.0000
  H   H417      1.0  0.72439  0.31179  0.09798  1.0000
  N   N18       1.0  0.80227  0.26514  0.06908  1.0000
  H   H418      1.0  0.58625  0.01773  0.06920  1.0000
  H   H419      1.0  0.84716  0.39484  0.23581  1.0000
  H   H420      1.0  0.55953  0.18235  0.06082  1.0000
  H   H421      1.0  0.76725  0.40516  0.20110  1.0000
  C   C258      1.0  0.52781  0.01592  0.25178  1.0000
  S   S74       1.0  0.66505  0.99576  0.34520  1.0000
  C   C259      1.0  0.57126  0.04473  0.08023  1.0000
  H   H422      1.0  0.57638  0.04402  0.10266  1.0000
  H   H423      1.0  0.57604  0.05366  0.02700  1.0000
  H   H424      1.0  0.60160  0.17258  0.06967  1.0000
  H   H425      1.0  0.82649  0.31452  0.09186  1.0000
  H   H426      1.0  0.60877  0.15682  0.31598  1.0000
  C   C260      1.0  0.57423  0.16875  0.07686  1.0000
  C   C261      1.0  0.62000  0.08990  0.06472  1.0000
  N   N19       1.0  0.58196  0.08695  0.06628  1.0000
  C   C262      1.0  0.83318  0.22961  0.10746  1.0000
  H   H427      1.0  0.81237  0.33239  0.06079  1.0000
  H   H428      1.0  0.80040  0.19822  0.08115  1.0000
  H   H429      1.0  0.88611  0.41967  0.24013  1.0000
  H   H430      1.0  0.68230  0.05541  0.25028  1.0000
  H   H431      1.0  0.58439  0.11339  0.26461  1.0000
  H   H432      1.0  0.56161  0.26909  0.26263  1.0000
  H   H433      1.0  0.51642  0.08316  0.25153  1.0000
  H   H434      1.0  0.54455  0.09325  0.03744  1.0000
  H   H435      1.0  0.78803  0.28934  0.02956  1.0000
  C   C263      1.0  0.58541  0.26266  0.24807  1.0000
  H   H436      1.0  0.66163  0.09677  0.08926  1.0000
  H   H437      1.0  0.66873  0.19533  0.06920  1.0000
  C   C264      1.0  0.81871  0.22538  0.07906  1.0000
  H   H438      1.0  0.51965  0.15754  0.26204  1.0000
  H   H439      1.0  0.63470  0.20740  0.03001  1.0000
  H   H440      1.0  0.62362  0.12198  0.10576  1.0000
  H   H441      1.0  0.58268  0.03801  0.16340  1.0000
  H   H442      1.0  0.84482  0.19855  0.11218  1.0000
  H   H443      1.0  0.67923  0.05512  0.30271  1.0000
  H   H444      1.0  0.85339  0.25419  0.10648  1.0000
  H   H445      1.0  0.55506  0.02481  0.24953  1.0000
  H   H446      1.0  0.76740  0.24105  0.04135  1.0000
  H   H447      1.0  0.65288  0.16281  0.30400  1.0000
  H   H448      1.0  0.64405  0.19107  0.25808  1.0000
  C   C265      1.0  0.67947  0.18813  0.04746  1.0000
  H   H449      1.0  0.58503  0.28333  0.22910  1.0000
  H   H450      1.0  0.75456  0.02226  0.23128  1.0000
  H   H451      1.0  0.79713  0.03430  0.32405  1.0000
  C   C266      1.0  0.86330  0.42295  0.22927  1.0000
  S   S75       1.0  0.51288  0.02042  0.15925  1.0000
  H   H452      1.0  0.53587  0.12097  0.08302  1.0000
  H   H453      1.0  0.56496  0.11733  0.10707  1.0000
  H   H454      1.0  0.75362  0.24409  0.09076  1.0000
  C   C267      1.0  0.79040  0.00074  0.33003  1.0000
  H   H455      1.0  0.51664  0.05577  0.09491  1.0000
  H   H456      1.0  0.79234  0.05218  0.23097  1.0000
  C   C268      1.0  0.77011  0.27295  0.08944  1.0000
  C   C269      1.0  0.63359  0.09322  0.09347  1.0000
  C   C270      1.0  0.75934  0.98549  0.31673  1.0000
  C   C271      1.0  0.77705  0.01972  0.27120  1.0000
  H   H457      1.0  0.63055  0.11795  0.05233  1.0000
  H   H458      1.0  0.83833  0.46232  0.26238  1.0000
  H   H459      1.0  0.81138  0.39567  0.20334  1.0000
  H   H460      1.0  0.75998  0.04635  0.27979  1.0000
  H   H461      1.0  0.84018  0.21392  0.06341  1.0000
  H   H462      1.0  0.80251  0.02869  0.27636  1.0000
  Fe  Fe37      1.0  0.90718  0.44682  0.13459  1.0000
  S   S76       1.0  0.71812  0.10176  0.34047  1.0000
  S   S77       1.0  0.95521  0.45227  0.10371  1.0000
  H   H463      1.0  0.81267  0.97947  0.32439  1.0000
  H   H464      1.0  0.74029  0.30871  0.06104  1.0000
  H   H465      1.0  0.51675  0.05630  0.21848  1.0000
  H   H466      1.0  0.87733  0.32336  0.06268  1.0000
  C   C272      1.0  0.86036  0.30146  0.05271  1.0000
  C   C273      1.0  0.78603  0.44672  0.23294  1.0000
  C   C274      1.0  0.77990  0.02162  0.23843  1.0000
  H   H467      1.0  0.83527  0.45115  0.18331  1.0000
  H   H468      1.0  0.87224  0.26951  0.05328  1.0000
  H   H469      1.0  0.52619  0.98720  0.23808  1.0000
  H   H470      1.0  0.71365  0.99246  0.27971  1.0000
  H   H471      1.0  0.59084  0.15054  0.02182  1.0000
  C   C275      1.0  0.66014  0.19468  0.02527  1.0000
  H   H472      1.0  0.86035  0.31119  0.03022  1.0000
  H   H473      1.0  0.81564  0.19722  0.02399  1.0000
  H   H474      1.0  0.49169  0.10999  0.15895  1.0000
  H   H475      1.0  0.49876  0.14764  0.02639  1.0000
  C   C276      1.0  0.81647  0.23171  0.01814  1.0000
  Fe  Fe38      1.0  0.65929  0.02006  0.42642  1.0000
  H   H476      1.0  0.54335  0.14439  0.59956  1.0000
  S   S78       1.0  0.64138  0.06732  0.39623  1.0000
  H   H477      1.0  0.66171  0.13107  0.57846  1.0000
  C   C277      1.0  0.52584  0.10432  0.65693  1.0000
  H   H478      1.0  0.63494  0.17797  0.58437  1.0000
  Fe  Fe39      1.0  0.65790  0.01775  0.65691  1.0000
  S   S79       1.0  0.68835  0.07597  0.64322  1.0000
  N   N20       1.0  0.51587  0.07831  0.45303  1.0000
  C   C278      1.0  0.55705  0.16045  0.58046  1.0000
  S   S80       1.0  0.75640  0.01610  0.64342  1.0000
  C   C279      1.0  0.63736  0.14389  0.58978  1.0000
  C   C280      1.0  0.51859  0.11971  0.43651  1.0000
  H   H479      1.0  0.66958  0.02329  0.57099  1.0000
  Fe  Fe40      1.0  0.72004  0.03204  0.61274  1.0000
  S   S81       1.0  0.74026  0.04840  0.56709  1.0000
  C   C281      1.0  0.50655  0.08950  0.48413  1.0000
  H   H480      1.0  0.51907  0.08566  0.58510  1.0000
  C   C282      1.0  0.54237  0.06754  0.57660  1.0000
  C   C283      1.0  0.56925  0.20330  0.59158  1.0000
  C   C284      1.0  0.67055  0.03013  0.49896  1.0000
  C   C285      1.0  0.65818  0.02328  0.52781  1.0000
  C   C286      1.0  0.67948  0.02817  0.54881  1.0000
  C   C287      1.0  0.71333  0.04007  0.54110  1.0000
  C   C288      1.0  0.72589  0.04622  0.51221  1.0000
  C   C289      1.0  0.70460  0.04112  0.49115  1.0000
  Fe  Fe41      1.0  0.72119  0.05465  0.67540  1.0000
  H   H481      1.0  0.56727  0.06788  0.46223  1.0000
  H   H482      1.0  0.75204  0.05558  0.50612  1.0000
  H   H483      1.0  0.71428  0.04679  0.46900  1.0000
  C   C290      1.0  0.54120  0.14401  0.65975  1.0000
  Fe  Fe42      1.0  0.68860  0.04999  0.36656  1.0000
  C   C291      1.0  0.54429  0.06623  0.65850  1.0000
  C   C292      1.0  0.57850  0.06744  0.66230  1.0000
  C   C293      1.0  0.59404  0.10716  0.66504  1.0000
  C   C294      1.0  0.57533  0.14532  0.66401  1.0000
  H   H484      1.0  0.54796  0.17762  0.42676  1.0000
  H   H485      1.0  0.53203  0.03564  0.65654  1.0000
  H   H486      1.0  0.56518  0.17175  0.35904  1.0000
  H   H487      1.0  0.56289  0.06246  0.42565  1.0000
  H   H488      1.0  0.58441  0.19823  0.60915  1.0000
  H   H489      1.0  0.54665  0.22221  0.60085  1.0000
  S   S82       1.0  0.51845  0.19234  0.65798  1.0000
  H   H490      1.0  0.54614  0.16197  0.46302  1.0000
  Fe  Fe43      1.0  0.61892  0.01094  0.37664  1.0000
  C   C295      1.0  0.49667  0.10764  0.35758  1.0000
  S   S83       1.0  0.64190  0.02822  0.47384  1.0000
  H   H491      1.0  0.58746  0.17591  0.66621  1.0000
  H   H492      1.0  0.49954  0.10271  0.65405  1.0000
  C   C296      1.0  0.60753  0.11464  0.58442  1.0000
  H   H493      1.0  0.53382  0.03807  0.56650  1.0000
  H   H494      1.0  0.61930  0.08383  0.57601  1.0000
  H   H495      1.0  0.53376  0.99336  0.46829  1.0000
  H   H496      1.0  0.59310  0.10660  0.60553  1.0000
  H   H497      1.0  0.53736  0.16818  0.56670  1.0000
  S   S84       1.0  0.70968  0.00839  0.39896  1.0000
  H   H498      1.0  0.55571  0.05700  0.59436  1.0000
  N   N21       1.0  0.58376  0.13120  0.56482  1.0000
  C   C297      1.0  0.56557  0.09339  0.55395  1.0000
  C   C298      1.0  0.60179  0.15419  0.53911  1.0000
  C   C299      1.0  0.62847  0.12760  0.51973  1.0000
  H   H499      1.0  0.54962  0.10393  0.53778  1.0000
  H   H500      1.0  0.58400  0.06976  0.54294  1.0000
  H   H501      1.0  0.61504  0.18329  0.54494  1.0000
  H   H502      1.0  0.58307  0.16613  0.52559  1.0000
  C   C300      1.0  0.83210  0.01150  0.58307  1.0000
  H   H503      1.0  0.58299  0.22355  0.57468  1.0000
  H   H504      1.0  0.61644  0.10302  0.50754  1.0000
  H   H505      1.0  0.64297  0.14893  0.50374  1.0000
  H   H506      1.0  0.64705  0.11232  0.53181  1.0000
  H   H507      1.0  0.84153  0.02142  0.56095  1.0000
  H   H508      1.0  0.57350  0.13384  0.43496  1.0000
  H   H509      1.0  0.63192  0.01452  0.53396  1.0000
  H   H510      1.0  0.49524  0.13951  0.44172  1.0000
  H   H511      1.0  0.64000  0.14295  0.61279  1.0000
  S   S85       1.0  0.60055  0.01867  0.66406  1.0000
  C   C301      1.0  0.54842  0.14942  0.44093  1.0000
  C   C302      1.0  0.54987  0.05568  0.44759  1.0000
  H   H512      1.0  0.62037  0.10855  0.66807  1.0000
  H   H513      1.0  0.52452  0.03397  0.50615  1.0000
  H   H514      1.0  0.59292  0.10103  0.36251  1.0000
  H   H515      1.0  0.57609  0.99489  0.45022  1.0000
  H   H516      1.0  0.52650  0.10954  0.49169  1.0000
  S   S86       1.0  0.56522  0.01422  0.36621  1.0000
  C   C303      1.0  0.56609  0.10265  0.36134  1.0000
  H   H517      1.0  0.80513  0.02056  0.58887  1.0000
  C   C304      1.0  0.55038  0.14269  0.35912  1.0000
  H   H518      1.0  0.52085  0.11289  0.41333  1.0000
  H   H519      1.0  0.84643  0.03060  0.59718  1.0000
  H   H520      1.0  0.49208  0.06492  0.52672  1.0000
  S   S87       1.0  0.68704  0.97503  0.62374  1.0000
  C   C305      1.0  0.50072  0.05189  0.50502  1.0000
  C   C306      1.0  0.51558  0.14536  0.35737  1.0000
  H   H521      1.0  0.49736  0.03866  0.36055  1.0000
  S   S88       1.0  0.49671  0.19617  0.35480  1.0000
  C   C307      1.0  0.54982  0.00623  0.44937  1.0000
  H   H522      1.0  0.54167  0.99187  0.42995  1.0000
  C   C308      1.0  0.54698  0.06498  0.36210  1.0000
  H   H523      1.0  0.82033  0.98301  0.50730  1.0000
  C   C309      1.0  0.51229  0.06766  0.36003  1.0000
  H   H524      1.0  0.79707  0.99889  0.54030  1.0000
  H   H525      1.0  0.49739  0.04252  0.41931  1.0000
  H   H526      1.0  0.78393  0.00065  0.35360  1.0000
  Fe  Fe44      1.0  0.69243  0.16102  0.86349  1.0000
  S   S89       1.0  0.66834  0.21363  0.84139  1.0000
  S   S90       1.0  0.71906  0.10611  0.83785  1.0000
  Fe  Fe45      1.0  0.66340  0.19443  0.92294  1.0000
  S   S91       1.0  0.63726  0.24892  0.90403  1.0000
  S   S92       1.0  0.64643  0.18923  0.97063  1.0000
  Fe  Fe46      1.0  0.62239  0.20019  0.87315  1.0000
  S   S93       1.0  0.56957  0.19569  0.86060  1.0000
  Fe  Fe47      1.0  0.68627  0.25665  0.87445  1.0000
  S   S94       1.0  0.70577  0.32365  0.86209  1.0000
  S   S95       1.0  0.64539  0.14538  0.89370  1.0000
  S   S96       1.0  0.71361  0.20470  0.89496  1.0000
  H   H527      1.0  0.71602  0.29651  0.77758  1.0000
  C   C310      1.0  0.74715  0.34396  0.86284  1.0000
  C   C311      1.0  0.77320  0.31856  0.87072  1.0000
  C   C312      1.0  0.80623  0.33528  0.86934  1.0000
  C   C313      1.0  0.78724  0.40333  0.85318  1.0000
  C   C314      1.0  0.75429  0.38647  0.85430  1.0000
  H   H528      1.0  0.76799  0.28587  0.87744  1.0000
  H   H529      1.0  0.82640  0.31515  0.87492  1.0000
  H   H530      1.0  0.73427  0.40634  0.84816  1.0000
  C   C315      1.0  0.67342  0.18482  0.99696  1.0000
  S   S97       1.0  0.49729  0.01488  0.85755  1.0000
  H   H531      1.0  0.57918  0.10801  0.76791  1.0000
  H   H532      1.0  0.79247  0.43587  0.84613  1.0000
  Fe  Fe48      1.0  0.87335  0.46556  0.85174  1.0000
  C   C316      1.0  0.70665  0.16937  0.99083  1.0000
  C   C317      1.0  0.75688  0.39562  0.93390  1.0000
  H   H533      1.0  0.74523  0.33303  0.78869  1.0000
  H   H534      1.0  0.84287  0.24340  0.01570  1.0000
  H   H535      1.0  0.71704  0.16145  0.96909  1.0000
  C   C318      1.0  0.72908  0.10606  0.74026  1.0000
  C   C319      1.0  0.73442  0.06829  0.75479  1.0000
  C   C320      1.0  0.73106  0.06849  0.78477  1.0000
  C   C321      1.0  0.72153  0.10606  0.80035  1.0000
  C   C322      1.0  0.71493  0.14318  0.78573  1.0000
  C   C323      1.0  0.71913  0.14335  0.75584  1.0000
  H   H536      1.0  0.74227  0.03940  0.74291  1.0000
  H   H537      1.0  0.73625  0.03958  0.79591  1.0000
  H   H538      1.0  0.70768  0.17220  0.79730  1.0000
  H   H539      1.0  0.71447  0.17244  0.74471  1.0000
  H   H540      1.0  0.82514  0.36539  0.95642  1.0000
  C   C324      1.0  0.51679  0.14276  0.85302  1.0000
  C   C325      1.0  0.55028  0.14505  0.85884  1.0000
  C   C326      1.0  0.56732  0.10717  0.86373  1.0000
  C   C327      1.0  0.55089  0.06744  0.86307  1.0000
  H   H541      1.0  0.50873  0.20416  0.77994  1.0000
  H   H542      1.0  0.59319  0.10834  0.86792  1.0000
  H   H543      1.0  0.56416  0.03830  0.86709  1.0000
  H   H544      1.0  0.83754  0.30940  0.81273  1.0000
  C   C328      1.0  0.81348  0.37758  0.86031  1.0000
  N   N22       1.0  0.79165  0.24832  0.78766  1.0000
  C   C329      1.0  0.80440  0.22948  0.81348  1.0000
  C   C330      1.0  0.81656  0.28242  0.77596  1.0000
  C   C331      1.0  0.79196  0.21286  0.76588  1.0000
  C   C332      1.0  0.75617  0.26536  0.79660  1.0000
  C   C333      1.0  0.78393  0.19141  0.82778  1.0000
  C   C334      1.0  0.78047  0.22473  0.73727  1.0000
  C   C335      1.0  0.74353  0.30126  0.77827  1.0000
  H   H545      1.0  0.83125  0.21863  0.80811  1.0000
  H   H546      1.0  0.80443  0.25411  0.83052  1.0000
  H   H547      1.0  0.80968  0.29725  0.75643  1.0000
  H   H548      1.0  0.81781  0.19852  0.76103  1.0000
  H   H549      1.0  0.77511  0.18624  0.77427  1.0000
  H   H550      1.0  0.73740  0.23885  0.79782  1.0000
  H   H551      1.0  0.75389  0.27881  0.81858  1.0000
  H   H552      1.0  0.75638  0.19826  0.83233  1.0000
  H   H553      1.0  0.78821  0.16153  0.81495  1.0000
  H   H554      1.0  0.79260  0.18463  0.84856  1.0000
  H   H555      1.0  0.79653  0.24965  0.72562  1.0000
  H   H556      1.0  0.75338  0.23419  0.74006  1.0000
  H   H557      1.0  0.78261  0.19575  0.72334  1.0000
  H   H558      1.0  0.75589  0.30258  0.75594  1.0000
  N   N23       1.0  0.61608  0.06221  0.77904  1.0000
  C   C336      1.0  0.59389  0.10118  0.78562  1.0000
  C   C337      1.0  0.59469  0.02594  0.77042  1.0000
  C   C338      1.0  0.64408  0.07080  0.75490  1.0000
  H   H559      1.0  0.75150  0.15000  0.00830  1.0000
  H   H560      1.0  0.61255  0.05069  0.82448  1.0000
  H   H561      1.0  0.49824  0.07754  0.71522  1.0000
  C   C339      1.0  0.63312  0.08820  0.72722  1.0000
  C   C340      1.0  0.72605  0.16276  0.01307  1.0000
  H   H562      1.0  0.88065  0.36838  0.92358  1.0000
  N   N24       1.0  0.80952  0.43108  0.95006  1.0000
  H   H563      1.0  0.52118  0.16621  0.72674  1.0000
  C   C341      1.0  0.82278  0.44890  0.97597  1.0000
  H   H564      1.0  0.66255  0.09371  0.76171  1.0000
  H   H565      1.0  0.65893  0.04119  0.74869  1.0000
  S   S98       1.0  0.73628  0.10888  0.70283  1.0000
  C   C342      1.0  0.51826  0.06155  0.93606  1.0000
  H   H566      1.0  0.49895  0.23442  0.72894  1.0000
  C   C343      1.0  0.83019  0.39156  0.94048  1.0000
  C   C344      1.0  0.56616  0.01032  0.79355  1.0000
  H   H567      1.0  0.77170  0.39282  0.97582  1.0000
  H   H568      1.0  0.53105  0.17268  0.00230  1.0000
  H   H569      1.0  0.51715  0.10087  0.98618  1.0000
  C   C345      1.0  0.63191  0.05110  0.80515  1.0000
  H   H570      1.0  0.55774  0.13244  0.95039  1.0000
  H   H571      1.0  0.75966  0.41551  0.91444  1.0000
  H   H572      1.0  0.63437  0.98027  0.80320  1.0000
  H   H573      1.0  0.50340  0.17194  0.84932  1.0000
  H   H574      1.0  0.61734  0.06488  0.71732  1.0000
  H   H575      1.0  0.51857  0.11934  0.74673  1.0000
  H   H576      1.0  0.54891  0.18637  0.76440  1.0000
  H   H577      1.0  0.82240  0.42373  0.99261  1.0000
  H   H578      1.0  0.50272  0.19673  0.90604  1.0000
  H   H579      1.0  0.76727  0.36313  0.92847  1.0000
  C   C346      1.0  0.51722  0.06525  0.85774  1.0000
  S   S99       1.0  0.68870  0.99843  0.69103  1.0000
  C   C347      1.0  0.53941  0.15380  0.94162  1.0000
  C   C348      1.0  0.61232  0.14269  0.79244  1.0000
  H   H580      1.0  0.81457  0.44633  0.90519  1.0000
  H   H581      1.0  0.63133  0.15324  0.77447  1.0000
  S   S100      1.0  0.85586  0.39605  0.85725  1.0000
  C   C349      1.0  0.82154  0.31947  0.79658  1.0000
  H   H582      1.0  0.59341  0.16896  0.79681  1.0000
  C   C350      1.0  0.77335  0.41647  0.95815  1.0000
  H   H583      1.0  0.84203  0.26793  0.76905  1.0000
  H   H584      1.0  0.65041  0.07613  0.80953  1.0000
  H   H585      1.0  0.87628  0.42484  0.92048  1.0000
  H   H586      1.0  0.57443  0.09535  0.80439  1.0000
  H   H587      1.0  0.79717  0.33243  0.80742  1.0000
  H   H588      1.0  0.57559  0.00004  0.81332  1.0000
  H   H589      1.0  0.83516  0.34621  0.78456  1.0000
  H   H590      1.0  0.54609  0.03494  0.79878  1.0000
  H   H591      1.0  0.52365  0.15256  0.79005  1.0000
  C   C351      1.0  0.52283  0.17497  0.77205  1.0000
  H   H592      1.0  0.84970  0.45889  0.97060  1.0000
  H   H593      1.0  0.58192  0.03528  0.75198  1.0000
  H   H594      1.0  0.65622  0.09359  0.71152  1.0000
  C   C352      1.0  0.54907  0.20067  0.94771  1.0000
  H   H595      1.0  0.61990  0.11950  0.73030  1.0000
  H   H596      1.0  0.55142  0.21988  0.92785  1.0000
  H   H597      1.0  0.51089  0.03682  0.92113  1.0000
  H   H598      1.0  0.62448  0.13953  0.81195  1.0000
  H   H599      1.0  0.57478  0.20103  0.95428  1.0000
  H   H600      1.0  0.82291  0.37851  0.92034  1.0000
  C   C353      1.0  0.86900  0.39741  0.93464  1.0000
  H   H601      1.0  0.53211  0.21753  0.96461  1.0000
  C   C354      1.0  0.50853  0.15266  0.74725  1.0000
  H   H602      1.0  0.54511  0.14973  0.91811  1.0000
  H   H603      1.0  0.75628  0.44274  0.96693  1.0000
  C   C355      1.0  0.50026  0.10303  0.85260  1.0000
  H   H604      1.0  0.72926  0.39156  0.94096  1.0000
  H   H605      1.0  0.61796  0.10643  0.00808  1.0000
  H   H606      1.0  0.80776  0.23366  0.99694  1.0000
  H   H607      1.0  0.55370  0.98200  0.78529  1.0000
  H   H608      1.0  0.54540  0.06879  0.92908  1.0000
  H   H609      1.0  0.51492  0.04657  0.95737  1.0000
  C   C356      1.0  0.65139  0.00819  0.80394  1.0000
  H   H610      1.0  0.67219  0.00654  0.78578  1.0000
  H   H611      1.0  0.88018  0.40103  0.95465  1.0000
  H   H612      1.0  0.66334  0.00512  0.82364  1.0000
  H   H613      1.0  0.57927  0.11605  0.99481  1.0000
  H   H614      1.0  0.61074  0.99779  0.76273  1.0000
  C   C357      1.0  0.81364  0.46313  0.92608  1.0000
  C   C358      1.0  0.59127  0.11687  0.01451  1.0000
  N   N25       1.0  0.50342  0.14003  0.95186  1.0000
  C   C359      1.0  0.50436  0.16172  0.00475  1.0000
  H   H615      1.0  0.49762  0.10920  0.91177  1.0000
  C   C360      1.0  0.49910  0.12683  0.98273  1.0000
  C   C361      1.0  0.49540  0.10132  0.93473  1.0000
  H   H616      1.0  0.82205  0.54658  0.22765  1.0000
  H   H617      1.0  0.95191  0.72602  0.22354  1.0000
  S   S101      1.0  0.85491  0.60953  0.30047  1.0000
  S   S102      1.0  0.90320  0.71863  0.31497  1.0000
  Fe  Fe49      1.0  0.90150  0.54308  0.14176  1.0000
  S   S103      1.0  0.87367  0.59843  0.16608  1.0000
  C   C362      1.0  0.88383  0.57717  0.24908  1.0000
  C   C363      1.0  0.79668  0.52750  0.26865  1.0000
  H   H618      1.0  0.97911  0.63417  0.17183  1.0000
  S   S104      1.0  0.94739  0.55654  0.10953  1.0000
  H   H619      1.0  0.79194  0.53174  0.18010  1.0000
  H   H620      1.0  0.81408  0.90484  0.30717  1.0000
  S   S105      1.0  0.87899  0.49628  0.11295  1.0000
  H   H621      1.0  0.96668  0.66505  0.28855  1.0000
  C   C364      1.0  0.79241  0.90385  0.29480  1.0000
  C   C365      1.0  0.86608  0.61169  0.26321  1.0000
  C   C366      1.0  0.88757  0.57381  0.21925  1.0000
  C   C367      1.0  0.87280  0.60430  0.20330  1.0000
  C   C368      1.0  0.85609  0.63967  0.21737  1.0000
  C   C369      1.0  0.85285  0.64348  0.24722  1.0000
  H   H622      1.0  0.84464  0.66353  0.20523  1.0000
  H   H623      1.0  0.83848  0.66977  0.25798  1.0000
  C   C370      1.0  0.97381  0.67971  0.26727  1.0000
  H   H624      1.0  0.78485  0.55943  0.27375  1.0000
  H   H625      1.0  0.93705  0.68690  0.16671  1.0000
  C   C371      1.0  0.80335  0.52172  0.23599  1.0000
  H   H626      1.0  0.72936  0.89563  0.27935  1.0000
  H   H627      1.0  0.92117  0.68601  0.21973  1.0000
  Fe  Fe50      1.0  0.87164  0.66105  0.32918  1.0000
  H   H628      1.0  0.96392  0.56729  0.21949  1.0000
  H   H629      1.0  0.76890  0.89792  0.30951  1.0000
  H   H630      1.0  0.97687  0.55952  0.18245  1.0000
  H   H631      1.0  0.93954  0.63660  0.24999  1.0000
  C   C372      1.0  0.94561  0.71251  0.18036  1.0000
  H   H632      1.0  0.88599  0.55877  0.03563  1.0000
  S   S106      1.0  0.92658  0.49288  0.16517  1.0000
  Fe  Fe51      1.0  0.93612  0.69604  0.34680  1.0000
  H   H633      1.0  0.79083  0.93314  0.25382  1.0000
  H   H634      1.0  0.80674  0.49365  0.15317  1.0000
  H   H635      1.0  0.98152  0.61821  0.24813  1.0000
  H   H636      1.0  0.86485  0.49095  0.23559  1.0000
  H   H637      1.0  0.82065  0.52760  0.27807  1.0000
  Fe  Fe52      1.0  0.92814  0.50433  0.08328  1.0000
  H   H638      1.0  0.97008  0.72584  0.17013  1.0000
  H   H639      1.0  0.84711  0.50427  0.18874  1.0000
  H   H640      1.0  0.90083  0.54679  0.20881  1.0000
  H   H641      1.0  0.77938  0.53116  0.22814  1.0000
  C   C373      1.0  0.94724  0.69693  0.21103  1.0000
  H   H642      1.0  0.92654  0.73870  0.18119  1.0000
  H   H643      1.0  0.89382  0.55225  0.26136  1.0000
  Fe  Fe53      1.0  0.97152  0.50415  0.13168  1.0000
  C   C374      1.0  0.71476  0.92465  0.28718  1.0000
  H   H644      1.0  0.79674  0.87494  0.28097  1.0000
  H   H645      1.0  0.68978  0.92196  0.27948  1.0000
  C   C375      1.0  0.96746  0.62627  0.19386  1.0000
  H   H646      1.0  0.70931  0.92472  0.31071  1.0000
  C   C376      1.0  0.97982  0.58109  0.20060  1.0000
  C   C377      1.0  0.79753  0.49716  0.17630  1.0000
  H   H647      1.0  0.77912  0.50301  0.27914  1.0000
  C   C378      1.0  0.79231  0.94423  0.27597  1.0000
  H   H648      1.0  0.95871  0.70946  0.26707  1.0000
  S   S107      1.0  0.94203  0.49780  0.03538  1.0000
  H   H649      1.0  0.94003  0.62248  0.19249  1.0000
  N   N26       1.0  0.97302  0.66225  0.21413  1.0000
  H   H650      1.0  0.73570  0.96113  0.25150  1.0000
  C   C379      1.0  0.96643  0.64700  0.24454  1.0000
  H   H651      1.0  0.81802  0.95860  0.27521  1.0000
  H   H652      1.0  0.97208  0.60569  0.33624  1.0000
  C   C380      1.0  0.73229  0.96586  0.27498  1.0000
  N   N27       1.0  0.81490  0.47768  0.22504  1.0000
  H   H653      1.0  0.74938  0.95692  0.32879  1.0000
  C   C381      1.0  0.82542  0.48160  0.19330  1.0000
  H   H654      1.0  0.77394  0.47817  0.18098  1.0000
  C   C382      1.0  0.77973  0.87330  0.65538  1.0000
  H   H655      1.0  0.87067  0.84169  0.57664  1.0000
  C   C383      1.0  0.97306  0.57541  0.42005  1.0000
  H   H656      1.0  0.79950  0.93267  0.66933  1.0000
  H   H657      1.0  0.75936  0.87313  0.44633  1.0000
  H   H658      1.0  0.76076  0.76148  0.41596  1.0000
  C   C384      1.0  0.77610  0.81139  0.46066  1.0000
  C   C385      1.0  0.82589  0.93680  0.54061  1.0000
  H   H659      1.0  0.73095  0.91492  0.57922  1.0000
  H   H660      1.0  0.82097  0.90586  0.53011  1.0000
  Fe  Fe54      1.0  0.87570  0.67791  0.39234  1.0000
  S   S108      1.0  0.85877  0.65374  0.43712  1.0000
  S   S109      1.0  0.90836  0.73560  0.38244  1.0000
  Fe  Fe55      1.0  0.90908  0.75771  0.63656  1.0000
  S   S110      1.0  0.88108  0.70818  0.61449  1.0000
  S   S111      1.0  0.88880  0.82321  0.65221  1.0000
  Fe  Fe56      1.0  0.97477  0.70269  0.63069  1.0000
  S   S112      1.0  0.95143  0.65009  0.60796  1.0000
  Fe  Fe57      1.0  0.92954  0.70224  0.58354  1.0000
  S   S113      1.0  0.94157  0.70981  0.53562  1.0000
  Fe  Fe58      1.0  0.90601  0.66115  0.64134  1.0000
  S   S114      1.0  0.95607  0.75459  0.60433  1.0000
  S   S115      1.0  0.93080  0.71120  0.66539  1.0000
  H   H661      1.0  0.92416  0.57810  0.44906  1.0000
  H   H662      1.0  0.78223  0.95589  0.51962  1.0000
  C   C386      1.0  0.87964  0.67188  0.46533  1.0000
  C   C387      1.0  0.87238  0.65292  0.49230  1.0000
  C   C388      1.0  0.89002  0.66551  0.51470  1.0000
  C   C389      1.0  0.91511  0.69698  0.51006  1.0000
  C   C390      1.0  0.92151  0.71678  0.48336  1.0000
  C   C391      1.0  0.90368  0.70457  0.46120  1.0000
  H   H663      1.0  0.85361  0.62775  0.49572  1.0000
  H   H664      1.0  0.88504  0.64990  0.53518  1.0000
  H   H665      1.0  0.94076  0.74133  0.47969  1.0000
  H   H666      1.0  0.90906  0.72003  0.44081  1.0000
  C   C392      1.0  0.80543  0.90009  0.66238  1.0000
  C   C393      1.0  0.83878  0.88431  0.66107  1.0000
  C   C394      1.0  0.84684  0.84192  0.65238  1.0000
  C   C395      1.0  0.82130  0.81546  0.64473  1.0000
  C   C396      1.0  0.78782  0.83100  0.64650  1.0000
  H   H667      1.0  0.75915  0.87280  0.58551  1.0000
  C   C397      1.0  0.82260  0.76040  0.49450  1.0000
  H   H668      1.0  0.77295  0.73635  0.49013  1.0000
  Fe  Fe59      1.0  0.68292  0.95507  0.37920  1.0000
  S   S116      1.0  0.63384  0.96421  0.40842  1.0000
  H   H669      1.0  0.79704  0.69200  0.41854  1.0000
  H   H670      1.0  0.98026  0.56922  0.39678  1.0000
  H   H671      1.0  0.81611  0.77832  0.40749  1.0000
  H   H672      1.0  0.84865  0.76144  0.48268  1.0000
  H   H673      1.0  0.84557  0.82117  0.45612  1.0000
  C   C398      1.0  0.82274  0.77216  0.42915  1.0000
  H   H674      1.0  0.77771  0.93618  0.60785  1.0000
  C   C399      1.0  0.74497  0.86954  0.36687  1.0000
  C   C400      1.0  0.78617  0.81122  0.35675  1.0000
  Fe  Fe60      1.0  0.72137  0.96110  0.65637  1.0000
  H   H675      1.0  0.94969  0.66079  0.42511  1.0000
  C   C401      1.0  0.93389  0.57501  0.42605  1.0000
  H   H676      1.0  0.81583  0.86265  0.56917  1.0000
  H   H677      1.0  0.83477  0.95770  0.61095  1.0000
  H   H678      1.0  0.75290  0.80684  0.47651  1.0000
  N   N28       1.0  0.81860  0.93208  0.57259  1.0000
  S   S117      1.0  0.88213  0.60354  0.66510  1.0000
  H   H679      1.0  0.81494  0.79206  0.50393  1.0000
  H   H680      1.0  0.78750  0.84523  0.41974  1.0000
  H   H681      1.0  0.88164  0.89246  0.58952  1.0000
  H   H682      1.0  0.76589  0.93076  0.37582  1.0000
  C   C402      1.0  0.76419  0.74567  0.43639  1.0000
  H   H683      1.0  0.79329  0.83009  0.47230  1.0000
  H   H684      1.0  0.74371  0.82890  0.42829  1.0000
  H   H685      1.0  0.95506  0.62773  0.46745  1.0000
  C   C403      1.0  0.86719  0.87674  0.57398  1.0000
  H   H686      1.0  0.92461  0.54384  0.41881  1.0000
  H   H687      1.0  0.84783  0.83398  0.41887  1.0000
  H   H688      1.0  0.75341  0.68696  0.41423  1.0000
  H   H689      1.0  0.76585  0.67759  0.44838  1.0000
  H   H690      1.0  0.86650  0.95945  0.58048  1.0000
  C   C404      1.0  0.84840  0.80756  0.43442  1.0000
  C   C405      1.0  0.78149  0.93725  0.58413  1.0000
  C   C406      1.0  0.79726  0.74223  0.47589  1.0000
  H   H691      1.0  0.73894  0.74744  0.44996  1.0000
  C   C407      1.0  0.75756  0.90350  0.57400  1.0000
  H   H692      1.0  0.82564  0.90477  0.36834  1.0000
  C   C408      1.0  0.77144  0.89760  0.37027  1.0000
  S   S118      1.0  0.83765  0.69650  0.36374  1.0000
  C   C409      1.0  0.80522  0.88273  0.36615  1.0000
  S   S119      1.0  0.73723  0.89097  0.65774  1.0000
  H   H693      1.0  0.80753  0.71006  0.46906  1.0000
  H   H694      1.0  0.87449  0.79415  0.43017  1.0000
  H   H695      1.0  0.87830  0.88497  0.55192  1.0000
  H   H696      1.0  0.76808  0.81025  0.64082  1.0000
  H   H697      1.0  0.82387  0.73821  0.51258  1.0000
  H   H698      1.0  0.85841  0.90497  0.66707  1.0000
  C   C410      1.0  0.76625  0.84091  0.43717  1.0000
  H   H699      1.0  0.98503  0.58811  0.47147  1.0000
  N   N29       1.0  0.79090  0.76850  0.45053  1.0000
  H   H700      1.0  0.82123  0.88185  0.60338  1.0000
  H   H701      1.0  0.92236  0.60017  0.41409  1.0000
  C   C411      1.0  0.77088  0.69787  0.42909  1.0000
  H   H702      1.0  0.83671  0.74114  0.42717  1.0000
  H   H703      1.0  0.82728  0.78291  0.63777  1.0000
  C   C412      1.0  0.82902  0.88757  0.58035  1.0000
  H   H704      1.0  0.76264  0.89784  0.55072  1.0000
  H   H705      1.0  0.98158  0.54671  0.43093  1.0000
  H   H706      1.0  0.85322  0.94404  0.53390  1.0000
  C   C413      1.0  0.83886  0.96359  0.58751  1.0000
  H   H707      1.0  0.78954  0.68784  0.66801  1.0000
  C   C414      1.0  0.98230  0.61952  0.46094  1.0000
  C   C415      1.0  0.81273  0.83954  0.35924  1.0000
  S   S120      1.0  0.70237  0.88711  0.36958  1.0000
  S   S121      1.0  0.90619  0.63692  0.35911  1.0000
  H   H708      1.0  0.78368  0.75795  0.68040  1.0000
  H   H709      1.0  0.73212  0.80435  0.35774  1.0000
  H   H710      1.0  0.97185  0.53493  0.67344  1.0000
  H   H711      1.0  0.83338  0.68485  0.67419  1.0000
  C   C416      1.0  0.75248  0.82626  0.36037  1.0000
  H   H712      1.0  0.97260  0.64449  0.39219  1.0000
  C   C417      1.0  0.80488  0.97064  0.52690  1.0000
  Fe  Fe61      1.0  0.87200  0.75254  0.35203  1.0000
  C   C418      1.0  0.97564  0.65298  0.41453  1.0000
  H   H713      1.0  0.77148  0.96895  0.57916  1.0000
  C   C419      1.0  0.80703  0.67485  0.68204  1.0000
  H   H714      1.0  0.80662  0.63937  0.67985  1.0000
  H   H715      1.0  0.98051  0.72050  0.40406  1.0000
  H   H716      1.0  0.98812  0.68379  0.47889  1.0000
  H   H717      1.0  0.79161  0.77796  0.35136  1.0000
  S   S122      1.0  0.85556  0.82251  0.35358  1.0000
  N   N30       1.0  0.99009  0.61554  0.42894  1.0000
  C   C420      1.0  0.92594  0.49733  0.98153  1.0000
  Fe  Fe62      1.0  0.93886  0.51953  0.84384  1.0000
  S   S123      1.0  0.91091  0.58015  0.85680  1.0000
  H   H718      1.0  0.91695  0.49985  0.93792  1.0000
  H   H719      1.0  0.94554  0.47313  0.97735  1.0000
  S   S124      1.0  0.84088  0.52359  0.86391  1.0000
  H   H720      1.0  0.94441  0.61938  0.78461  1.0000
  Fe  Fe63      1.0  0.87440  0.55662  0.82825  1.0000
  S   S125      1.0  0.85877  0.60908  0.80005  1.0000
  Fe  Fe64      1.0  0.88078  0.54125  0.89099  1.0000
  S   S126      1.0  0.86580  0.56595  0.93605  1.0000
  C   C421      1.0  0.96748  0.61798  0.73917  1.0000
  S   S127      1.0  0.90390  0.49714  0.81354  1.0000
  H   H721      1.0  0.77141  0.67165  0.72093  1.0000
  C   C422      1.0  0.94556  0.64912  0.92871  1.0000
  C   C423      1.0  0.88526  0.54473  0.96409  1.0000
  C   C424      1.0  0.87628  0.56079  0.99187  1.0000
  C   C425      1.0  0.90980  0.51251  0.95911  1.0000
  H   H722      1.0  0.77063  0.49280  0.90909  1.0000
  H   H723      1.0  0.81995  0.82160  0.71239  1.0000
  C   C426      1.0  0.87844  0.60443  0.70263  1.0000
  C   C427      1.0  0.87298  0.56619  0.71807  1.0000
  C   C428      1.0  0.86853  0.56677  0.74807  1.0000
  C   C429      1.0  0.86861  0.60581  0.76272  1.0000
  C   C430      1.0  0.87446  0.64386  0.74726  1.0000
  C   C431      1.0  0.87984  0.64308  0.71738  1.0000
  H   H724      1.0  0.87177  0.53612  0.70679  1.0000
  H   H725      1.0  0.86365  0.53729  0.75984  1.0000
  H   H726      1.0  0.87464  0.67411  0.75848  1.0000
  H   H727      1.0  0.88367  0.67260  0.70579  1.0000
  C   C432      1.0  0.96616  0.54497  0.75834  1.0000
  C   C433      1.0  0.96373  0.55307  0.69347  1.0000
  H   H728      1.0  0.86241  0.80814  0.71627  1.0000
  H   H729      1.0  0.83937  0.75119  0.69019  1.0000
  C   C434      1.0  0.83553  0.79888  0.72292  1.0000
  C   C435      1.0  0.91765  0.51412  0.00915  1.0000
  C   C436      1.0  0.80458  0.72189  0.77290  1.0000
  H   H730      1.0  0.80853  0.51711  0.97623  1.0000
  H   H731      1.0  0.79254  0.72943  0.79496  1.0000
  H   H732      1.0  0.72223  0.74105  0.72673  1.0000
  H   H733      1.0  0.75711  0.72380  0.75710  1.0000
  H   H734      1.0  0.81433  0.66995  0.72558  1.0000
  H   H735      1.0  0.95534  0.67859  0.91747  1.0000
  H   H736      1.0  0.80688  0.68647  0.77152  1.0000
  C   C437      1.0  0.97422  0.49672  0.75321  1.0000
  C   C438      1.0  0.73608  0.74052  0.70476  1.0000
  H   H737      1.0  0.93879  0.54886  0.75631  1.0000
  H   H738      1.0  0.97318  0.48058  0.77416  1.0000
  H   H739      1.0  0.95432  0.48116  0.74253  1.0000
  C   C439      1.0  0.98323  0.58337  0.97712  1.0000
  H   H740      1.0  0.77007  0.79210  0.70971  1.0000
  H   H741      1.0  0.94294  0.61253  0.73118  1.0000
  H   H742      1.0  0.77703  0.77437  0.75703  1.0000
  H   H743      1.0  0.96693  0.60652  0.89478  1.0000
  C   C440      1.0  0.78206  0.73991  0.75174  1.0000
  H   H744      1.0  0.85722  0.58569  0.99588  1.0000
  H   H745      1.0  0.83018  0.73638  0.77033  1.0000
  C   C441      1.0  0.83081  0.75204  0.71358  1.0000
  C   C442      1.0  0.96679  0.60929  0.91826  1.0000
  H   H746      1.0  0.95181  0.58133  0.92712  1.0000
  H   H747      1.0  0.97667  0.60778  0.82934  1.0000
  H   H748      1.0  0.77735  0.48339  0.99758  1.0000
  H   H749      1.0  0.91928  0.64450  0.92390  1.0000
  N   N31       1.0  0.79546  0.73414  0.72058  1.0000
  C   C443      1.0  0.79636  0.68689  0.71366  1.0000
  H   H750      1.0  0.94366  0.65360  0.95208  1.0000
  H   H751      1.0  0.84948  0.73201  0.72291  1.0000
  H   H752      1.0  0.98061  0.65490  0.77613  1.0000
  C   C444      1.0  0.77255  0.75777  0.70322  1.0000
  H   H753      1.0  0.96803  0.55210  0.78111  1.0000
  H   H754      1.0  0.83032  0.80326  0.74632  1.0000
  H   H755      1.0  0.94080  0.66788  0.76568  1.0000
  H   H756      1.0  0.95800  0.57677  0.97116  1.0000
  C   C445      1.0  0.78598  0.49829  0.92658  1.0000
  H   H757      1.0  0.94399  0.53396  0.70655  1.0000
  C   C446      1.0  0.95817  0.64073  0.76827  1.0000
  H   H758      1.0  0.76879  0.50226  0.94678  1.0000
  S   S128      1.0  0.91184  0.48219  0.88042  1.0000
  H   H759      1.0  0.79840  0.52990  0.92220  1.0000
  H   H760      1.0  0.83854  0.47964  0.92494  1.0000
  H   H761      1.0  0.73548  0.70777  0.69566  1.0000
  H   H762      1.0  0.81637  0.49688  0.00949  1.0000
  H   H763      1.0  0.98148  0.64151  0.72424  1.0000
  H   H764      1.0  0.72180  0.76157  0.69177  1.0000
  N   N32       1.0  0.98712  0.57648  0.73925  1.0000
  C   C447      1.0  0.80465  0.48869  0.99025  1.0000
  C   C448      1.0  0.89237  0.54546  0.01442  1.0000
  H   H765      1.0  0.95247  0.58353  0.68716  1.0000
  H   H766      1.0  0.97762  0.59881  0.99845  1.0000
  H   H767      1.0  0.98659  0.52025  0.93853  1.0000
  H   H768      1.0  0.98015  0.52577  0.90170  1.0000
