data_image0
_chemical_formula_structural       FeSHFeS2FeHFeS3H2FeSH2FeS2H4C3SHC6H4C6H2CHCHSCH6C2HCH7NHCHCHCH4C2H2SCH2SH3CFeHC3HNH3CH2CH6FeCHNH2CH4C2H5CHCHCHCHSC2H3CH4C2H3SHCHC2H3CHC2HCHFeSFe2SCFeSFeS2HCH2C2H2C2H3CSH2S2H2C3H8C2HCH3SH2CHSH2FeSHCH4FeS2FeSHFeSFeS3FeS2H2FeCFeCS2CHC3H4C2SCHCHC6H4C2H3CSH4NCHCH3NHC2H2CHCH4C2H4CHC2HCH4CH2CHCHCH10CNCH4SCH2C2H3CH2CH3CH5CH2CHFeHSFeS2FeH3S2H4CH2CH2FeH2CHCH3CHCH2SCH4C6H4CHSH6C4H2CHC2NCH5NHCHC4H2C3HC2NH4CH5CHCHC2H2C3NC2H5SH2SH2CH2CH2CFeS2HFeSFeHSHFeSFeSFeSFeHSC2FeHSNSC3H2CHC2H2CHCH2C2HFeHC6H5C3H2SCHFeHCH3CHCHCSHC2H4CH3SH5S3HCHCHSCH4CHCHCHC3SH2NH4CH2SHNH2NC8H5CH3C3H2C3HFeCH7SCH2SCFeS2CSHFeSFeS2FeHSHCH2CH6C6H4C5H3FeH4CNHNHC2SH2C2H2CH2CH2CHC3HCHCHSH3CHCHNC8H15SH4NC2H2CH2FeC2H2C2H6CH3SH6C2HCH2CH2SHFe2HC3HCH2FeCH2C5SC3H3CHNC4HC3H2CH8SC3H3SHCHNHSHNHCH2C3HC3HSHCH4CH7C2H2SH10CHCHFeCH2NCH3CSCH2SH2SCFeS2Fe2S2CHC6H4NC2NH2CHSFeHC4HC3H2C2H3CFeHC3HCSH2SHNCFeH3CHC2H2FeCHCH4CHFeH3CH6CH5SHCHSFeSCH3C2H2CHFeSCH2CHCH2C2HS2HCH5SHSH2CHS2H2CSHNHCHC4SCH4C5H3CH2FeCH2CH2SC2H3CHCHCHCH2CH2CH3CNH2C2FeNC2HCH4C2HCSH3C2H2CH7CH5CH2CSFeSH6CSH2CHSHCHC2H3CH2CH2CSCH2CH2CH2C4H8NC2H2NH3SH2CH3C2H4CH5C2H2FeHSC2HCSCH3CH3CFeH3CFeH2CSH5CH2CHNCHFeH2S2HSCHSCHCH4C2H2CH7C2H2C3H2FeCH2CH2CH4CH2SCH5C3NH2SHCH2CH2C2SH
_chemical_formula_sum              "Fe64 S128 H768 C448 N32"
_cell_length_a       26.4145
_cell_length_b       36.84
_cell_length_c       47.1597
_cell_angle_alpha    91.9816
_cell_angle_beta     78.5546
_cell_angle_gamma    83.9422

_space_group_name_H-M_alt    "P 1"
_space_group_IT_number       1

loop_
  _space_group_symop_operation_xyz
  'x, y, z'

loop_
  _atom_site_type_symbol
  _atom_site_label
  _atom_site_symmetry_multiplicity
  _atom_site_fract_x
  _atom_site_fract_y
  _atom_site_fract_z
  _atom_site_occupancy
  Fe  Fe1       1.0  0.33540  0.07076  0.17534  1.0000
  S   S1        1.0  0.41626  0.08484  0.15901  1.0000
  H   H1        1.0  0.22495  0.24197  0.05991  1.0000
  Fe  Fe2       1.0  0.28742  0.15009  0.18038  1.0000
  S   S2        1.0  0.36438  0.17058  0.16472  1.0000
  S   S3        1.0  0.21098  0.18577  0.19199  1.0000
  Fe  Fe3       1.0  0.37822  0.12351  0.13152  1.0000
  H   H2        1.0  0.46334  0.25706  0.33991  1.0000
  Fe  Fe4       1.0  0.39391  0.13009  0.19372  1.0000
  S   S4        1.0  0.44185  0.14526  0.22568  1.0000
  S   S5        1.0  0.29885  0.10580  0.14521  1.0000
  S   S6        1.0  0.31565  0.11323  0.21199  1.0000
  H   H3        1.0  0.15209  0.46841  0.02828  1.0000
  H   H4        1.0  0.36226  0.23875  0.07757  1.0000
  Fe  Fe5       1.0  0.12380  0.43850  0.13454  1.0000
  S   S7        1.0  0.43608  0.02979  0.32188  1.0000
  H   H5        1.0  0.29585  0.03582  0.09945  1.0000
  H   H6        1.0  0.35812  0.15435  0.29848  1.0000
  Fe  Fe6       1.0  0.16003  0.39079  0.17965  1.0000
  S   S8        1.0  0.23018  0.35459  0.18632  1.0000
  S   S9        1.0  0.18075  0.44475  0.16344  1.0000
  H   H7        1.0  0.33451  0.48940  0.25009  1.0000
  H   H8        1.0  0.41409  0.07133  0.22720  1.0000
  H   H9        1.0  0.47298  0.14668  0.28065  1.0000
  H   H10       1.0  0.39642  0.23293  0.25379  1.0000
  C   C1        1.0  0.10421  0.44465  0.06363  1.0000
  C   C2        1.0  0.05851  0.42848  0.07245  1.0000
  C   C3        1.0  0.35366  0.23045  0.10022  1.0000
  S   S10       1.0  0.41457  0.13254  0.08513  1.0000
  H   H11       1.0  0.24847  0.26820  0.13649  1.0000
  C   C4        1.0  0.21535  0.23296  0.19263  1.0000
  C   C5        1.0  0.17163  0.25727  0.19094  1.0000
  C   C6        1.0  0.17539  0.29495  0.18962  1.0000
  C   C7        1.0  0.22281  0.30827  0.19029  1.0000
  C   C8        1.0  0.26601  0.28408  0.19292  1.0000
  C   C9        1.0  0.26231  0.24648  0.19405  1.0000
  H   H12       1.0  0.13508  0.24691  0.19012  1.0000
  H   H13       1.0  0.14184  0.31360  0.18777  1.0000
  H   H14       1.0  0.30265  0.29440  0.19358  1.0000
  H   H15       1.0  0.29571  0.22809  0.19621  1.0000
  C   C10       1.0  0.44365  0.11206  0.25141  1.0000
  C   C11       1.0  0.45949  0.12049  0.27726  1.0000
  C   C12       1.0  0.45673  0.09540  0.29909  1.0000
  C   C13       1.0  0.43990  0.06128  0.29467  1.0000
  C   C14       1.0  0.37475  0.22109  0.27329  1.0000
  C   C15       1.0  0.42635  0.07804  0.24712  1.0000
  H   H16       1.0  0.22435  0.49727  0.25403  1.0000
  H   H17       1.0  0.41914  0.45003  0.19347  1.0000
  C   C16       1.0  0.31486  0.20314  0.33900  1.0000
  H   H18       1.0  0.41009  0.04717  0.03743  1.0000
  C   C17       1.0  0.38153  0.12237  0.05742  1.0000
  H   H19       1.0  0.20149  0.21428  0.13413  1.0000
  S   S11       1.0  0.05773  0.46865  0.16697  1.0000
  C   C18       1.0  0.19780  0.29385  0.11071  1.0000
  H   H20       1.0  0.48005  0.04615  0.05965  1.0000
  H   H21       1.0  0.27267  0.01371  0.28197  1.0000
  H   H22       1.0  0.36786  0.24252  0.29116  1.0000
  H   H23       1.0  0.04329  0.34621  0.02682  1.0000
  H   H24       1.0  0.22696  0.49369  0.20841  1.0000
  H   H25       1.0  0.35203  0.25441  0.11545  1.0000
  C   C19       1.0  0.28652  0.02501  0.33876  1.0000
  C   C20       1.0  0.30828  0.50550  0.23813  1.0000
  H   H26       1.0  0.26831  0.11031  0.29362  1.0000
  C   C21       1.0  0.29279  0.20241  0.04623  1.0000
  H   H27       1.0  0.46796  0.34919  0.27542  1.0000
  H   H28       1.0  0.19818  0.23585  0.29262  1.0000
  H   H29       1.0  0.20008  0.32219  0.11889  1.0000
  H   H30       1.0  0.40051  0.19730  0.27786  1.0000
  H   H31       1.0  0.17042  0.20790  0.26933  1.0000
  H   H32       1.0  0.27931  0.07955  0.04508  1.0000
  H   H33       1.0  0.26756  0.48486  0.17419  1.0000
  N   N1        1.0  0.29196  0.18848  0.28872  1.0000
  H   H34       1.0  0.33441  0.20624  0.03879  1.0000
  C   C22       1.0  0.32309  0.21075  0.26680  1.0000
  H   H35       1.0  0.23894  0.20110  0.33033  1.0000
  C   C23       1.0  0.48518  0.02946  0.07810  1.0000
  H   H36       1.0  0.28572  0.25895  0.05953  1.0000
  C   C24       1.0  0.24816  0.26981  0.11305  1.0000
  H   H37       1.0  0.00173  0.50485  0.23610  1.0000
  H   H38       1.0  0.11917  0.37084  0.02862  1.0000
  H   H39       1.0  0.28057  0.28591  0.10426  1.0000
  H   H40       1.0  0.20817  0.17009  0.07658  1.0000
  C   C25       1.0  0.21020  0.17287  0.09980  1.0000
  C   C26       1.0  0.35863  0.49427  0.18831  1.0000
  H   H41       1.0  0.13731  0.45192  0.25774  1.0000
  H   H42       1.0  0.34618  0.43479  0.22013  1.0000
  S   S12       1.0  0.09559  0.41504  0.21581  1.0000
  C   C27       1.0  0.27662  0.20874  0.31814  1.0000
  H   H43       1.0  0.41167  0.02635  0.26524  1.0000
  H   H44       1.0  0.22832  0.43824  0.22277  1.0000
  S   S13       1.0  0.10783  0.38248  0.14830  1.0000
  H   H45       1.0  0.31300  0.18376  0.09699  1.0000
  H   H46       1.0  0.19416  0.37786  0.04353  1.0000
  H   H47       1.0  0.26944  0.23871  0.31571  1.0000
  C   C28       1.0  0.26521  0.43092  0.23012  1.0000
  Fe  Fe7       1.0  0.04504  0.41299  0.18294  1.0000
  H   H48       1.0  0.24385  0.15515  0.10435  1.0000
  C   C29       1.0  0.20766  0.21631  0.27341  1.0000
  C   C30       1.0  0.37750  0.01451  0.08807  1.0000
  C   C31       1.0  0.12418  0.46949  0.30288  1.0000
  H   H49       1.0  0.13326  0.44229  0.30981  1.0000
  N   N2        1.0  0.25644  0.23191  0.09835  1.0000
  H   H50       1.0  0.26128  0.43924  0.25333  1.0000
  H   H51       1.0  0.32001  0.09899  0.08508  1.0000
  H   H52       1.0  0.04907  0.41919  0.09419  1.0000
  C   C32       1.0  0.46953  0.33110  0.35584  1.0000
  H   H53       1.0  0.29482  0.20804  0.13082  1.0000
  H   H54       1.0  0.21822  0.16582  0.29336  1.0000
  C   C33       1.0  0.12601  0.47488  0.27335  1.0000
  H   H55       1.0  0.30060  0.23726  0.26429  1.0000
  H   H56       1.0  0.16319  0.28453  0.12474  1.0000
  H   H57       1.0  0.31760  0.43181  0.18904  1.0000
  H   H58       1.0  0.25582  0.04867  0.34173  1.0000
  H   H59       1.0  0.17499  0.16213  0.11204  1.0000
  H   H60       1.0  0.01254  0.49218  0.28242  1.0000
  Fe  Fe8       1.0  0.11301  0.46866  0.19766  1.0000
  C   C34       1.0  0.30330  0.21184  0.10706  1.0000
  H   H61       1.0  0.30628  0.02815  0.35728  1.0000
  N   N3        1.0  0.30987  0.48653  0.20898  1.0000
  H   H62       1.0  0.33802  0.13966  0.26705  1.0000
  H   H63       1.0  0.31379  0.02841  0.31827  1.0000
  C   C35       1.0  0.29350  0.12284  0.30655  1.0000
  H   H64       1.0  0.25846  0.50833  0.28129  1.0000
  H   H65       1.0  0.30135  0.22252  0.35827  1.0000
  H   H66       1.0  0.25321  0.16527  0.25699  1.0000
  H   H67       1.0  0.26965  0.13417  0.32765  1.0000
  C   C36       1.0  0.20909  0.21316  0.10999  1.0000
  C   C37       1.0  0.32293  0.15181  0.28944  1.0000
  H   H68       1.0  0.17370  0.22745  0.10413  1.0000
  H   H69       1.0  0.41307  0.48953  0.21868  1.0000
  H   H70       1.0  0.22459  0.23029  0.25392  1.0000
  H   H71       1.0  0.35502  0.20814  0.32943  1.0000
  H   H72       1.0  0.19227  0.29518  0.08808  1.0000
  C   C38       1.0  0.24329  0.18189  0.27795  1.0000
  H   H73       1.0  0.33203  0.19607  0.24495  1.0000
  C   C39       1.0  0.33629  0.10508  0.06325  1.0000
  H   H74       1.0  0.44872  0.30197  0.30603  1.0000
  C   C40       1.0  0.42503  0.05255  0.26861  1.0000
  H   H75       1.0  0.32214  0.10041  0.31084  1.0000
  C   C41       1.0  0.31325  0.09410  0.04051  1.0000
  H   H76       1.0  0.38697  0.21094  0.10323  1.0000
  S   S14       1.0  0.14689  0.45069  0.08731  1.0000
  C   C42       1.0  0.31221  0.44560  0.21106  1.0000
  C   C43       1.0  0.26337  0.23550  0.06602  1.0000
  H   H77       1.0  0.46833  0.10226  0.31918  1.0000
  H   H78       1.0  0.27178  0.40056  0.22861  1.0000
  H   H79       1.0  0.28993  0.17562  0.05568  1.0000
  C   C44       1.0  0.02497  0.42446  0.05310  1.0000
  H   H80       1.0  0.38609  0.04262  0.08307  1.0000
  H   H81       1.0  0.31589  0.17536  0.34731  1.0000
  H   H82       1.0  0.01651  0.45021  0.31837  1.0000
  H   H83       1.0  0.46300  0.04396  0.09855  1.0000
  C   C45       1.0  0.10986  0.49898  0.32354  1.0000
  C   C46       1.0  0.11666  0.45598  0.03522  1.0000
  H   H84       1.0  0.45049  0.34862  0.34142  1.0000
  H   H85       1.0  0.21876  0.33107  0.03770  1.0000
  H   H86       1.0  0.00532  0.49822  0.11988  1.0000
  S   S15       1.0  0.31268  0.01466  0.18417  1.0000
  H   H87       1.0  0.13421  0.32473  0.03677  1.0000
  C   C47       1.0  0.41087  0.48023  0.19639  1.0000
  H   H88       1.0  0.31473  0.01600  0.06332  1.0000
  C   C48       1.0  0.11464  0.50996  0.26414  1.0000
  C   C49       1.0  0.40200  0.13037  0.02882  1.0000
  H   H89       1.0  0.48519  0.22294  0.29101  1.0000
  H   H90       1.0  0.49377  0.27893  0.27712  1.0000
  H   H91       1.0  0.49270  0.19508  0.32034  1.0000
  C   C50       1.0  0.49074  0.29922  0.29557  1.0000
  H   H92       1.0  0.35955  0.48257  0.16605  1.0000
  C   C51       1.0  0.20053  0.35423  0.02737  1.0000
  C   C52       1.0  0.32039  0.01280  0.08579  1.0000
  H   H93       1.0  0.44294  0.49140  0.18151  1.0000
  C   C53       1.0  0.26450  0.49981  0.19553  1.0000
  H   H94       1.0  0.37943  0.01269  0.11140  1.0000
  Fe  Fe9       1.0  0.43822  0.10528  0.62396  1.0000
  S   S16       1.0  0.41970  0.07794  0.66598  1.0000
  Fe  Fe10      1.0  0.43089  0.13143  0.68673  1.0000
  Fe  Fe11      1.0  0.43743  0.07039  0.42737  1.0000
  S   S17       1.0  0.37069  0.11474  0.43892  1.0000
  C   C54       1.0  0.45912  0.06599  0.49638  1.0000
  Fe  Fe12      1.0  0.32919  0.07853  0.41435  1.0000
  S   S18       1.0  0.24482  0.07056  0.42894  1.0000
  Fe  Fe13      1.0  0.40387  0.13586  0.39597  1.0000
  S   S19       1.0  0.40784  0.19664  0.39249  1.0000
  S   S20       1.0  0.39334  0.03230  0.40610  1.0000
  H   H95       1.0  0.32681  0.03365  0.49661  1.0000
  C   C55       1.0  0.43246  0.18407  0.46903  1.0000
  H   H96       1.0  0.31337  0.04585  0.68727  1.0000
  H   H97       1.0  0.99959  0.43788  0.58136  1.0000
  C   C56       1.0  0.38477  0.08831  0.53423  1.0000
  C   C57       1.0  0.24127  0.08009  0.51023  1.0000
  H   H98       1.0  0.27267  0.08427  0.49156  1.0000
  H   H99       1.0  0.18229  0.04485  0.52263  1.0000
  C   C58       1.0  0.41614  0.08639  0.55495  1.0000
  C   C59       1.0  0.22696  0.02635  0.42428  1.0000
  H   H100      1.0  0.35465  0.01662  0.58801  1.0000
  H   H101      1.0  0.47406  0.34932  0.37425  1.0000
  H   H102      1.0  0.38187  0.08024  0.48924  1.0000
  C   C60       1.0  0.46752  0.24945  0.40452  1.0000
  S   S21       1.0  0.38738  0.09895  0.59129  1.0000
  H   H103      1.0  0.20879  0.04223  0.48500  1.0000
  H   H104      1.0  0.35752  0.02852  0.62440  1.0000
  S   S22       1.0  0.44146  0.16030  0.64510  1.0000
  S   S23       1.0  0.35460  0.10463  0.37254  1.0000
  H   H105      1.0  0.40487  0.20366  0.46056  1.0000
  H   H106      1.0  0.49575  0.21505  0.45578  1.0000
  C   C61       1.0  0.40629  0.07843  0.50501  1.0000
  C   C62       1.0  0.48635  0.16811  0.51780  1.0000
  C   C63       1.0  0.46670  0.21244  0.39678  1.0000
  H   H107      1.0  0.14550  0.04554  0.43004  1.0000
  H   H108      1.0  0.20970  0.10267  0.51057  1.0000
  H   H109      1.0  0.40972  0.17215  0.48807  1.0000
  H   H110      1.0  0.34382  0.09795  0.54077  1.0000
  H   H111      1.0  0.44767  0.16255  0.45150  1.0000
  H   H112      1.0  0.43166  0.26771  0.40894  1.0000
  H   H113      1.0  0.25524  0.08283  0.53078  1.0000
  H   H114      1.0  0.49356  0.07235  0.56220  1.0000
  C   C64       1.0  0.21971  0.04321  0.50662  1.0000
  C   C65       1.0  0.46909  0.07400  0.54638  1.0000
  H   H115      1.0  0.45326  0.18846  0.52860  1.0000
  C   C66       1.0  0.17442  0.02185  0.42637  1.0000
  H   H116      1.0  0.22531  0.02102  0.55586  1.0000
  H   H117      1.0  0.29989  0.01807  0.46761  1.0000
  H   H118      1.0  0.03433  0.45191  0.62383  1.0000
  S   S24       1.0  0.47323  0.09339  0.38544  1.0000
  H   H119      1.0  0.29183  0.02762  0.54453  1.0000
  H   H120      1.0  0.45795  0.22921  0.49066  1.0000
  C   C67       1.0  0.47655  0.20457  0.47653  1.0000
  H   H121      1.0  0.48659  0.28793  0.58783  1.0000
  S   S25       1.0  0.10663  0.49115  0.36056  1.0000
  H   H122      1.0  0.46829  0.14336  0.51269  1.0000
  H   H123      1.0  0.44401  0.02251  0.59289  1.0000
  Fe  Fe14      1.0  0.42133  0.06030  0.36540  1.0000
  S   S26       1.0  0.48681  0.05375  0.45981  1.0000
  H   H124      1.0  0.48056  0.37147  0.63674  1.0000
  C   C68       1.0  0.49042  0.06347  0.51717  1.0000
  H   H125      1.0  0.49142  0.14588  0.55941  1.0000
  H   H126      1.0  0.12724  0.50575  0.53371  1.0000
  H   H127      1.0  0.06998  0.50654  0.49775  1.0000
  H   H128      1.0  0.44378  0.31070  0.36497  1.0000
  Fe  Fe15      1.0  0.31115  0.10777  0.94089  1.0000
  S   S27       1.0  0.23452  0.10509  0.92779  1.0000
  S   S28       1.0  0.30886  0.08201  0.98393  1.0000
  Fe  Fe16      1.0  0.35584  0.14087  0.88395  1.0000
  S   S29       1.0  0.28129  0.14201  0.86800  1.0000
  H   H129      1.0  0.31575  0.02268  0.94157  1.0000
  Fe  Fe17      1.0  0.24371  0.16169  0.91348  1.0000
  S   S30       1.0  0.17206  0.20197  0.92630  1.0000
  Fe  Fe18      1.0  0.28022  0.08568  0.88382  1.0000
  S   S31       1.0  0.26066  0.03966  0.85670  1.0000
  S   S32       1.0  0.31829  0.16588  0.92874  1.0000
  S   S33       1.0  0.35643  0.08312  0.89795  1.0000
  Fe  Fe19      1.0  0.09685  0.39584  0.90171  1.0000
  S   S34       1.0  0.09154  0.45101  0.92459  1.0000
  S   S35       1.0  0.17585  0.36353  0.88764  1.0000
  H   H130      1.0  0.14832  0.35105  0.81220  1.0000
  H   H131      1.0  0.20722  0.47154  0.86387  1.0000
  Fe  Fe20      1.0  0.03903  0.46881  0.89401  1.0000
  C   C69       1.0  0.42535  0.02254  0.02322  1.0000
  Fe  Fe21      1.0  0.02005  0.43436  0.95345  1.0000
  C   C70       1.0  0.04499  0.33350  0.00496  1.0000
  S   S36       1.0  0.04929  0.41454  0.86949  1.0000
  S   S37       1.0  0.02914  0.37803  0.93242  1.0000
  C   C71       1.0  0.38828  0.15471  0.76025  1.0000
  H   H132      1.0  0.13205  0.35576  0.95094  1.0000
  C   C72       1.0  0.05543  0.48414  0.81584  1.0000
  C   C73       1.0  0.07166  0.48051  0.78556  1.0000
  C   C74       1.0  0.37825  0.12008  0.00605  1.0000
  H   H133      1.0  0.28000  0.43679  0.77464  1.0000
  H   H134      1.0  0.37149  0.04321  0.84456  1.0000
  H   H135      1.0  0.03960  0.46180  0.82725  1.0000
  H   H136      1.0  0.06971  0.45493  0.77406  1.0000
  C   C75       1.0  0.44453  0.13365  0.79284  1.0000
  C   C76       1.0  0.43329  0.13406  0.76487  1.0000
  S   S38       1.0  0.42519  0.15412  0.85110  1.0000
  C   C77       1.0  0.34262  0.06304  0.78055  1.0000
  H   H137      1.0  0.43698  0.14383  0.02417  1.0000
  C   C78       1.0  0.41056  0.15353  0.81623  1.0000
  H   H138      1.0  0.39611  0.24400  0.75287  1.0000
  C   C79       1.0  0.17468  0.24480  0.91148  1.0000
  C   C80       1.0  0.12800  0.26688  0.91219  1.0000
  C   C81       1.0  0.12846  0.30264  0.90319  1.0000
  C   C82       1.0  0.17555  0.31694  0.89425  1.0000
  C   C83       1.0  0.22250  0.29445  0.89242  1.0000
  C   C84       1.0  0.22210  0.25820  0.90089  1.0000
  H   H139      1.0  0.09131  0.25631  0.91984  1.0000
  H   H140      1.0  0.09225  0.31906  0.90324  1.0000
  H   H141      1.0  0.25911  0.30530  0.88528  1.0000
  H   H142      1.0  0.25829  0.24109  0.90021  1.0000
  C   C85       1.0  0.36556  0.17387  0.81149  1.0000
  C   C86       1.0  0.35436  0.17431  0.78366  1.0000
  H   H143      1.0  0.33975  0.18994  0.82924  1.0000
  H   H144      1.0  0.31950  0.19028  0.78025  1.0000
  H   H145      1.0  0.45936  0.11845  0.74700  1.0000
  C   C87       1.0  0.24129  0.10728  0.79885  1.0000
  S   S39       1.0  0.37285  0.15696  0.72572  1.0000
  H   H146      1.0  0.20825  0.47033  0.75794  1.0000
  H   H147      1.0  0.21710  0.08727  0.81020  1.0000
  H   H148      1.0  0.23609  0.48167  0.81183  1.0000
  H   H149      1.0  0.01511  0.31413  0.00721  1.0000
  N   N4        1.0  0.21684  0.42589  0.80900  1.0000
  C   C88       1.0  0.20188  0.46610  0.81767  1.0000
  H   H150      1.0  0.16315  0.50534  0.85280  1.0000
  C   C89       1.0  0.25469  0.41131  0.82715  1.0000
  H   H151      1.0  0.03331  0.35456  0.99061  1.0000
  H   H152      1.0  0.28818  0.42781  0.82476  1.0000
  H   H153      1.0  0.21540  0.13318  0.79925  1.0000
  N   N5        1.0  0.30195  0.05939  0.76247  1.0000
  H   H154      1.0  0.24227  0.25867  0.98126  1.0000
  C   C90       1.0  0.32709  0.05521  0.73072  1.0000
  C   C91       1.0  0.33448  0.10119  0.01185  1.0000
  H   H155      1.0  0.32690  0.05812  0.80353  1.0000
  H   H156      1.0  0.22882  0.32124  0.97422  1.0000
  C   C92       1.0  0.39512  0.03884  0.77122  1.0000
  H   H157      1.0  0.23615  0.41376  0.85057  1.0000
  C   C93       1.0  0.17800  0.47579  0.85001  1.0000
  H   H158      1.0  0.18554  0.40511  0.98713  1.0000
  H   H159      1.0  0.23225  0.09245  0.75610  1.0000
  H   H160      1.0  0.23423  0.02993  0.76324  1.0000
  H   H161      1.0  0.40442  0.02494  0.00499  1.0000
  C   C94       1.0  0.42578  0.25097  0.76528  1.0000
  C   C95       1.0  0.36461  0.01485  0.84377  1.0000
  H   H162      1.0  0.28587  0.11753  0.75719  1.0000
  H   H163      1.0  0.29812  0.36422  0.79868  1.0000
  H   H164      1.0  0.17163  0.43137  0.75995  1.0000
  H   H165      1.0  0.23075  0.43123  0.73376  1.0000
  C   C96       1.0  0.21121  0.44001  0.75642  1.0000
  H   H166      1.0  0.14812  0.37364  0.77969  1.0000
  C   C97       1.0  0.26552  0.09456  0.76704  1.0000
  C   C98       1.0  0.27718  0.37084  0.82132  1.0000
  H   H167      1.0  0.22851  0.36169  0.00843  1.0000
  C   C99       1.0  0.16832  0.40675  0.81464  1.0000
  H   H168      1.0  0.34844  0.07921  0.72450  1.0000
  H   H169      1.0  0.39508  0.12533  0.98393  1.0000
  H   H170      1.0  0.24672  0.35245  0.82777  1.0000
  H   H171      1.0  0.15716  0.40188  0.83805  1.0000
  C   C100      1.0  0.09869  0.31232  0.99190  1.0000
  H   H172      1.0  0.41801  0.04759  0.75073  1.0000
  H   H173      1.0  0.10272  0.38405  0.98233  1.0000
  C   C101      1.0  0.18235  0.38990  0.96700  1.0000
  H   H174      1.0  0.17297  0.41087  0.95191  1.0000
  C   C102      1.0  0.16967  0.36987  0.79755  1.0000
  H   H175      1.0  0.42863  0.28065  0.76356  1.0000
  C   C103      1.0  0.27035  0.02860  0.77215  1.0000
  H   H176      1.0  0.26351  0.07647  0.70947  1.0000
  H   H177      1.0  0.27121  0.11331  0.81123  1.0000
  H   H178      1.0  0.20010  0.01406  0.93829  1.0000
  H   H179      1.0  0.17257  0.47823  0.80564  1.0000
  H   H180      1.0  0.17571  0.25190  0.98511  1.0000
  H   H181      1.0  0.35276  0.09152  0.78101  1.0000
  H   H182      1.0  0.09714  0.30145  0.96974  1.0000
  H   H183      1.0  0.30593  0.36468  0.83530  1.0000
  H   H184      1.0  0.20862  0.35528  0.78888  1.0000
  H   H185      1.0  0.25715  0.39458  0.76930  1.0000
  C   C104      1.0  0.24373  0.42316  0.77750  1.0000
  N   N6        1.0  0.14518  0.33328  0.99095  1.0000
  C   C105      1.0  0.08299  0.45214  0.01594  1.0000
  H   H186      1.0  0.13503  0.42472  0.80963  1.0000
  H   H187      1.0  0.22013  0.37479  0.95622  1.0000
  H   H188      1.0  0.41069  0.24496  0.78808  1.0000
  H   H189      1.0  0.48679  0.23207  0.72868  1.0000
  S   S40       1.0  0.11734  0.50268  0.73277  1.0000
  C   C106      1.0  0.20209  0.27156  0.99042  1.0000
  H   H190      1.0  0.10166  0.28798  0.00504  1.0000
  H   H191      1.0  0.47771  0.23937  0.80989  1.0000
  C   C107      1.0  0.19263  0.30810  0.97623  1.0000
  C   C108      1.0  0.13811  0.36538  0.97253  1.0000
  H   H192      1.0  0.09233  0.46182  0.99433  1.0000
  H   H193      1.0  0.14449  0.46056  0.85801  1.0000
  H   H194      1.0  0.19009  0.30121  0.95345  1.0000
  C   C109      1.0  0.09044  0.50975  0.77010  1.0000
  H   H195      1.0  0.19776  0.27520  0.01421  1.0000
  H   H196      1.0  0.41871  0.04239  0.78798  1.0000
  C   C110      1.0  0.28998  0.05107  0.70965  1.0000
  H   H197      1.0  0.47935  0.11779  0.79641  1.0000
  H   H198      1.0  0.25516  0.03149  0.79594  1.0000
  H   H199      1.0  0.24445  0.01623  0.02632  1.0000
  C   C111      1.0  0.14717  0.34590  0.02149  1.0000
  H   H200      1.0  0.26024  0.01635  0.91268  1.0000
  H   H201      1.0  0.24215  0.02307  0.97635  1.0000
  H   H202      1.0  0.26734  0.02753  0.71436  1.0000
  H   H203      1.0  0.46747  0.02336  0.01452  1.0000
  H   H204      1.0  0.35728  0.03137  0.72564  1.0000
  C   C112      1.0  0.47766  0.22745  0.75225  1.0000
  H   H205      1.0  0.46906  0.19873  0.75355  1.0000
  H   H206      1.0  0.27680  0.20084  0.02618  1.0000
  C   C113      1.0  0.03673  0.43676  0.02497  1.0000
  H   H207      1.0  0.49684  0.19403  0.79757  1.0000
  Fe  Fe22      1.0  0.39714  0.76867  0.10717  1.0000
  H   H208      1.0  0.40676  0.95544  0.34719  1.0000
  S   S41       1.0  0.37081  0.75109  0.06663  1.0000
  Fe  Fe23      1.0  0.37319  0.78197  0.17319  1.0000
  S   S42       1.0  0.45434  0.79384  0.17404  1.0000
  S   S43       1.0  0.31142  0.78771  0.21446  1.0000
  Fe  Fe24      1.0  0.44679  0.82671  0.13587  1.0000
  H   H209      1.0  0.36503  0.97768  0.31079  1.0000
  H   H210      1.0  0.45283  0.91229  0.04456  1.0000
  H   H211      1.0  0.36628  0.94250  0.07325  1.0000
  S   S44       1.0  0.36367  0.81806  0.13660  1.0000
  S   S45       1.0  0.39803  0.73111  0.14373  1.0000
  H   H212      1.0  0.27285  0.72333  0.25673  1.0000
  H   H213      1.0  0.38640  0.93206  0.25038  1.0000
  H   H214      1.0  0.36107  0.69311  0.28602  1.0000
  H   H215      1.0  0.20744  0.90899  0.31530  1.0000
  C   C114      1.0  0.48586  0.61699  0.17199  1.0000
  H   H216      1.0  0.45769  0.67065  0.16102  1.0000
  H   H217      1.0  0.25211  0.65887  0.30699  1.0000
  C   C115      1.0  0.41007  0.91482  0.23163  1.0000
  H   H218      1.0  0.28796  0.67466  0.26086  1.0000
  H   H219      1.0  0.29826  0.64062  0.35839  1.0000
  Fe  Fe25      1.0  0.47876  0.74594  0.14187  1.0000
  H   H220      1.0  0.21923  0.54851  0.18520  1.0000
  H   H221      1.0  0.45194  0.97979  0.22306  1.0000
  C   C116      1.0  0.49149  0.65260  0.16303  1.0000
  H   H222      1.0  0.00501  0.54853  0.25365  1.0000
  C   C117      1.0  0.41555  0.98661  0.03803  1.0000
  H   H223      1.0  0.48171  0.86293  0.20084  1.0000
  H   H224      1.0  0.21800  0.71883  0.29907  1.0000
  H   H225      1.0  0.31804  0.64980  0.31022  1.0000
  C   C118      1.0  0.36553  0.94999  0.34993  1.0000
  H   H226      1.0  0.48448  0.77228  0.03565  1.0000
  C   C119      1.0  0.41265  0.98277  0.16237  1.0000
  H   H227      1.0  0.45726  0.94776  0.26908  1.0000
  H   H228      1.0  0.36832  0.92995  0.30628  1.0000
  S   S46       1.0  0.38479  0.81673  0.33237  1.0000
  C   C120      1.0  0.36009  0.97792  0.17097  1.0000
  H   H229      1.0  0.33541  0.70077  0.24123  1.0000
  H   H230      1.0  0.27699  0.92149  0.35883  1.0000
  H   H231      1.0  0.36694  0.86772  0.24497  1.0000
  H   H232      1.0  0.36375  0.92175  0.35726  1.0000
  C   C121      1.0  0.33207  0.79639  0.24706  1.0000
  C   C122      1.0  0.29558  0.81086  0.27174  1.0000
  C   C123      1.0  0.31117  0.81729  0.29814  1.0000
  C   C124      1.0  0.36338  0.80923  0.29991  1.0000
  C   C125      1.0  0.39972  0.79476  0.27529  1.0000
  C   C126      1.0  0.38413  0.78821  0.24899  1.0000
  H   H233      1.0  0.25517  0.81704  0.27040  1.0000
  H   H234      1.0  0.28285  0.82850  0.31701  1.0000
  H   H235      1.0  0.43999  0.78788  0.27668  1.0000
  H   H236      1.0  0.41218  0.77578  0.23051  1.0000
  C   C127      1.0  0.37242  0.78288  0.03956  1.0000
  H   H237      1.0  0.37863  0.97811  0.03347  1.0000
  S   S47       1.0  0.11653  0.51764  0.22721  1.0000
  H   H238      1.0  0.39446  0.94902  0.10382  1.0000
  H   H239      1.0  0.22125  0.99548  0.33472  1.0000
  H   H240      1.0  0.24287  0.75814  0.31152  1.0000
  H   H241      1.0  0.39713  0.82548  0.06421  1.0000
  H   H242      1.0  0.44769  0.60778  0.17670  1.0000
  H   H243      1.0  0.48959  0.60224  0.08978  1.0000
  C   C128      1.0  0.44937  0.95276  0.15126  1.0000
  C   C129      1.0  0.43353  0.91791  0.14871  1.0000
  C   C130      1.0  0.38127  0.91308  0.15808  1.0000
  C   C131      1.0  0.26025  0.98926  0.34021  1.0000
  H   H244      1.0  0.36871  0.88642  0.15684  1.0000
  H   H245      1.0  0.23727  0.95640  0.29242  1.0000
  C   C132      1.0  0.09921  0.53415  0.31429  1.0000
  H   H246      1.0  0.23960  0.54314  0.25926  1.0000
  C   C133      1.0  0.29659  0.98761  0.27342  1.0000
  C   C134      1.0  0.27211  0.92196  0.33593  1.0000
  N   N7        1.0  0.46369  0.90301  0.23709  1.0000
  C   C135      1.0  0.47063  0.99018  0.07499  1.0000
  H   H247      1.0  0.34032  0.89623  0.22072  1.0000
  H   H248      1.0  0.32382  0.53240  0.23511  1.0000
  H   H249      1.0  0.16031  0.75021  0.34164  1.0000
  H   H250      1.0  0.42145  0.88009  0.27546  1.0000
  H   H251      1.0  0.42515  0.00945  0.16447  1.0000
  N   N8        1.0  0.29014  0.95617  0.32228  1.0000
  H   H252      1.0  0.48999  0.95656  0.14453  1.0000
  C   C136      1.0  0.32357  0.71084  0.28794  1.0000
  H   H253      1.0  0.31392  0.75281  0.33739  1.0000
  C   C137      1.0  0.44367  0.91584  0.06850  1.0000
  C   C138      1.0  0.40273  0.94898  0.07976  1.0000
  C   C139      1.0  0.21467  0.91642  0.33703  1.0000
  C   C140      1.0  0.38820  0.81740  0.04364  1.0000
  H   H254      1.0  0.41219  0.93224  0.21275  1.0000
  H   H255      1.0  0.09398  0.56695  0.27770  1.0000
  C   C141      1.0  0.28083  0.66701  0.31970  1.0000
  C   C142      1.0  0.23644  0.72940  0.31645  1.0000
  C   C143      1.0  0.30302  0.70163  0.26041  1.0000
  H   H256      1.0  0.28979  0.98240  0.25117  1.0000
  C   C144      1.0  0.34803  0.95382  0.32073  1.0000
  C   C145      1.0  0.34464  0.94296  0.16916  1.0000
  N   N9        1.0  0.28763  0.70699  0.31664  1.0000
  H   H257      1.0  0.48004  0.91733  0.07665  1.0000
  H   H258      1.0  0.29632  0.89701  0.32460  1.0000
  H   H259      1.0  0.29814  0.92969  0.27966  1.0000
  H   H260      1.0  0.42784  0.89059  0.07681  1.0000
  C   C146      1.0  0.25818  0.54102  0.19035  1.0000
  H   H261      1.0  0.35955  0.52422  0.18626  1.0000
  H   H262      1.0  0.48288  0.54851  0.11661  1.0000
  H   H263      1.0  0.45784  0.84703  0.24883  1.0000
  H   H264      1.0  0.33417  0.73911  0.28635  1.0000
  H   H265      1.0  0.39705  0.86540  0.20688  1.0000
  C   C147      1.0  0.10204  0.53964  0.28467  1.0000
  H   H266      1.0  0.30555  0.98743  0.09431  1.0000
  C   C148      1.0  0.37752  0.88391  0.22576  1.0000
  H   H267      1.0  0.47625  0.97764  0.09546  1.0000
  C   C149      1.0  0.45886  0.87437  0.25941  1.0000
  C   C150      1.0  0.36743  0.70572  0.34072  1.0000
  H   H268      1.0  0.30409  0.93898  0.17606  1.0000
  H   H269      1.0  0.08983  0.55725  0.32990  1.0000
  C   C151      1.0  0.26429  0.65439  0.35081  1.0000
  C   C152      1.0  0.31199  0.72298  0.33991  1.0000
  C   C153      1.0  0.48351  0.93646  0.24844  1.0000
  N   N10       1.0  0.41678  0.98590  0.06985  1.0000
  C   C154      1.0  0.19420  0.73099  0.34427  1.0000
  C   C155      1.0  0.27962  0.95568  0.29196  1.0000
  H   H270      1.0  0.23701  0.63342  0.35067  1.0000
  H   H271      1.0  0.28730  0.54773  0.17144  1.0000
  H   H272      1.0  0.17950  0.70411  0.34812  1.0000
  H   H273      1.0  0.18773  0.94060  0.34717  1.0000
  H   H274      1.0  0.20496  0.89306  0.35060  1.0000
  S   S48       1.0  0.47922  0.88096  0.13337  1.0000
  H   H275      1.0  0.39645  0.71510  0.32289  1.0000
  H   H276      1.0  0.26040  0.55831  0.20963  1.0000
  S   S49       1.0  0.47965  0.78009  0.10347  1.0000
  H   H277      1.0  0.33840  0.99062  0.27100  1.0000
  H   H278      1.0  0.37088  0.67546  0.33977  1.0000
  C   C156      1.0  0.48960  0.96803  0.22776  1.0000
  H   H279      1.0  0.49582  0.90629  0.19106  1.0000
  H   H280      1.0  0.49420  0.84596  0.29148  1.0000
  C   C157      1.0  0.49728  0.88734  0.20877  1.0000
  H   H281      1.0  0.49713  0.69625  0.03717  1.0000
  H   H282      1.0  0.49730  0.89401  0.29347  1.0000
  C   C158      1.0  0.25443  0.51372  0.25875  1.0000
  Fe  Fe26      1.0  0.27225  0.87243  0.63613  1.0000
  S   S50       1.0  0.33820  0.82756  0.62623  1.0000
  S   S51       1.0  0.23834  0.89727  0.59999  1.0000
  H   H283      1.0  0.29999  0.95121  0.53653  1.0000
  Fe  Fe27      1.0  0.36946  0.85691  0.66024  1.0000
  S   S52       1.0  0.45474  0.86278  0.65254  1.0000
  Fe  Fe28      1.0  0.29272  0.79977  0.66266  1.0000
  H   H284      1.0  0.14624  0.99381  0.51039  1.0000
  S   S53       1.0  0.30690  0.90411  0.66754  1.0000
  H   H285      1.0  0.37780  0.71495  0.36130  1.0000
  Fe  Fe29      1.0  0.23330  0.86226  0.41279  1.0000
  S   S54       1.0  0.31831  0.86795  0.40582  1.0000
  Fe  Fe30      1.0  0.25013  0.77944  0.41599  1.0000
  S   S55       1.0  0.33660  0.78012  0.40923  1.0000
  Fe  Fe31      1.0  0.31812  0.82867  0.44094  1.0000
  S   S56       1.0  0.36319  0.83534  0.47637  1.0000
  Fe  Fe32      1.0  0.32703  0.81930  0.37487  1.0000
  H   H286      1.0  0.04615  0.59648  0.49454  1.0000
  S   S57       1.0  0.23226  0.82563  0.45007  1.0000
  C   C159      1.0  0.42416  0.93185  0.59059  1.0000
  C   C160      1.0  0.06926  0.53547  0.56752  1.0000
  Fe  Fe33      1.0  0.06315  0.61775  0.68300  1.0000
  H   H287      1.0  0.22903  0.97698  0.47778  1.0000
  S   S58       1.0  0.23091  0.72152  0.42267  1.0000
  N   N11       1.0  0.25524  0.00937  0.50999  1.0000
  S   S59       1.0  0.28908  0.73899  0.65719  1.0000
  C   C161      1.0  0.46412  0.97048  0.67165  1.0000
  C   C162      1.0  0.17473  0.97391  0.51783  1.0000
  C   C163      1.0  0.34654  0.97694  0.48522  1.0000
  H   H288      1.0  0.21710  0.73030  0.60499  1.0000
  H   H289      1.0  0.27277  0.78747  0.58845  1.0000
  C   C164      1.0  0.14945  0.58192  0.49222  1.0000
  H   H290      1.0  0.29536  0.75505  0.48652  1.0000
  C   C165      1.0  0.07897  0.71903  0.41881  1.0000
  C   C166      1.0  0.12685  0.73193  0.41992  1.0000
  H   H291      1.0  0.11564  0.67208  0.55844  1.0000
  H   H292      1.0  0.12953  0.76101  0.42149  1.0000
  C   C167      1.0  0.22800  0.72227  0.66472  1.0000
  H   H293      1.0  0.42939  0.87245  0.58976  1.0000
  C   C168      1.0  0.42830  0.99703  0.60075  1.0000
  H   H294      1.0  0.34236  0.96965  0.36709  1.0000
  H   H295      1.0  0.45099  0.00120  0.54432  1.0000
  C   C169      1.0  0.18184  0.74573  0.66777  1.0000
  C   C170      1.0  0.45427  0.89370  0.58121  1.0000
  H   H296      1.0  0.04478  0.73830  0.41951  1.0000
  Fe  Fe34      1.0  0.00666  0.60541  0.41586  1.0000
  H   H297      1.0  0.41545  0.93279  0.61471  1.0000
  C   C171      1.0  0.27377  0.88281  0.56513  1.0000
  C   C172      1.0  0.32690  0.87102  0.56062  1.0000
  C   C173      1.0  0.35436  0.85756  0.53306  1.0000
  C   C174      1.0  0.32877  0.85590  0.50980  1.0000
  C   C175      1.0  0.27607  0.86928  0.51397  1.0000
  C   C176      1.0  0.24860  0.88272  0.54161  1.0000
  H   H298      1.0  0.34667  0.87199  0.57846  1.0000
  H   H299      1.0  0.39524  0.84762  0.52989  1.0000
  H   H300      1.0  0.25627  0.86887  0.49605  1.0000
  H   H301      1.0  0.20756  0.89223  0.54492  1.0000
  H   H302      1.0  0.11839  0.98364  0.42478  1.0000
  C   C177      1.0  0.04629  0.62632  0.49189  1.0000
  C   C178      1.0  0.23053  0.97676  0.50119  1.0000
  C   C179      1.0  0.44362  0.93719  0.66802  1.0000
  H   H303      1.0  0.40213  0.93617  0.67338  1.0000
  H   H304      1.0  0.15183  0.69580  0.51909  1.0000
  S   S60       1.0  0.01399  0.66602  0.41729  1.0000
  C   C180      1.0  0.27683  0.97194  0.55274  1.0000
  H   H305      1.0  0.24415  0.67600  0.36706  1.0000
  Fe  Fe35      1.0  0.07809  0.55320  0.63938  1.0000
  H   H306      1.0  0.46513  0.88862  0.55745  1.0000
  C   C181      1.0  0.11924  0.65658  0.41607  1.0000
  H   H307      1.0  0.43558  0.92510  0.52326  1.0000
  H   H308      1.0  0.38072  0.98210  0.46850  1.0000
  H   H309      1.0  0.11671  0.62752  0.41437  1.0000
  C   C182      1.0  0.13185  0.70158  0.50102  1.0000
  H   H310      1.0  0.12389  0.56706  0.48114  1.0000
  C   C183      1.0  0.13924  0.62375  0.49078  1.0000
  H   H311      1.0  0.18313  0.77455  0.66492  1.0000
  C   C184      1.0  0.08787  0.51924  0.53951  1.0000
  S   S61       1.0  0.24172  0.81562  0.37924  1.0000
  H   H312      1.0  0.34781  0.98274  0.61538  1.0000
  C   C185      1.0  0.47716  0.90539  0.65752  1.0000
  C   C186      1.0  0.15905  0.98680  0.42350  1.0000
  H   H313      1.0  0.17076  0.97783  0.54159  1.0000
  H   H314      1.0  0.15390  0.62802  0.54713  1.0000
  H   H315      1.0  0.14636  0.57365  0.51481  1.0000
  H   H316      1.0  0.17603  0.64180  0.67688  1.0000
  C   C187      1.0  0.17742  0.67070  0.67413  1.0000
  H   H317      1.0  0.12148  0.73165  0.50143  1.0000
  H   H318      1.0  0.31214  0.69404  0.56070  1.0000
  H   H319      1.0  0.38572  0.93201  0.58422  1.0000
  S   S62       1.0  0.17527  0.91234  0.41511  1.0000
  H   H320      1.0  0.18992  0.57265  0.48070  1.0000
  H   H321      1.0  0.27183  0.70872  0.51976  1.0000
  H   H322      1.0  0.15960  0.69382  0.48021  1.0000
  H   H323      1.0  0.36148  0.97161  0.50515  1.0000
  H   H324      1.0  0.27809  0.80817  0.55502  1.0000
  S   S63       1.0  0.06055  0.56228  0.43085  1.0000
  S   S64       1.0  0.06995  0.67832  0.68803  1.0000
  S   S65       1.0  0.22410  0.84274  0.67054  1.0000
  H   H325      1.0  0.30432  0.99840  0.41838  1.0000
  C   C188      1.0  0.08201  0.68252  0.50276  1.0000
  H   H326      1.0  0.27714  0.93717  0.41461  1.0000
  C   C189      1.0  0.24830  0.96041  0.41767  1.0000
  H   H327      1.0  0.39686  0.97748  0.55144  1.0000
  S   S66       1.0  0.12919  0.57329  0.66817  1.0000
  C   C190      1.0  0.46226  0.94615  0.52484  1.0000
  H   H328      1.0  0.25232  0.79084  0.50885  1.0000
  H   H329      1.0  0.22672  0.75536  0.49075  1.0000
  H   H330      1.0  0.09802  0.75011  0.67691  1.0000
  H   H331      1.0  0.20078  0.65010  0.41728  1.0000
  C   C191      1.0  0.16682  0.66944  0.41761  1.0000
  H   H332      1.0  0.38984  0.73825  0.56704  1.0000
  C   C192      1.0  0.07499  0.68133  0.41706  1.0000
  H   H333      1.0  0.44003  0.99306  0.62190  1.0000
  C   C193      1.0  0.13122  0.69427  0.67775  1.0000
  H   H334      1.0  0.25371  0.95051  0.50327  1.0000
  C   C194      1.0  0.11451  0.64225  0.55590  1.0000
  C   C195      1.0  0.17075  0.70707  0.41959  1.0000
  C   C196      1.0  0.01838  0.55287  0.57486  1.0000
  S   S67       1.0  0.01466  0.59956  0.65217  1.0000
  H   H335      1.0  0.17099  0.63500  0.49926  1.0000
  H   H336      1.0  0.18058  0.77278  0.58228  1.0000
  N   N12       1.0  0.08642  0.64161  0.50623  1.0000
  H   H337      1.0  0.19078  0.81959  0.58609  1.0000
  H   H338      1.0  0.18961  0.80032  0.55117  1.0000
  H   H339      1.0  0.21160  0.69985  0.57464  1.0000
  H   H340      1.0  0.24605  0.68444  0.60155  1.0000
  C   C197      1.0  0.19592  0.95587  0.41918  1.0000
  H   H341      1.0  0.10228  0.63258  0.57805  1.0000
  H   H342      1.0  0.26125  0.66634  0.66513  1.0000
  S   S68       1.0  0.11068  0.53374  0.59259  1.0000
  H   H343      1.0  0.31023  0.72757  0.58912  1.0000
  N   N13       1.0  0.45052  0.96472  0.57973  1.0000
  H   H344      1.0  0.41525  0.76880  0.54077  1.0000
  H   H345      1.0  0.36318  0.78604  0.56982  1.0000
  N   N14       1.0  0.28575  0.74904  0.55100  1.0000
  C   C198      1.0  0.34058  0.75293  0.53540  1.0000
  C   C199      1.0  0.25639  0.73708  0.52860  1.0000
  C   C200      1.0  0.28920  0.71938  0.57208  1.0000
  C   C201      1.0  0.26200  0.78511  0.56683  1.0000
  C   C202      1.0  0.37883  0.76196  0.55476  1.0000
  C   C203      1.0  0.25792  0.76124  0.50237  1.0000
  C   C204      1.0  0.23744  0.70836  0.58884  1.0000
  C   C205      1.0  0.20238  0.79428  0.57169  1.0000
  H   H346      1.0  0.35808  0.72758  0.52187  1.0000
  H   H347      1.0  0.34087  0.77528  0.52007  1.0000
  H   H348      1.0  0.21484  0.73570  0.53821  1.0000
  H   H349      1.0  0.14594  0.62975  0.46746  1.0000
  H   H350      1.0  0.16405  0.94624  0.51317  1.0000
  C   C206      1.0  0.36857  0.00610  0.60718  1.0000
  H   H351      1.0  0.33181  0.95238  0.47701  1.0000
  H   H352      1.0  0.29987  0.97565  0.56966  1.0000
  H   H353      1.0  0.48931  0.88913  0.59087  1.0000
  C   C207      1.0  0.00443  0.53646  0.52668  1.0000
  C   C208      1.0  0.22566  0.68469  0.66762  1.0000
  C   C209      1.0  0.43945  0.97399  0.55052  1.0000
  H   H354      1.0  0.46779  0.96082  0.50442  1.0000
  H   H355      1.0  0.24128  0.96095  0.56420  1.0000
  C   C210      1.0  0.05567  0.51989  0.51907  1.0000
  C   C211      1.0  0.13364  0.73178  0.67437  1.0000
  C   C212      1.0  0.07469  0.63307  0.53775  1.0000
  H   H356      1.0  0.43842  0.99504  0.67976  1.0000
  Fe  Fe36      1.0  0.04708  0.52823  0.39280  1.0000
  C   C213      1.0  0.26384  0.99550  0.41978  1.0000
  H   H357      1.0  0.07040  0.60354  0.53975  1.0000
  H   H358      1.0  0.03675  0.64776  0.54910  1.0000
  H   H359      1.0  0.05548  0.62979  0.46811  1.0000
  H   H360      1.0  0.00379  0.56573  0.59628  1.0000
  H   H361      1.0  0.05173  0.69712  0.52050  1.0000
  H   H362      1.0  0.20702  0.74161  0.36359  1.0000
  H   H363      1.0  0.28838  0.72159  0.36191  1.0000
  S   S69       1.0  0.04127  0.51616  0.67216  1.0000
  C   C214      1.0  0.26223  0.00941  0.54104  1.0000
  H   H364      1.0  0.06872  0.68930  0.48231  1.0000
  H   H365      1.0  0.25228  0.98322  0.36344  1.0000
  S   S70       1.0  0.99832  0.57286  0.37622  1.0000
  C   C215      1.0  0.30649  0.01120  0.48946  1.0000
  Fe  Fe37      1.0  0.42331  0.86851  0.85938  1.0000
  S   S71       1.0  0.34990  0.87606  0.89298  1.0000
  S   S72       1.0  0.45107  0.91675  0.83571  1.0000
  C   C216      1.0  0.09232  0.54286  0.78511  1.0000
  S   S73       1.0  0.36877  0.78807  0.90235  1.0000
  H   H366      1.0  0.21771  0.73282  0.80059  1.0000
  Fe  Fe38      1.0  0.33292  0.82430  0.87232  1.0000
  S   S74       1.0  0.25497  0.82200  0.86052  1.0000
  Fe  Fe39      1.0  0.39343  0.83980  0.91950  1.0000
  S   S75       1.0  0.39553  0.85966  0.96519  1.0000
  S   S76       1.0  0.40362  0.81912  0.83693  1.0000
  Fe  Fe40      1.0  0.26608  0.86949  0.70118  1.0000
  H   H367      1.0  0.45194  0.57646  0.90509  1.0000
  S   S77       1.0  0.22271  0.89451  0.74454  1.0000
  H   H368      1.0  0.48510  0.79930  0.98916  1.0000
  C   C217      1.0  0.49329  0.90857  0.74891  1.0000
  H   H369      1.0  0.33685  0.94047  0.98101  1.0000
  H   H370      1.0  0.28029  0.94660  0.91597  1.0000
  C   C218      1.0  0.33074  0.99432  0.94545  1.0000
  H   H371      1.0  0.37029  0.89405  0.78081  1.0000
  H   H372      1.0  0.37559  0.69150  0.83160  1.0000
  H   H373      1.0  0.40609  0.86768  0.02396  1.0000
  H   H374      1.0  0.46262  0.75942  0.95274  1.0000
  H   H375      1.0  0.34389  0.90871  0.75064  1.0000
  H   H376      1.0  0.25823  0.76393  0.72148  1.0000
  C   C219      1.0  0.24930  0.84365  0.82839  1.0000
  C   C220      1.0  0.20416  0.86688  0.82777  1.0000
  C   C221      1.0  0.19737  0.88304  0.80211  1.0000
  C   C222      1.0  0.23473  0.87508  0.77652  1.0000
  C   C223      1.0  0.27984  0.85156  0.77694  1.0000
  C   C224      1.0  0.28746  0.83624  0.80295  1.0000
  H   H377      1.0  0.17450  0.87264  0.84729  1.0000
  H   H378      1.0  0.16253  0.90131  0.80200  1.0000
  H   H379      1.0  0.30873  0.84509  0.75732  1.0000
  H   H380      1.0  0.32186  0.81763  0.80307  1.0000
  C   C225      1.0  0.42579  0.58512  0.82135  1.0000
  C   C226      1.0  0.30542  0.96878  0.84536  1.0000
  C   C227      1.0  0.34775  0.94131  0.84067  1.0000
  C   C228      1.0  0.39844  0.95067  0.83799  1.0000
  C   C229      1.0  0.40691  0.98747  0.83862  1.0000
  H   H381      1.0  0.23195  0.92493  0.99083  1.0000
  H   H382      1.0  0.26621  0.96143  0.84800  1.0000
  H   H383      1.0  0.34101  0.91289  0.83943  1.0000
  Fe  Fe41      1.0  0.08512  0.54103  0.70262  1.0000
  H   H384      1.0  0.41803  0.59605  0.80070  1.0000
  H   H385      1.0  0.15221  0.74655  0.82108  1.0000
  H   H386      1.0  0.10726  0.56546  0.77335  1.0000
  H   H387      1.0  0.43766  0.72537  0.90651  1.0000
  C   C230      1.0  0.25110  0.99436  0.98219  1.0000
  N   N15       1.0  0.47426  0.87175  0.74491  1.0000
  H   H388      1.0  0.22373  0.94825  0.94316  1.0000
  N   N16       1.0  0.28678  0.97235  0.95707  1.0000
  H   H389      1.0  0.35557  0.64687  0.83755  1.0000
  C   C231      1.0  0.44063  0.64919  0.82902  1.0000
  C   C232      1.0  0.23112  0.99821  0.92184  1.0000
  S   S78       1.0  0.33135  0.82420  0.69601  1.0000
  H   H390      1.0  0.47985  0.92810  0.73363  1.0000
  H   H391      1.0  0.35543  0.99769  0.96169  1.0000
  C   C233      1.0  0.42087  0.87846  0.73775  1.0000
  C   C234      1.0  0.27176  0.99669  0.01049  1.0000
  H   H392      1.0  0.09506  0.72248  0.73857  1.0000
  H   H393      1.0  0.44607  0.99482  0.83628  1.0000
  C   C235      1.0  0.44235  0.60847  0.86850  1.0000
  H   H394      1.0  0.44559  0.96561  0.02535  1.0000
  H   H395      1.0  0.49554  0.79534  0.93644  1.0000
  C   C236      1.0  0.36670  0.79624  0.98993  1.0000
  H   H396      1.0  0.39970  0.61424  0.87685  1.0000
  H   H397      1.0  0.39309  0.93251  0.76119  1.0000
  C   C237      1.0  0.47925  0.67947  0.92207  1.0000
  H   H398      1.0  0.44619  0.65182  0.80518  1.0000
  C   C238      1.0  0.38042  0.90501  0.75905  1.0000
  C   C239      1.0  0.38405  0.66537  0.84178  1.0000
  C   C240      1.0  0.45109  0.54537  0.81329  1.0000
  H   H399      1.0  0.03636  0.74554  0.75953  1.0000
  C   C241      1.0  0.47184  0.70568  0.90202  1.0000
  H   H400      1.0  0.32649  0.98489  0.74560  1.0000
  C   C242      1.0  0.29809  0.98932  0.76633  1.0000
  H   H401      1.0  0.38661  0.58364  0.83505  1.0000
  S   S79       1.0  0.02301  0.58701  0.71975  1.0000
  H   H402      1.0  0.37840  0.67230  0.86540  1.0000
  H   H403      1.0  0.45506  0.73349  0.00359  1.0000
  H   H404      1.0  0.47647  0.92107  0.77110  1.0000
  C   C243      1.0  0.38349  0.83043  0.99385  1.0000
  H   H405      1.0  0.07477  0.76966  0.73272  1.0000
  C   C244      1.0  0.36069  0.77266  0.01286  1.0000
  H   H406      1.0  0.20511  0.76957  0.82740  1.0000
  N   N17       1.0  0.15967  0.77139  0.76222  1.0000
  C   C245      1.0  0.19338  0.73809  0.74689  1.0000
  C   C246      1.0  0.10556  0.76139  0.77292  1.0000
  C   C247      1.0  0.18019  0.78477  0.78784  1.0000
  C   C248      1.0  0.15981  0.80145  0.74126  1.0000
  C   C249      1.0  0.25170  0.74230  0.73713  1.0000
  C   C250      1.0  0.07697  0.74930  0.74929  1.0000
  C   C251      1.0  0.18899  0.75632  0.81015  1.0000
  C   C252      1.0  0.11992  0.83540  0.75128  1.0000
  H   H407      1.0  0.18987  0.71395  0.76040  1.0000
  H   H408      1.0  0.17999  0.72992  0.72696  1.0000
  H   H409      1.0  0.08054  0.78435  0.78653  1.0000
  H   H410      1.0  0.10629  0.73822  0.78738  1.0000
  H   H411      1.0  0.21752  0.79619  0.78055  1.0000
  H   H412      1.0  0.15341  0.80784  0.80019  1.0000
  H   H413      1.0  0.19855  0.81181  0.73638  1.0000
  H   H414      1.0  0.15342  0.79102  0.71999  1.0000
  H   H415      1.0  0.27198  0.71636  0.72562  1.0000
  H   H416      1.0  0.33459  0.92060  0.94731  1.0000
  H   H417      1.0  0.27057  0.74771  0.75559  1.0000
  H   H418      1.0  0.26886  0.97016  0.76459  1.0000
  H   H419      1.0  0.31730  0.98126  0.78443  1.0000
  H   H420      1.0  0.46304  0.53140  0.83164  1.0000
  H   H421      1.0  0.42350  0.88941  0.71586  1.0000
  S   S80       1.0  0.04442  0.52056  0.86939  1.0000
  H   H422      1.0  0.35878  0.78781  0.96921  1.0000
  H   H423      1.0  0.07932  0.82912  0.75315  1.0000
  H   H424      1.0  0.12627  0.85620  0.73480  1.0000
  H   H425      1.0  0.12462  0.84837  0.77199  1.0000
  N   N18       1.0  0.45575  0.61028  0.83598  1.0000
  C   C253      1.0  0.39329  0.84121  0.02088  1.0000
  C   C254      1.0  0.25609  0.96435  0.93432  1.0000
  H   H426      1.0  0.21245  0.98400  0.98740  1.0000
  H   H427      1.0  0.46008  0.63004  0.87896  1.0000
  C   C255      1.0  0.30950  0.93654  0.96627  1.0000
  H   H428      1.0  0.26366  0.89068  0.96308  1.0000
  H   H429      1.0  0.45058  0.67911  0.94192  1.0000
  Fe  Fe42      1.0  0.44173  0.78723  0.86816  1.0000
  C   C256      1.0  0.27007  0.91065  0.97988  1.0000
  C   C257      1.0  0.31377  0.00556  0.84777  1.0000
  H   H430      1.0  0.39772  0.99770  0.91081  1.0000
  H   H431      1.0  0.44748  0.82735  0.77124  1.0000
  C   C258      1.0  0.36789  0.97875  0.91716  1.0000
  C   C259      1.0  0.07751  0.54609  0.81555  1.0000
  H   H432      1.0  0.34743  0.97689  0.89895  1.0000
  H   H433      1.0  0.08068  0.57136  0.82712  1.0000
  H   H434      1.0  0.44385  0.86879  0.79054  1.0000
  H   H435      1.0  0.46633  0.66787  0.83654  1.0000
  H   H436      1.0  0.28567  0.89522  0.99672  1.0000
  H   H437      1.0  0.38913  0.95182  0.91958  1.0000
  C   C260      1.0  0.46905  0.85156  0.77237  1.0000
  H   H438      1.0  0.21283  0.98925  0.90389  1.0000
  H   H439      1.0  0.40306  0.85253  0.73683  1.0000
  H   H440      1.0  0.34827  0.74601  0.00967  1.0000
  S   S81       1.0  0.46890  0.83643  0.88719  1.0000
  H   H441      1.0  0.42261  0.52918  0.80577  1.0000
  H   H442      1.0  0.45644  0.81383  0.70482  1.0000
  H   H443      1.0  0.49182  0.79391  0.73102  1.0000
  H   H444      1.0  0.43362  0.55084  0.87695  1.0000
  H   H445      1.0  0.39085  0.00942  0.76920  1.0000
  H   H446      1.0  0.27404  0.96992  0.02050  1.0000
  C   C261      1.0  0.49365  0.81177  0.71249  1.0000
  C   C262      1.0  0.05988  0.51648  0.83109  1.0000
  H   H447      1.0  0.47729  0.66827  0.01080  1.0000
  C   C263      1.0  0.45841  0.57207  0.88113  1.0000
  H   H448      1.0  0.31014  0.00719  0.00705  1.0000
  H   H449      1.0  0.48522  0.54390  0.79511  1.0000
  C   C264      1.0  0.49573  0.72095  0.99539  1.0000
  H   H450      1.0  0.49579  0.70940  0.97349  1.0000
  H   H451      1.0  0.85557  0.48232  0.06350  1.0000
  S   S82       1.0  0.72280  0.44182  0.15875  1.0000
  H   H452      1.0  0.62173  0.43588  0.08025  1.0000
  Fe  Fe43      1.0  0.71183  0.49704  0.18162  1.0000
  Fe  Fe44      1.0  0.64465  0.43548  0.18607  1.0000
  H   H453      1.0  0.86101  0.41910  0.31658  1.0000
  C   C265      1.0  0.61593  0.39404  0.24938  1.0000
  C   C266      1.0  0.61655  0.37656  0.29873  1.0000
  C   C267      1.0  0.63220  0.36925  0.26859  1.0000
  H   H454      1.0  0.65743  0.34461  0.26009  1.0000
  C   C268      1.0  0.82177  0.44763  0.19852  1.0000
  H   H455      1.0  0.95893  0.47438  0.19996  1.0000
  H   H456      1.0  0.50160  0.50875  0.09110  1.0000
  Fe  Fe45      1.0  0.67976  0.46848  0.12723  1.0000
  C   C269      1.0  0.76672  0.37669  0.03547  1.0000
  H   H457      1.0  0.54940  0.20775  0.29745  1.0000
  H   H458      1.0  0.89655  0.41505  0.12632  1.0000
  C   C270      1.0  0.91326  0.42988  0.19750  1.0000
  C   C271      1.0  0.92105  0.46680  0.19905  1.0000
  C   C272      1.0  0.67699  0.46692  0.05474  1.0000
  C   C273      1.0  0.96778  0.51025  0.11508  1.0000
  C   C274      1.0  0.56651  0.43258  0.29057  1.0000
  S   S83       1.0  0.56069  0.41762  0.34739  1.0000
  C   C275      1.0  0.83008  0.48449  0.19847  1.0000
  C   C276      1.0  0.50492  0.25139  0.32889  1.0000
  C   C277      1.0  0.84471  0.46220  0.11656  1.0000
  H   H459      1.0  0.86092  0.37333  0.30139  1.0000
  H   H460      1.0  0.56883  0.44439  0.24592  1.0000
  H   H461      1.0  0.62936  0.35737  0.31331  1.0000
  C   C278      1.0  0.58288  0.42564  0.26049  1.0000
  H   H462      1.0  0.85680  0.39187  0.19710  1.0000
  N   N19       1.0  0.76879  0.41691  0.29119  1.0000
  C   C279      1.0  0.75716  0.37912  0.29956  1.0000
  C   C280      1.0  0.75530  0.44208  0.31811  1.0000
  C   C281      1.0  0.82557  0.41700  0.27775  1.0000
  C   C282      1.0  0.73714  0.42942  0.26925  1.0000
  H   H463      1.0  0.82955  0.46889  0.14010  1.0000
  C   C283      1.0  0.61979  0.26017  0.31599  1.0000
  C   C284      1.0  0.86454  0.40218  0.29622  1.0000
  C   C285      1.0  0.93149  0.48001  0.11552  1.0000
  H   H464      1.0  0.77487  0.37068  0.31823  1.0000
  H   H465      1.0  0.71484  0.37879  0.30751  1.0000
  C   C286      1.0  0.57977  0.27714  0.29896  1.0000
  H   H466      1.0  0.77692  0.43171  0.33464  1.0000
  H   H467      1.0  0.83576  0.40114  0.25649  1.0000
  H   H468      1.0  0.52580  0.24247  0.34610  1.0000
  H   H469      1.0  0.75200  0.41399  0.24800  1.0000
  H   H470      1.0  0.69625  0.42341  0.27579  1.0000
  H   H471      1.0  0.59447  0.30256  0.29030  1.0000
  H   H472      1.0  0.83447  0.44505  0.27249  1.0000
  H   H473      1.0  0.75522  0.35434  0.25643  1.0000
  S   S84       1.0  0.71796  0.46740  0.07982  1.0000
  C   C287      1.0  0.97340  0.48577  0.29324  1.0000
  C   C288      1.0  0.69736  0.44714  0.33340  1.0000
  C   C289      1.0  0.60167  0.44740  0.03899  1.0000
  H   H474      1.0  0.71576  0.47528  0.24466  1.0000
  H   H475      1.0  0.76078  0.32266  0.28372  1.0000
  H   H476      1.0  0.54267  0.30076  0.35728  1.0000
  S   S85       1.0  0.60187  0.45596  0.15172  1.0000
  H   H477      1.0  0.51514  0.35529  0.29610  1.0000
  C   C290      1.0  0.98067  0.46994  0.32227  1.0000
  H   H478      1.0  0.78332  0.43999  0.19928  1.0000
  N   N20       1.0  0.52479  0.28529  0.31589  1.0000
  H   H479      1.0  0.61061  0.23327  0.32415  1.0000
  S   S86       1.0  0.63694  0.38490  0.21170  1.0000
  H   H480      1.0  0.88136  0.41155  0.09046  1.0000
  N   N21       1.0  0.88224  0.48861  0.10411  1.0000
  H   H481      1.0  0.58166  0.25889  0.27937  1.0000
  C   C291      1.0  0.77372  0.34863  0.27520  1.0000
  H   H482      1.0  0.81654  0.34375  0.26783  1.0000
  H   H483      1.0  0.80993  0.46441  0.10649  1.0000
  C   C292      1.0  0.88247  0.50859  0.31155  1.0000
  C   C293      1.0  0.92441  0.51024  0.05369  1.0000
  C   C294      1.0  0.63228  0.44901  0.06009  1.0000
  H   H484      1.0  0.90469  0.40288  0.28361  1.0000
  C   C295      1.0  0.86330  0.42039  0.19778  1.0000
  C   C296      1.0  0.58353  0.40826  0.30982  1.0000
  C   C297      1.0  0.87960  0.49409  0.19937  1.0000
  H   H485      1.0  0.67056  0.45555  0.31889  1.0000
  S   S87       1.0  0.96500  0.39512  0.19510  1.0000
  H   H486      1.0  0.95521  0.45539  0.10368  1.0000
  C   C298      1.0  0.86622  0.42126  0.11336  1.0000
  H   H487      1.0  0.62368  0.27867  0.33430  1.0000
  H   H488      1.0  0.92200  0.47289  0.13860  1.0000
  H   H489      1.0  0.94811  0.45440  0.33152  1.0000
  H   H490      1.0  0.54047  0.45694  0.29894  1.0000
  C   C299      1.0  0.50865  0.21779  0.30779  1.0000
  H   H491      1.0  0.87208  0.48398  0.30074  1.0000
  H   H492      1.0  0.83406  0.40497  0.12199  1.0000
  H   H493      1.0  0.74470  0.39031  0.05632  1.0000
  H   H494      1.0  0.91364  0.45564  0.06440  1.0000
  H   H495      1.0  0.76772  0.46954  0.31350  1.0000
  H   H496      1.0  0.98547  0.49132  0.33838  1.0000
  H   H497      1.0  0.65863  0.25551  0.30131  1.0000
  C   C300      1.0  0.89241  0.48309  0.07154  1.0000
  C   C301      1.0  0.73531  0.47041  0.26315  1.0000
  H   H498      1.0  0.96406  0.46318  0.27946  1.0000
  H   H499      1.0  0.56732  0.43319  0.04304  1.0000
  S   S88       1.0  0.63612  0.48956  0.21074  1.0000
  H   H500      1.0  0.88540  0.50094  0.33374  1.0000
  H   H501      1.0  0.71227  0.48813  0.28171  1.0000
  H   H502      1.0  0.77438  0.47950  0.25694  1.0000
  H   H503      1.0  0.68569  0.42194  0.34376  1.0000
  H   H504      1.0  0.98985  0.41174  0.05999  1.0000
  H   H505      1.0  0.52689  0.02804  0.07935  1.0000
  H   H506      1.0  0.69120  0.46898  0.35096  1.0000
  H   H507      1.0  0.79231  0.35348  0.04117  1.0000
  H   H508      1.0  0.54736  0.33553  0.33292  1.0000
  H   H509      1.0  0.53468  0.33007  0.26158  1.0000
  C   C302      1.0  0.50346  0.33526  0.28137  1.0000
  H   H510      1.0  0.96667  0.50087  0.04999  1.0000
  C   C303      1.0  0.69059  0.48361  0.02847  1.0000
  H   H511      1.0  0.82543  0.41406  0.03101  1.0000
  Fe  Fe46      1.0  0.59876  0.51079  0.17491  1.0000
  C   C304      1.0  0.52377  0.31316  0.34030  1.0000
  H   H512      1.0  0.91031  0.50548  0.25517  1.0000
  H   H513      1.0  0.51887  0.50825  0.12567  1.0000
  N   N22       1.0  0.91867  0.45881  0.59727  1.0000
  C   C305      1.0  0.67794  0.30641  0.58635  1.0000
  H   H514      1.0  0.92543  0.45726  0.52208  1.0000
  H   H515      1.0  0.55999  0.24659  0.46244  1.0000
  H   H516      1.0  0.93261  0.39989  0.58849  1.0000
  C   C306      1.0  0.97568  0.45882  0.59747  1.0000
  S   S89       1.0  0.58976  0.17716  0.62502  1.0000
  C   C307      1.0  0.80692  0.42782  0.38900  1.0000
  H   H517      1.0  0.72966  0.45520  0.39295  1.0000
  H   H518      1.0  0.71716  0.48356  0.45062  1.0000
  S   S90       1.0  0.61110  0.41301  0.65818  1.0000
  H   H519      1.0  0.55145  0.13793  0.53380  1.0000
  H   H520      1.0  0.60549  0.20527  0.45449  1.0000
  S   S91       1.0  0.71986  0.44816  0.65665  1.0000
  C   C308      1.0  0.58912  0.12807  0.47676  1.0000
  Fe  Fe47      1.0  0.69079  0.40740  0.62930  1.0000
  S   S92       1.0  0.71971  0.40493  0.58062  1.0000
  S   S93       1.0  0.72233  0.35870  0.65058  1.0000
  Fe  Fe48      1.0  0.62797  0.31636  0.40391  1.0000
  Fe  Fe49      1.0  0.70463  0.37411  0.39752  1.0000
  S   S94       1.0  0.78949  0.38317  0.38594  1.0000
  S   S95       1.0  0.67313  0.34011  0.43426  1.0000
  C   C309      1.0  0.78595  0.46858  0.52382  1.0000
  H   H521      1.0  0.61452  0.24052  0.47925  1.0000
  C   C310      1.0  0.67758  0.40592  0.55599  1.0000
  C   C311      1.0  0.62534  0.42035  0.56409  1.0000
  C   C312      1.0  0.59319  0.42094  0.54358  1.0000
  C   C313      1.0  0.61314  0.40717  0.51493  1.0000
  C   C314      1.0  0.66548  0.39305  0.50688  1.0000
  C   C315      1.0  0.69751  0.39234  0.52736  1.0000
  H   H522      1.0  0.60982  0.43125  0.58607  1.0000
  H   H523      1.0  0.55274  0.43207  0.54988  1.0000
  H   H524      1.0  0.73783  0.38094  0.52098  1.0000
  H   H525      1.0  0.92230  0.49831  0.56422  1.0000
  N   N23       1.0  0.77650  0.48551  0.49632  1.0000
  C   C316      1.0  0.54635  0.26570  0.68126  1.0000
  C   C317      1.0  0.83769  0.49870  0.39095  1.0000
  N   N24       1.0  0.57933  0.31895  0.58627  1.0000
  H   H526      1.0  0.54522  0.37539  0.59202  1.0000
  H   H527      1.0  0.59616  0.18432  0.38820  1.0000
  C   C318      1.0  0.69949  0.50131  0.47024  1.0000
  H   H528      1.0  0.62010  0.34176  0.54770  1.0000
  S   S96       1.0  0.66726  0.34511  0.36584  1.0000
  Fe  Fe50      1.0  0.60651  0.38472  0.44408  1.0000
  H   H529      1.0  0.60111  0.26055  0.58603  1.0000
  C   C319      1.0  0.59085  0.21681  0.64661  1.0000
  C   C320      1.0  0.63592  0.23468  0.64274  1.0000
  C   C321      1.0  0.63630  0.26790  0.65828  1.0000
  C   C322      1.0  0.59136  0.28353  0.67749  1.0000
  H   H530      1.0  0.55468  0.16118  0.44690  1.0000
  C   C323      1.0  0.54617  0.23223  0.66612  1.0000
  C   C324      1.0  0.93709  0.44605  0.54169  1.0000
  C   C325      1.0  0.90923  0.47100  0.56840  1.0000
  H   H531      1.0  0.63003  0.35780  0.59696  1.0000
  H   H532      1.0  0.51451  0.13185  0.46601  1.0000
  C   C326      1.0  0.56024  0.20255  0.39304  1.0000
  C   C327      1.0  0.75597  0.48864  0.55252  1.0000
  H   H533      1.0  0.86698  0.47477  0.56831  1.0000
  H   H534      1.0  0.77639  0.43984  0.52425  1.0000
  H   H535      1.0  0.98386  0.42322  0.63352  1.0000
  C   C328      1.0  0.55142  0.32608  0.53639  1.0000
  Fe  Fe51      1.0  0.52628  0.14193  0.64139  1.0000
  H   H536      1.0  0.92669  0.41772  0.54294  1.0000
  C   C329      1.0  0.51468  0.26299  0.40637  1.0000
  C   C330      1.0  0.71864  0.48869  0.49745  1.0000
  C   C331      1.0  0.90406  0.42073  0.60249  1.0000
  H   H537      1.0  0.54296  0.35616  0.64344  1.0000
  C   C332      1.0  0.80426  0.45953  0.47127  1.0000
  S   S97       1.0  0.52405  0.08887  0.61685  1.0000
  H   H538      1.0  0.84231  0.38568  0.60402  1.0000
  H   H539      1.0  0.84393  0.48689  0.61903  1.0000
  S   S98       1.0  0.55891  0.35869  0.41605  1.0000
  H   H540      1.0  0.56373  0.27934  0.61890  1.0000
  N   N25       1.0  0.51568  0.18254  0.49039  1.0000
  C   C333      1.0  0.54240  0.15157  0.46910  1.0000
  Fe  Fe52      1.0  0.64445  0.36639  0.68098  1.0000
  H   H541      1.0  0.52895  0.18278  0.55168  1.0000
  H   H542      1.0  0.78646  0.43332  0.47204  1.0000
  H   H543      1.0  0.53097  0.23099  0.51290  1.0000
  C   C334      1.0  0.88548  0.48469  0.62083  1.0000
  H   H544      1.0  0.56895  0.32281  0.51284  1.0000
  C   C335      1.0  0.56136  0.23969  0.40000  1.0000
  C   C336      1.0  0.84925  0.41400  0.59826  1.0000
  H   H545      1.0  0.67768  0.27670  0.58913  1.0000
  H   H546      1.0  0.61364  0.14338  0.48809  1.0000
  Fe  Fe53      1.0  0.64429  0.44828  0.68837  1.0000
  C   C337      1.0  0.55273  0.20827  0.49763  1.0000
  H   H547      1.0  0.81830  0.43244  0.61272  1.0000
  C   C338      1.0  0.85933  0.43272  0.38722  1.0000
  H   H548      1.0  0.61737  0.32470  0.62286  1.0000
  H   H549      1.0  0.87080  0.43008  0.48568  1.0000
  H   H550      1.0  0.82775  0.46695  0.52492  1.0000
  H   H551      1.0  0.84477  0.41632  0.57550  1.0000
  C   C339      1.0  0.62467  0.32841  0.59917  1.0000
  H   H552      1.0  0.53203  0.35459  0.54028  1.0000
  Fe  Fe54      1.0  0.74624  0.40027  0.67993  1.0000
  H   H553      1.0  0.91514  0.47139  0.38682  1.0000
  H   H554      1.0  0.67056  0.22281  0.62763  1.0000
  H   H555      1.0  0.53129  0.05354  0.51063  1.0000
  C   C340      1.0  0.87459  0.46803  0.38855  1.0000
  H   H556      1.0  0.57609  0.10494  0.48969  1.0000
  H   H557      1.0  0.68138  0.38264  0.48490  1.0000
  H   H558      1.0  0.88619  0.47400  0.64246  1.0000
  H   H559      1.0  0.69196  0.31146  0.56322  1.0000
  H   H560      1.0  0.79992  0.47009  0.45011  1.0000
  H   H561      1.0  0.88827  0.40911  0.38480  1.0000
  C   C341      1.0  0.51998  0.26679  0.58659  1.0000
  H   H562      1.0  0.71391  0.48531  0.55632  1.0000
  H   H563      1.0  0.52983  0.01391  0.58530  1.0000
  H   H564      1.0  0.61947  0.29376  0.54440  1.0000
  H   H565      1.0  0.90552  0.41368  0.62513  1.0000
  H   H566      1.0  0.70378  0.46191  0.50227  1.0000
  S   S99       1.0  0.57153  0.40676  0.49001  1.0000
  H   H567      1.0  0.70729  0.31557  0.59806  1.0000
  C   C342      1.0  0.76999  0.45853  0.39177  1.0000
  H   H568      1.0  0.67131  0.28136  0.65542  1.0000
  S   S100      1.0  0.62186  0.25574  0.40001  1.0000
  Fe  Fe55      1.0  0.60098  0.38911  0.37983  1.0000
  S   S101      1.0  0.64061  0.42027  0.40924  1.0000
  C   C343      1.0  0.78542  0.49384  0.39224  1.0000
  H   H569      1.0  0.53053  0.25293  0.56463  1.0000
  H   H570      1.0  0.88102  0.43639  0.44777  1.0000
  H   H571      1.0  0.88328  0.47436  0.47201  1.0000
  C   C344      1.0  0.56769  0.28135  0.59518  1.0000
  C   C345      1.0  0.59511  0.31959  0.55367  1.0000
  H   H572      1.0  0.61553  0.11656  0.45635  1.0000
  H   H573      1.0  0.51106  0.21889  0.66887  1.0000
  C   C346      1.0  0.51712  0.15819  0.54163  1.0000
  H   H574      1.0  0.51324  0.16059  0.38515  1.0000
  Fe  Fe56      1.0  0.50585  0.06596  0.66074  1.0000
  S   S102      1.0  0.51616  0.11750  0.68482  1.0000
  C   C347      1.0  0.86318  0.44989  0.46940  1.0000
  H   H575      1.0  0.65695  0.49956  0.47372  1.0000
  H   H576      1.0  0.77054  0.47608  0.57088  1.0000
  C   C348      1.0  0.58457  0.22581  0.47172  1.0000
  H   H577      1.0  0.58138  0.19486  0.50933  1.0000
  C   C349      1.0  0.51313  0.18897  0.39147  1.0000
  H   H578      1.0  0.50549  0.24656  0.60233  1.0000
  H   H579      1.0  0.51485  0.29151  0.41231  1.0000
  C   C350      1.0  0.53429  0.34779  0.59788  1.0000
  C   C351      1.0  0.51350  0.34938  0.63096  1.0000
  H   H580      1.0  0.97277  0.47162  0.64388  1.0000
  S   S103      1.0  0.54624  0.01204  0.66956  1.0000
  S   S104      1.0  0.97963  0.50385  0.41929  1.0000
  H   H581      1.0  0.52210  0.30669  0.54080  1.0000
  C   C352      1.0  0.99174  0.45084  0.62651  1.0000
  H   H582      1.0  0.69726  0.50834  0.51534  1.0000
  H   H583      1.0  0.98939  0.48527  0.59060  1.0000
  H   H584      1.0  0.97992  0.44587  0.53805  1.0000
  H   H585      1.0  0.50033  0.34459  0.58790  1.0000
  H   H586      1.0  0.49830  0.32360  0.63826  1.0000
  S   S105      1.0  0.82441  0.39974  0.69267  1.0000
  H   H587      1.0  0.52074  0.28529  0.74559  1.0000
  S   S106      1.0  0.91129  0.37962  0.89175  1.0000
  H   H588      1.0  0.77724  0.50126  0.76200  1.0000
  H   H589      1.0  0.73760  0.36656  0.02410  1.0000
  C   C353      1.0  0.79776  0.40471  0.01803  1.0000
  H   H590      1.0  0.84450  0.47918  0.96204  1.0000
  S   S107      1.0  0.67223  0.40219  0.71287  1.0000
  S   S108      1.0  0.54000  0.47415  0.85030  1.0000
  H   H591      1.0  0.68355  0.38943  0.77406  1.0000
  H   H592      1.0  0.86660  0.38622  0.79028  1.0000
  C   C354      1.0  0.73821  0.45081  0.76679  1.0000
  S   S109      1.0  0.63600  0.46801  0.90295  1.0000
  H   H593      1.0  0.78601  0.37290  0.79542  1.0000
  N   N26       1.0  0.52329  0.23340  0.76607  1.0000
  H   H594      1.0  0.56386  0.15810  0.76805  1.0000
  C   C355      1.0  0.56352  0.48031  0.81326  1.0000
  H   H595      1.0  0.53893  0.16133  0.73492  1.0000
  C   C356      1.0  0.79136  0.37646  0.96975  1.0000
  C   C357      1.0  0.59435  0.49111  0.75365  1.0000
  C   C358      1.0  0.56901  0.46078  0.76268  1.0000
  C   C359      1.0  0.55283  0.45580  0.79239  1.0000
  S   S110      1.0  0.96693  0.45821  0.92545  1.0000
  C   C360      1.0  0.58404  0.28469  0.76718  1.0000
  H   H596      1.0  0.56036  0.44179  0.74676  1.0000
  H   H597      1.0  0.50157  0.28931  0.78393  1.0000
  H   H598      1.0  0.55375  0.24786  0.82561  1.0000
  H   H599      1.0  0.78389  0.38091  0.75857  1.0000
  C   C361      1.0  0.88882  0.44917  0.87599  1.0000
  C   C362      1.0  0.86910  0.41681  0.88505  1.0000
  C   C363      1.0  0.81540  0.41521  0.89072  1.0000
  C   C364      1.0  0.78140  0.44656  0.88882  1.0000
  C   C365      1.0  0.74110  0.40063  0.96753  1.0000
  H   H600      1.0  0.93035  0.45041  0.87102  1.0000
  H   H601      1.0  0.80003  0.39010  0.89745  1.0000
  H   H602      1.0  0.74015  0.44531  0.89392  1.0000
  C   C366      1.0  0.82460  0.50988  0.69953  1.0000
  H   H603      1.0  0.61236  0.27633  0.74666  1.0000
  H   H604      1.0  0.82164  0.47279  0.99955  1.0000
  Fe  Fe57      1.0  0.59486  0.49291  0.94653  1.0000
  C   C367      1.0  0.52978  0.27370  0.76578  1.0000
  H   H605      1.0  0.67202  0.42971  0.84700  1.0000
  H   H606      1.0  0.93478  0.32535  0.96777  1.0000
  C   C368      1.0  0.55459  0.22084  0.81422  1.0000
  H   H607      1.0  0.95190  0.48536  0.70012  1.0000
  H   H608      1.0  0.84540  0.41954  0.82085  1.0000
  S   S111      1.0  0.57650  0.46105  0.98660  1.0000
  C   C369      1.0  0.73797  0.49270  0.76917  1.0000
  C   C370      1.0  0.76423  0.38928  0.78143  1.0000
  H   H609      1.0  0.58146  0.31500  0.76950  1.0000
  H   H610      1.0  0.67098  0.49466  0.98712  1.0000
  H   H611      1.0  0.88306  0.33073  0.94843  1.0000
  C   C371      1.0  0.65982  0.48219  0.00747  1.0000
  H   H612      1.0  0.66164  0.43997  0.81223  1.0000
  C   C372      1.0  0.80107  0.47929  0.88062  1.0000
  H   H613      1.0  0.92329  0.42357  0.69693  1.0000
  C   C373      1.0  0.59101  0.50971  0.80420  1.0000
  H   H614      1.0  0.53180  0.43289  0.79921  1.0000
  C   C374      1.0  0.91196  0.48263  0.69926  1.0000
  H   H615      1.0  0.76968  0.42906  0.01795  1.0000
  H   H616      1.0  0.78052  0.34930  0.97686  1.0000
  C   C375      1.0  0.85310  0.42227  0.97282  1.0000
  H   H617      1.0  0.69718  0.44575  0.76888  1.0000
  H   H618      1.0  0.85028  0.33783  0.00130  1.0000
  C   C376      1.0  0.90401  0.34547  0.96258  1.0000
  H   H619      1.0  0.75581  0.44121  0.74403  1.0000
  H   H620      1.0  0.81279  0.37029  0.94697  1.0000
  H   H621      1.0  0.83865  0.43055  0.75661  1.0000
  C   C377      1.0  0.61550  0.46380  0.01259  1.0000
  N   N27       1.0  0.82622  0.39174  0.98781  1.0000
  H   H622      1.0  0.60697  0.15614  0.73353  1.0000
  H   H623      1.0  0.59392  0.21224  0.80126  1.0000
  C   C378      1.0  0.86771  0.36150  0.99096  1.0000
  C   C379      1.0  0.56921  0.16941  0.74630  1.0000
  Fe  Fe58      1.0  0.57472  0.50076  0.88475  1.0000
  N   N28       1.0  0.76566  0.42964  0.78729  1.0000
  C   C380      1.0  0.74394  0.44122  0.81871  1.0000
  C   C381      1.0  0.68406  0.44697  0.82858  1.0000
  H   H624      1.0  0.71534  0.34601  0.77911  1.0000
  C   C382      1.0  0.85918  0.41576  0.79704  1.0000
  H   H625      1.0  0.60676  0.21574  0.75519  1.0000
  H   H626      1.0  0.67097  0.47582  0.83658  1.0000
  H   H627      1.0  0.89050  0.42495  0.97989  1.0000
  H   H628      1.0  0.59932  0.27377  0.78571  1.0000
  C   C383      1.0  0.57057  0.21119  0.74779  1.0000
  C   C384      1.0  0.82325  0.46102  0.97735  1.0000
  H   H629      1.0  0.71174  0.38290  0.96307  1.0000
  C   C385      1.0  0.51114  0.22136  0.79670  1.0000
  S   S112      1.0  0.61131  0.49935  0.71652  1.0000
  H   H630      1.0  0.74825  0.41948  0.94967  1.0000
  H   H631      1.0  0.82574  0.46606  0.78445  1.0000
  H   H632      1.0  0.92385  0.36676  0.95040  1.0000
  C   C386      1.0  0.71032  0.37537  0.78653  1.0000
  C   C387      1.0  0.85487  0.48030  0.87373  1.0000
  H   H633      1.0  0.75831  0.46732  0.82452  1.0000
  H   H634      1.0  0.69212  0.37678  0.80989  1.0000
  C   C388      1.0  0.82203  0.43676  0.78014  1.0000
  H   H635      1.0  0.57705  0.22012  0.72512  1.0000
  H   H636      1.0  0.89754  0.42650  0.79200  1.0000
  H   H637      1.0  0.86397  0.41605  0.94899  1.0000
  H   H638      1.0  0.75876  0.42093  0.83293  1.0000
  H   H639      1.0  0.78353  0.46199  0.97308  1.0000
  H   H640      1.0  0.54833  0.20006  0.83075  1.0000
  H   H641      1.0  0.72201  0.41631  0.98785  1.0000
  C   C389      1.0  0.80832  0.47501  0.69793  1.0000
  H   H642      1.0  0.92965  0.49028  0.75756  1.0000
  H   H643      1.0  0.51116  0.27822  0.69550  1.0000
  H   H644      1.0  0.71426  0.50500  0.75420  1.0000
  H   H645      1.0  0.89295  0.37115  0.00538  1.0000
  H   H646      1.0  0.76785  0.47260  0.69849  1.0000
  C   C390      1.0  0.89562  0.44762  0.69765  1.0000
  H   H647      1.0  0.72038  0.50438  0.79135  1.0000
  H   H648      1.0  0.97121  0.50900  0.77804  1.0000
  C   C391      1.0  0.84392  0.44371  0.69629  1.0000
  S   S113      1.0  0.58988  0.32492  0.69754  1.0000
  Fe  Fe59      1.0  0.98080  0.40277  0.90255  1.0000
  S   S114      1.0  0.99186  0.43378  0.00210  1.0000
  H   H649      1.0  0.72509  0.49760  0.02430  1.0000
  H   H650      1.0  0.87041  0.50546  0.86760  1.0000
  H   H651      1.0  0.87938  0.50953  0.80635  1.0000
  H   H652      1.0  0.95525  0.59571  0.28232  1.0000
  H   H653      1.0  0.58129  0.64851  0.08442  1.0000
  H   H654      1.0  0.62275  0.64975  0.15414  1.0000
  C   C392      1.0  0.54461  0.64130  0.07880  1.0000
  S   S115      1.0  0.77956  0.51871  0.19640  1.0000
  H   H655      1.0  0.62163  0.59999  0.04762  1.0000
  H   H656      1.0  0.54709  0.64298  0.05529  1.0000
  C   C393      1.0  0.85707  0.52661  0.11475  1.0000
  H   H657      1.0  0.97717  0.52246  0.09392  1.0000
  S   S116      1.0  0.55034  0.70717  0.14211  1.0000
  H   H658      1.0  0.64069  0.55282  0.04789  1.0000
  C   C394      1.0  0.92837  0.52750  0.26496  1.0000
  H   H659      1.0  0.93718  0.54848  0.33531  1.0000
  C   C395      1.0  0.52970  0.59308  0.17412  1.0000
  C   C396      1.0  0.57880  0.60532  0.16827  1.0000
  H   H660      1.0  0.91691  0.53857  0.06321  1.0000
  H   H661      1.0  0.54750  0.80750  0.05299  1.0000
  H   H662      1.0  0.57261  0.89308  0.22185  1.0000
  C   C397      1.0  0.58449  0.64066  0.15903  1.0000
  H   H663      1.0  0.61244  0.58777  0.17114  1.0000
  H   H664      1.0  0.54143  0.74447  0.03955  1.0000
  C   C398      1.0  0.93410  0.58934  0.30398  1.0000
  H   H665      1.0  0.63097  0.60270  0.10311  1.0000
  H   H666      1.0  0.97110  0.54551  0.22434  1.0000
  C   C399      1.0  0.97968  0.53193  0.24380  1.0000
  S   S117      1.0  0.52281  0.54750  0.18244  1.0000
  C   C400      1.0  0.61982  0.57681  0.06203  1.0000
  H   H667      1.0  0.89189  0.59516  0.30502  1.0000
  H   H668      1.0  0.88612  0.52260  0.19978  1.0000
  C   C401      1.0  0.53149  0.60375  0.08978  1.0000
  H   H669      1.0  0.90158  0.55272  0.26466  1.0000
  H   H670      1.0  0.95119  0.53205  0.13227  1.0000
  C   C402      1.0  0.65288  0.58427  0.08467  1.0000
  H   H671      1.0  0.88368  0.54766  0.10878  1.0000
  H   H672      1.0  0.77587  0.52190  0.11111  1.0000
  C   C403      1.0  0.54098  0.66425  0.15606  1.0000
  C   C404      1.0  0.80705  0.53935  0.10395  1.0000
  C   C405      1.0  0.54108  0.55578  0.04994  1.0000
  C   C406      1.0  0.83538  0.53806  0.31574  1.0000
  H   H673      1.0  0.94428  0.60884  0.31991  1.0000
  H   H674      1.0  0.55953  0.84634  0.21579  1.0000
  H   H675      1.0  0.51350  0.66275  0.08990  1.0000
  H   H676      1.0  0.68754  0.59719  0.07433  1.0000
  H   H677      1.0  0.84752  0.52883  0.13893  1.0000
  H   H678      1.0  0.56216  0.52875  0.04096  1.0000
  H   H679      1.0  0.66737  0.55821  0.09303  1.0000
  H   H680      1.0  0.81434  0.54051  0.08004  1.0000
  N   N29       1.0  0.56452  0.57016  0.07420  1.0000
  C   C407      1.0  0.55475  0.87473  0.20869  1.0000
  C   C408      1.0  0.95089  0.54999  0.31152  1.0000
  H   H681      1.0  0.83946  0.56082  0.33082  1.0000
  H   H682      1.0  0.57767  0.87531  0.18625  1.0000
  N   N30       1.0  0.93361  0.51893  0.29535  1.0000
  H   H683      1.0  0.54069  0.86492  0.26509  1.0000
  H   H684      1.0  0.79198  0.56741  0.11335  1.0000
  H   H685      1.0  0.82756  0.54835  0.29506  1.0000
  S   S118      1.0  0.67377  0.52442  0.14836  1.0000
  H   H686      1.0  0.52195  0.92994  0.25426  1.0000
  H   H687      1.0  0.51763  0.95960  0.20722  1.0000
  C   C409      1.0  0.56618  0.54055  0.09552  1.0000
  H   H688      1.0  0.80018  0.52600  0.32645  1.0000
  H   H689      1.0  0.99400  0.54770  0.30831  1.0000
  H   H690      1.0  0.53356  0.60527  0.11307  1.0000
  C   C410      1.0  0.51393  0.52606  0.10765  1.0000
  C   C411      1.0  0.55363  0.79958  0.02952  1.0000
  H   H691      1.0  0.58050  0.55026  0.11481  1.0000
  H   H692      1.0  0.50531  0.99055  0.23835  1.0000
  H   H693      1.0  0.50091  0.97516  0.05747  1.0000
  H   H694      1.0  0.59420  0.51668  0.08569  1.0000
  C   C412      1.0  0.50069  0.86995  0.27807  1.0000
  H   H695      1.0  0.51125  0.60481  0.03037  1.0000
  H   H696      1.0  0.50001  0.55086  0.05799  1.0000
  H   H697      1.0  0.91332  0.51192  0.03220  1.0000
  H   H698      1.0  0.55700  0.88237  0.64341  1.0000
  H   H699      1.0  0.85287  0.53171  0.45600  1.0000
  C   C413      1.0  0.98940  0.64312  0.50311  1.0000
  C   C414      1.0  0.51806  0.97170  0.66510  1.0000
  H   H700      1.0  0.52737  0.93401  0.56551  1.0000
  H   H701      1.0  0.83217  0.52178  0.50422  1.0000
  Fe  Fe60      1.0  0.93174  0.55039  0.40465  1.0000
  H   H702      1.0  0.78833  0.52949  0.44903  1.0000
  S   S119      1.0  0.85599  0.54330  0.39096  1.0000
  C   C415      1.0  0.53085  0.90686  0.65128  1.0000
  C   C416      1.0  0.55119  0.93970  0.65540  1.0000
  H   H703      1.0  0.94658  0.56648  0.56035  1.0000
  C   C417      1.0  0.81057  0.53813  0.46501  1.0000
  S   S120      1.0  0.93427  0.58787  0.44253  1.0000
  C   C418      1.0  0.79607  0.52266  0.49522  1.0000
  H   H704      1.0  0.98394  0.67313  0.50128  1.0000
  H   H705      1.0  0.97435  0.63609  0.52567  1.0000
  H   H706      1.0  0.59288  0.94042  0.65067  1.0000
  C   C419      1.0  0.89973  0.52422  0.62176  1.0000
  H   H707      1.0  0.76721  0.54338  0.50916  1.0000
  H   H708      1.0  0.75668  0.51745  0.39387  1.0000
  H   H709      1.0  0.51421  0.95203  0.60159  1.0000
  C   C420      1.0  0.98608  0.55329  0.55449  1.0000
  Fe  Fe61      1.0  0.98724  0.54277  0.45551  1.0000
  H   H710      1.0  0.80368  0.56846  0.46727  1.0000
  H   H711      1.0  0.50135  0.93265  0.52544  1.0000
  H   H712      1.0  0.58168  0.98083  0.56839  1.0000
  C   C421      1.0  0.53983  0.98998  0.56953  1.0000
  Fe  Fe62      1.0  0.98156  0.56400  0.68734  1.0000
  H   H713      1.0  0.96459  0.63129  0.48960  1.0000
  H   H714      1.0  0.70468  0.53037  0.46666  1.0000
  C   C422      1.0  0.50801  0.95830  0.57949  1.0000
  S   S121      1.0  0.96090  0.53324  0.50312  1.0000
  H   H715      1.0  0.53582  0.99816  0.54762  1.0000
  H   H716      1.0  0.87160  0.54049  0.63949  1.0000
  H   H717      1.0  0.89704  0.53791  0.60153  1.0000
  H   H718      1.0  0.76143  0.51803  0.55358  1.0000
  H   H719      1.0  0.93882  0.52568  0.62668  1.0000
  C   C423      1.0  0.60344  0.71299  0.95466  1.0000
  H   H720      1.0  0.59366  0.63366  0.88597  1.0000
  H   H721      1.0  0.83821  0.60695  0.83605  1.0000
  C   C424      1.0  0.55258  0.90984  0.74385  1.0000
  H   H722      1.0  0.55283  0.82959  0.76562  1.0000
  N   N31       1.0  0.89120  0.56664  0.80683  1.0000
  C   C425      1.0  0.93874  0.59050  0.84574  1.0000
  H   H723      1.0  0.79679  0.53388  0.70030  1.0000
  Fe  Fe63      1.0  0.57560  0.56784  0.92408  1.0000
  H   H724      1.0  0.57200  0.89052  0.75679  1.0000
  H   H725      1.0  0.54468  0.67341  0.00654  1.0000
  S   S122      1.0  0.61617  0.55075  0.87831  1.0000
  S   S123      1.0  0.52872  0.52036  0.92894  1.0000
  H   H726      1.0  0.62507  0.53894  0.76757  1.0000
  S   S124      1.0  0.89598  0.55811  0.69927  1.0000
  C   C426      1.0  0.52642  0.76509  0.02563  1.0000
  H   H727      1.0  0.58032  0.68001  0.85030  1.0000
  S   S125      1.0  0.63926  0.54165  0.94425  1.0000
  C   C427      1.0  0.55203  0.67982  0.87031  1.0000
  H   H728      1.0  0.57304  0.69707  0.94957  1.0000
  C   C428      1.0  0.55943  0.65346  0.89036  1.0000
  H   H729      1.0  0.57607  0.59719  0.78748  1.0000
  H   H730      1.0  0.57085  0.90499  0.72050  1.0000
  H   H731      1.0  0.52972  0.75063  0.93357  1.0000
  H   H732      1.0  0.83478  0.62852  0.77691  1.0000
  C   C429      1.0  0.60512  0.51562  0.77450  1.0000
  C   C430      1.0  0.84120  0.57761  0.82866  1.0000
  H   H733      1.0  0.53438  0.61817  0.83948  1.0000
  H   H734      1.0  0.75675  0.58323  0.83687  1.0000
  C   C431      1.0  0.51382  0.60209  0.82585  1.0000
  H   H735      1.0  0.85581  0.53312  0.77880  1.0000
  H   H736      1.0  0.61416  0.73183  0.93713  1.0000
  H   H737      1.0  0.90515  0.62265  0.79940  1.0000
  H   H738      1.0  0.84935  0.58372  0.75840  1.0000
  H   H739      1.0  0.51314  0.81572  0.79675  1.0000
  H   H740      1.0  0.78451  0.58524  0.79947  1.0000
  H   H741      1.0  0.61449  0.75600  0.98314  1.0000
  C   C432      1.0  0.86640  0.60715  0.76639  1.0000
  C   C433      1.0  0.90387  0.59686  0.78677  1.0000
  H   H742      1.0  0.78562  0.54207  0.81671  1.0000
  H   H743      1.0  0.57842  0.58749  0.01384  1.0000
  C   C434      1.0  0.58870  0.73389  0.98457  1.0000
  C   C435      1.0  0.51821  0.78041  0.97659  1.0000
  C   C436      1.0  0.78969  0.57162  0.81933  1.0000
  H   H744      1.0  0.93228  0.53425  0.83478  1.0000
  H   H745      1.0  0.51261  0.59880  0.77898  1.0000
  Fe  Fe64      1.0  0.67531  0.51911  0.89900  1.0000
  C   C437      1.0  0.93712  0.51604  0.76810  1.0000
  H   H746      1.0  0.88839  0.61805  0.74651  1.0000
  H   H747      1.0  0.55000  0.84486  0.72264  1.0000
  C   C438      1.0  0.93490  0.56003  0.82314  1.0000
  H   H748      1.0  0.97291  0.58251  0.85554  1.0000
  H   H749      1.0  0.60039  0.52834  0.82004  1.0000
  C   C439      1.0  0.53520  0.60995  0.79404  1.0000
  H   H750      1.0  0.63725  0.69219  0.95435  1.0000
  H   H751      1.0  0.52737  0.57326  0.82866  1.0000
  H   H752      1.0  0.56011  0.93773  0.75039  1.0000
  H   H753      1.0  0.55085  0.79735  0.97072  1.0000
  C   C440      1.0  0.50507  0.68808  0.01371  1.0000
  H   H754      1.0  0.84078  0.56201  0.84852  1.0000
  H   H755      1.0  0.53592  0.63977  0.79149  1.0000
  S   S126      1.0  0.53268  0.62219  0.94241  1.0000
  C   C441      1.0  0.52315  0.65348  0.91635  1.0000
  H   H756      1.0  0.59621  0.79475  0.02138  1.0000
  H   H757      1.0  0.60246  0.71592  0.00067  1.0000
  H   H758      1.0  0.90440  0.59412  0.86386  1.0000
  H   H759      1.0  0.94393  0.59135  0.77347  1.0000
  H   H760      1.0  0.94507  0.61693  0.83591  1.0000
  C   C442      1.0  0.88814  0.53112  0.79067  1.0000
  C   C443      1.0  0.53970  0.58014  0.02415  1.0000
  C   C444      1.0  0.50841  0.70612  0.87623  1.0000
  N   N32       1.0  0.53268  0.74957  0.99487  1.0000
  H   H761      1.0  0.52589  0.56464  0.00705  1.0000
  H   H762      1.0  0.94667  0.53516  0.75069  1.0000
  S   S127      1.0  0.75981  0.51929  0.87848  1.0000
  H   H763      1.0  0.52973  0.86191  0.79648  1.0000
  C   C445      1.0  0.51935  0.83951  0.78311  1.0000
  H   H764      1.0  0.50006  0.56193  0.87374  1.0000
  H   H765      1.0  0.97329  0.55622  0.80792  1.0000
  C   C446      1.0  0.50935  0.84966  0.71967  1.0000
  H   H766      1.0  0.51193  0.86525  0.69982  1.0000
  H   H767      1.0  0.53686  0.82340  0.01929  1.0000
  C   C447      1.0  0.50094  0.77018  0.94828  1.0000
  C   C448      1.0  0.87667  0.51384  0.69951  1.0000
  S   S128      1.0  0.49900  0.73811  0.85055  1.0000
  H   H768      1.0  0.52359  0.79794  0.69432  1.0000
