data_image0
_chemical_formula_structural       FeHCFeS2HFeHFeSFeS2HSFeCFeS3FeHSFeHSFeCHS2FeHSFeH3FeS3HCSCH4C4HSH2CH3C6H3CHC2H2C7H3C6H11CHCH2NHCH3CHSHCH2CH5CHCHSHSC2H2NC8H23CH2CNCH3NC8H8C2H4CHSH3FeH2FeH3C2HC2HCNSCHCH3C2H2C2H2CHC2H5CH5CH2SH2CFeSCHSFeSFeS2HFeS2HSFeHFeSHSFeCSFeH2CHCSHCSHCHFeHFeSCHCH3FeCHCHCH2CSNH3CHCHFeC2HCHC4HCHC4H5SFeH2C2H3SCHSCSCNC2HFeHCH3C2H3CH5C2HC3H2CH2S2H3C2H3C2H2NHCHSCHCHC2H2C2H7SCH4CHCH9C4H3CH3CSHNH3CHCNH2SHCSHCH4C3HFeSHFeS2FeSFeS3FeS2FeS2FeSFeS5HSC2H8C3H2C2H3CH2SCSHCH2C3H3C2H2C6H9CH6NH3CH4CH3CHC3HC3H7CH2CNHCH4CHCHCHCHNC8H21CH2C3H2CH2NC4NC8H15CH3C4H2CHCH2CHNH5C2H2C3H4CNCH2CNC2H3C3H3SHCH3CHCH9C2H2FeS2FeS2FeSFeS3FeS2FeHSFeHFeS3HSHSH5C3H2C2H3CHCH5CH3C2HC2H3C3NHCH4C6H4C3H2CH4SCHCHC2H6CHCH3CH5CH2NC2H3CH8C3HC3HCH2CH4CSC2HC2HCHC2HCHCHCNC3H3C2HNC8H20NC8H21CH3SH7CHCH6C2HC2H2FeS2FeS2FeSFeS3FeSHFeSHFeSFeS3CS2H7C3H5CHCH5CH2SHC2H2C6H4CH2C3HC2H2CHCHSH3NHCFeCH2CHC2HCHCHC2H5FeNH2CH6C2H2CSCHCH5CH3CHCH2CHCH2CH2CH3SCSH3CH3C2HSHC3N2C8H22CHCNHC2H2CHC2H2CHCHCH2CHCHSCH3CHC2H2C2HC3H4CHCSH2CHSH5CH2SH3C2H2FeS2FeCHFeSFeCS2FeS2FeS2FeSFeS3CSHSC3SH2SH3C2HCH2C3H2C2H3C2HCHCH2CHC6H5FeHCH2CHCH2CH3CH7CH4CH12SH3C2HCHNHC2HCH4CH5FeH5CNH2CHNC2H5SH2FeCHFeCHCH3CHCHCH2C5SH3CNCH6C2HCHCH2CHCNHCH2SH3S2C3NCHC2H2CH2CHCH5CH2C2H4C2H2CHC2H3CH2CHNCHCH2C2H8CH5CH4C2HCH5CH2C3H3CNCH2CH2CHC3H2NCHS2H5CHCFeS2FeHFeH2SHSFeS2FeSFeS2H2CFeS2FeHFeSC2FeCSFeH4NHSHFeHCHC3HNCH3SHCH3C3H2CH4SCH3C6H5C3H2C2H3CHCHSH2CHNHSHNH3C2HC2S2H5CHC2H2C2H5CH2CH3C2HCH4CH2CHC2HCH2CHC3H2C2SH2C2HCHC3H4CH2NH2S2CH2CHCFeH4SH3C2HCFeCH3CSCHCH4FeH2CHC3FeS2HSFeSFeS3FeHFe2SHFeSCSH2SHCSFeSFeC2HFeCSFeSH2FeH2SCSHCHC3HCH2CHSCHCH3C2H2SH2CHCH4C6H3SC5H3C2HCH3NC8H23CHCH2SH3C4H2C2HCFeH2CHC3H3SHNH2C2HFeHNH3CH4CNHCH2CHS2HCH8CH2CH3C2HCNHCH4C3H4CHC2H4CHCH2CH2CH2SH4C2HC2NH2C
_chemical_formula_sum              "Fe96 H1152 C672 S192 N48"
_cell_length_a       60.6146
_cell_length_b       60.7576
_cell_length_c       39.6379
_cell_angle_alpha    90.2785
_cell_angle_beta     90.4598
_cell_angle_gamma    120.507

_space_group_name_H-M_alt    "P 1"
_space_group_IT_number       1

loop_
  _space_group_symop_operation_xyz
  'x, y, z'

loop_
  _atom_site_type_symbol
  _atom_site_label
  _atom_site_symmetry_multiplicity
  _atom_site_fract_x
  _atom_site_fract_y
  _atom_site_fract_z
  _atom_site_occupancy
  Fe  Fe1       1.0  0.30671  0.45220  0.43415  1.0000
  H   H1        1.0  0.46896  0.42713  0.36154  1.0000
  C   C1        1.0  0.47558  0.24271  0.47948  1.0000
  Fe  Fe2       1.0  0.33832  0.42482  0.42750  1.0000
  S   S1        1.0  0.37058  0.45826  0.40226  1.0000
  S   S2        1.0  0.34016  0.38822  0.43449  1.0000
  H   H2        1.0  0.26746  0.47819  0.28801  1.0000
  Fe  Fe3       1.0  0.34072  0.46103  0.37187  1.0000
  H   H3        1.0  0.24096  0.39091  0.33777  1.0000
  Fe  Fe4       1.0  0.36587  0.48217  0.44191  1.0000
  S   S3        1.0  0.30815  0.42584  0.39452  1.0000
  Fe  Fe5       1.0  0.31155  0.43702  0.12407  1.0000
  S   S4        1.0  0.29072  0.41129  0.07924  1.0000
  S   S5        1.0  0.29552  0.42080  0.17598  1.0000
  H   H4        1.0  0.40633  0.47720  0.08182  1.0000
  S   S6        1.0  0.33536  0.45414  0.03242  1.0000
  Fe  Fe6       1.0  0.29743  0.44701  0.05270  1.0000
  C   C2        1.0  0.25396  0.41069  0.32896  1.0000
  Fe  Fe7       1.0  0.33020  0.42064  0.06302  1.0000
  S   S7        1.0  0.34017  0.39179  0.04095  1.0000
  S   S8        1.0  0.31591  0.47220  0.09875  1.0000
  S   S9        1.0  0.35028  0.44424  0.10877  1.0000
  Fe  Fe8       1.0  0.42903  0.32977  0.08981  1.0000
  H   H5        1.0  0.40085  0.43495  0.06967  1.0000
  S   S10       1.0  0.39350  0.33290  0.10052  1.0000
  Fe  Fe9       1.0  0.45570  0.29806  0.07377  1.0000
  H   H6        1.0  0.17806  0.40845  0.02953  1.0000
  S   S11       1.0  0.46131  0.26343  0.06383  1.0000
  Fe  Fe10      1.0  0.47477  0.33778  0.13240  1.0000
  C   C3        1.0  0.46522  0.20529  0.01578  1.0000
  H   H7        1.0  0.33987  0.10358  0.48295  1.0000
  S   S12       1.0  0.43693  0.30293  0.12042  1.0000
  S   S13       1.0  0.44405  0.32158  0.04204  1.0000
  Fe  Fe11      1.0  0.45382  0.35043  0.44146  1.0000
  H   H8        1.0  0.46963  0.28318  0.22550  1.0000
  S   S14       1.0  0.44050  0.37917  0.45231  1.0000
  Fe  Fe12      1.0  0.46266  0.30457  0.45633  1.0000
  H   H9        1.0  0.39502  0.42565  0.43075  1.0000
  H   H10       1.0  0.21339  0.44264  0.37319  1.0000
  H   H11       1.0  0.43413  0.44763  0.06938  1.0000
  Fe  Fe13      1.0  0.46444  0.32328  0.38342  1.0000
  S   S15       1.0  0.44809  0.30867  0.33023  1.0000
  S   S16       1.0  0.27260  0.45488  0.01515  1.0000
  S   S17       1.0  0.43427  0.30934  0.42392  1.0000
  H   H12       1.0  0.43606  0.11217  0.45975  1.0000
  C   C4        1.0  0.35971  0.11870  0.47676  1.0000
  S   S18       1.0  0.34894  0.47348  0.31673  1.0000
  C   C5        1.0  0.48152  0.22346  0.48674  1.0000
  H   H13       1.0  0.47445  0.23223  0.18560  1.0000
  H   H14       1.0  0.39785  0.47511  0.02724  1.0000
  H   H15       1.0  0.43434  0.35466  0.24452  1.0000
  H   H16       1.0  0.46783  0.29116  0.16880  1.0000
  C   C6        1.0  0.46169  0.31995  0.28984  1.0000
  C   C7        1.0  0.44573  0.31053  0.26099  1.0000
  C   C8        1.0  0.45545  0.31928  0.22846  1.0000
  C   C9        1.0  0.42328  0.47486  0.08279  1.0000
  H   H17       1.0  0.21027  0.45137  0.33049  1.0000
  S   S19       1.0  0.33846  0.48768  0.40957  1.0000
  H   H18       1.0  0.44292  0.31189  0.20656  1.0000
  H   H19       1.0  0.42565  0.29649  0.26385  1.0000
  C   C10       1.0  0.45579  0.23858  0.03402  1.0000
  H   H20       1.0  0.47091  0.05839  0.09166  1.0000
  H   H21       1.0  0.22513  0.41939  0.34174  1.0000
  H   H22       1.0  0.14676  0.46155  0.02083  1.0000
  C   C11       1.0  0.35894  0.37897  0.05681  1.0000
  C   C12       1.0  0.36180  0.36159  0.03647  1.0000
  C   C13       1.0  0.37458  0.34920  0.04864  1.0000
  C   C14       1.0  0.38474  0.35395  0.08148  1.0000
  C   C15       1.0  0.38273  0.37208  0.10147  1.0000
  C   C16       1.0  0.37019  0.38476  0.08911  1.0000
  H   H23       1.0  0.45753  0.24988  0.22166  1.0000
  H   H24       1.0  0.37526  0.33481  0.03324  1.0000
  H   H25       1.0  0.39004  0.37557  0.12712  1.0000
  C   C17       1.0  0.46371  0.04630  0.06842  1.0000
  H   H26       1.0  0.35323  0.35690  0.01148  1.0000
  C   C18       1.0  0.41664  0.16891  0.46117  1.0000
  C   C19       1.0  0.42033  0.14605  0.46853  1.0000
  H   H27       1.0  0.41661  0.36990  0.25427  1.0000
  H   H28       1.0  0.36844  0.39830  0.10499  1.0000
  C   C20       1.0  0.36823  0.38566  0.43683  1.0000
  C   C21       1.0  0.39283  0.40710  0.43509  1.0000
  C   C22       1.0  0.41460  0.40458  0.43941  1.0000
  C   C23       1.0  0.41220  0.38055  0.44440  1.0000
  C   C24       1.0  0.41909  0.45178  0.06134  1.0000
  C   C25       1.0  0.47242  0.03869  0.01085  1.0000
  C   C26       1.0  0.21920  0.42851  0.02401  1.0000
  H   H29       1.0  0.36018  0.12327  0.44958  1.0000
  H   H30       1.0  0.15456  0.39329  0.48857  1.0000
  H   H31       1.0  0.08742  0.33857  0.47699  1.0000
  C   C27       1.0  0.33400  0.45799  0.27799  1.0000
  C   C28       1.0  0.31306  0.43302  0.27648  1.0000
  C   C29       1.0  0.30140  0.42194  0.24511  1.0000
  C   C30       1.0  0.31085  0.43548  0.21488  1.0000
  C   C31       1.0  0.33207  0.46023  0.21635  1.0000
  C   C32       1.0  0.34344  0.47144  0.24774  1.0000
  H   H32       1.0  0.30606  0.42223  0.29940  1.0000
  H   H33       1.0  0.28510  0.40270  0.24422  1.0000
  H   H34       1.0  0.44923  0.43078  0.02341  1.0000
  H   H35       1.0  0.43351  0.42137  0.43867  1.0000
  H   H36       1.0  0.47205  0.09527  0.07223  1.0000
  H   H37       1.0  0.44640  0.23438  0.14816  1.0000
  H   H38       1.0  0.38536  0.34028  0.44872  1.0000
  H   H39       1.0  0.13408  0.34815  0.48887  1.0000
  H   H40       1.0  0.45845  0.39816  0.38367  1.0000
  H   H41       1.0  0.43472  0.05373  0.04427  1.0000
  H   H42       1.0  0.46198  0.02796  0.07633  1.0000
  C   C33       1.0  0.48143  0.33721  0.22434  1.0000
  H   H43       1.0  0.43250  0.08954  0.49078  1.0000
  C   C34       1.0  0.41428  0.43071  0.00579  1.0000
  H   H44       1.0  0.37796  0.44163  0.02710  1.0000
  H   H45       1.0  0.09211  0.31196  0.47999  1.0000
  N   N1        1.0  0.26008  0.45593  0.33338  1.0000
  H   H46       1.0  0.24868  0.42818  0.37328  1.0000
  C   C35       1.0  0.42295  0.09926  0.47928  1.0000
  H   H47       1.0  0.22225  0.41877  0.04470  1.0000
  H   H48       1.0  0.19847  0.47727  0.02724  1.0000
  H   H49       1.0  0.13481  0.46472  0.06033  1.0000
  C   C36       1.0  0.11935  0.38935  0.47206  1.0000
  H   H50       1.0  0.40495  0.08399  0.46756  1.0000
  S   S20       1.0  0.46617  0.36472  0.10438  1.0000
  H   H51       1.0  0.29664  0.45756  0.33066  1.0000
  C   C37       1.0  0.39554  0.45742  0.01570  1.0000
  H   H52       1.0  0.48233  0.25356  0.45649  1.0000
  H   H53       1.0  0.37353  0.43261  0.48207  1.0000
  C   C38       1.0  0.46808  0.48108  0.01986  1.0000
  H   H54       1.0  0.43462  0.25432  0.13469  1.0000
  H   H55       1.0  0.37905  0.09945  0.46080  1.0000
  H   H56       1.0  0.21840  0.42584  0.29075  1.0000
  H   H57       1.0  0.39658  0.16328  0.45568  1.0000
  H   H58       1.0  0.34688  0.34475  0.44250  1.0000
  C   C39       1.0  0.48427  0.08217  0.02789  1.0000
  H   H59       1.0  0.25244  0.41034  0.30105  1.0000
  C   C40       1.0  0.22077  0.45841  0.35469  1.0000
  H   H60       1.0  0.11639  0.37437  0.45351  1.0000
  S   S21       1.0  0.26765  0.45058  0.43971  1.0000
  H   H61       1.0  0.46907  0.47440  0.04537  1.0000
  S   S22       1.0  0.33442  0.44826  0.46923  1.0000
  C   C41       1.0  0.43595  0.03987  0.06101  1.0000
  C   C42       1.0  0.38762  0.35891  0.44467  1.0000
  H   H62       1.0  0.33959  0.47088  0.19334  1.0000
  H   H63       1.0  0.12878  0.40771  0.45819  1.0000
  N   N2        1.0  0.30527  0.35238  0.15784  1.0000
  C   C43       1.0  0.28435  0.35067  0.17995  1.0000
  C   C44       1.0  0.30457  0.36440  0.12497  1.0000
  C   C45       1.0  0.33130  0.36865  0.17410  1.0000
  C   C46       1.0  0.30086  0.32585  0.15228  1.0000
  C   C47       1.0  0.28378  0.34140  0.21629  1.0000
  C   C48       1.0  0.28064  0.34857  0.10240  1.0000
  C   C49       1.0  0.33778  0.39549  0.18618  1.0000
  C   C50       1.0  0.31884  0.32360  0.12687  1.0000
  H   H64       1.0  0.28523  0.36939  0.18158  1.0000
  H   H65       1.0  0.26518  0.33735  0.16868  1.0000
  H   H66       1.0  0.32154  0.36908  0.10955  1.0000
  H   H67       1.0  0.30571  0.38303  0.12956  1.0000
  H   H68       1.0  0.33395  0.35877  0.19598  1.0000
  H   H69       1.0  0.34667  0.37179  0.15626  1.0000
  H   H70       1.0  0.30324  0.31789  0.17633  1.0000
  H   H71       1.0  0.28078  0.31247  0.14389  1.0000
  H   H72       1.0  0.30171  0.35392  0.23058  1.0000
  H   H73       1.0  0.26813  0.34186  0.23011  1.0000
  H   H74       1.0  0.27956  0.32139  0.21676  1.0000
  H   H75       1.0  0.28321  0.35893  0.07839  1.0000
  H   H76       1.0  0.27785  0.32969  0.09518  1.0000
  H   H77       1.0  0.26309  0.34628  0.11422  1.0000
  H   H78       1.0  0.32486  0.39479  0.20629  1.0000
  H   H79       1.0  0.33753  0.40729  0.16516  1.0000
  H   H80       1.0  0.35748  0.40568  0.19703  1.0000
  H   H81       1.0  0.31720  0.32976  0.10114  1.0000
  H   H82       1.0  0.31365  0.30328  0.12474  1.0000
  H   H83       1.0  0.33912  0.33451  0.13532  1.0000
  H   H84       1.0  0.48002  0.28091  0.13629  1.0000
  H   H85       1.0  0.42437  0.18327  0.48192  1.0000
  H   H86       1.0  0.47359  0.47126  0.00089  1.0000
  C   C51       1.0  0.36580  0.36152  0.44123  1.0000
  H   H87       1.0  0.19059  0.45274  0.47510  1.0000
  H   H88       1.0  0.46798  0.01944  0.01934  1.0000
  C   C52       1.0  0.44474  0.25104  0.15580  1.0000
  N   N3        1.0  0.41838  0.45461  0.02360  1.0000
  C   C53       1.0  0.23240  0.44362  0.27818  1.0000
  H   H89       1.0  0.45066  0.38535  0.26413  1.0000
  H   H90       1.0  0.41053  0.46743  0.46968  1.0000
  H   H91       1.0  0.42581  0.47141  0.10966  1.0000
  N   N4        1.0  0.42268  0.36738  0.32720  1.0000
  C   C54       1.0  0.42600  0.35336  0.29793  1.0000
  C   C55       1.0  0.41938  0.35185  0.35835  1.0000
  C   C56       1.0  0.44686  0.39324  0.33016  1.0000
  C   C57       1.0  0.39972  0.37008  0.31970  1.0000
  C   C58       1.0  0.43221  0.36696  0.26353  1.0000
  C   C59       1.0  0.39498  0.32523  0.35929  1.0000
  C   C60       1.0  0.45254  0.40738  0.36436  1.0000
  C   C61       1.0  0.38996  0.38006  0.34841  1.0000
  H   H92       1.0  0.44177  0.34960  0.30357  1.0000
  H   H93       1.0  0.40859  0.33431  0.29368  1.0000
  H   H94       1.0  0.41937  0.36185  0.38173  1.0000
  H   H95       1.0  0.43602  0.34900  0.36157  1.0000
  H   H96       1.0  0.46404  0.39154  0.32512  1.0000
  H   H97       1.0  0.44698  0.40648  0.31074  1.0000
  H   H98       1.0  0.40381  0.38344  0.29842  1.0000
  H   H99       1.0  0.38323  0.35178  0.31011  1.0000
  C   C62       1.0  0.44190  0.47804  0.01078  1.0000
  C   C63       1.0  0.46837  0.22462  0.03890  1.0000
  H   H100      1.0  0.22179  0.45367  0.43388  1.0000
  H   H101      1.0  0.37730  0.32614  0.35588  1.0000
  H   H102      1.0  0.39557  0.31188  0.34063  1.0000
  H   H103      1.0  0.39378  0.31682  0.38451  1.0000
  C   C64       1.0  0.25900  0.45788  0.29553  1.0000
  H   H104      1.0  0.04994  0.46545  0.01348  1.0000
  S   S23       1.0  0.47954  0.34472  0.47766  1.0000
  H   H105      1.0  0.39909  0.40119  0.34766  1.0000
  H   H106      1.0  0.39253  0.37436  0.37381  1.0000
  H   H107      1.0  0.36892  0.37164  0.34560  1.0000
  Fe  Fe14      1.0  0.48170  0.35563  0.05853  1.0000
  H   H108      1.0  0.41666  0.13530  0.44433  1.0000
  H   H109      1.0  0.27154  0.45195  0.28277  1.0000
  Fe  Fe15      1.0  0.35311  0.47723  0.07944  1.0000
  H   H110      1.0  0.16220  0.46109  0.05983  1.0000
  H   H111      1.0  0.28955  0.46470  0.37114  1.0000
  H   H112      1.0  0.42791  0.17894  0.43853  1.0000
  C   C65       1.0  0.47114  0.27535  0.16147  1.0000
  C   C66       1.0  0.47550  0.26880  0.22094  1.0000
  H   H113      1.0  0.42010  0.40829  0.04470  1.0000
  C   C67       1.0  0.19408  0.42271  0.01530  1.0000
  C   C68       1.0  0.42841  0.41763  0.02030  1.0000
  H   H114      1.0  0.43236  0.24642  0.17818  1.0000
  C   C69       1.0  0.22464  0.45192  0.46043  1.0000
  N   N5        1.0  0.48218  0.05763  0.03970  1.0000
  S   S24       1.0  0.48266  0.36435  0.39971  1.0000
  C   C70       1.0  0.24612  0.45037  0.47099  1.0000
  H   H115      1.0  0.42838  0.45189  0.47207  1.0000
  C   C71       1.0  0.15265  0.47004  0.04640  1.0000
  H   H116      1.0  0.43633  0.40896  0.37378  1.0000
  H   H117      1.0  0.48076  0.22881  0.06070  1.0000
  H   H118      1.0  0.47509  0.19487  0.02005  1.0000
  C   C72       1.0  0.24026  0.44671  0.00581  1.0000
  C   C73       1.0  0.37820  0.10887  0.48447  1.0000
  H   H119      1.0  0.44122  0.15462  0.47380  1.0000
  H   H120      1.0  0.27351  0.41565  0.33677  1.0000
  C   C74       1.0  0.24610  0.42868  0.34546  1.0000
  C   C75       1.0  0.20684  0.45146  0.48386  1.0000
  H   H121      1.0  0.42686  0.04059  0.08489  1.0000
  H   H122      1.0  0.39359  0.41561  0.00578  1.0000
  C   C76       1.0  0.43981  0.23266  0.00557  1.0000
  H   H123      1.0  0.42980  0.24293  0.00129  1.0000
  C   C77       1.0  0.42626  0.46722  0.48409  1.0000
  C   C78       1.0  0.06186  0.48149  0.99631  1.0000
  H   H124      1.0  0.36330  0.13548  0.49203  1.0000
  H   H125      1.0  0.46708  0.07853  0.01302  1.0000
  H   H126      1.0  0.42571  0.40211  0.00274  1.0000
  H   H127      1.0  0.47955  0.26584  0.27498  1.0000
  H   H128      1.0  0.23444  0.43749  0.25248  1.0000
  C   C79       1.0  0.28784  0.46740  0.34367  1.0000
  H   H129      1.0  0.42441  0.02054  0.04938  1.0000
  H   H130      1.0  0.22430  0.45633  0.27556  1.0000
  H   H131      1.0  0.25793  0.47624  0.37729  1.0000
  H   H132      1.0  0.00155  0.43689  0.48195  1.0000
  H   H133      1.0  0.21628  0.47273  0.36496  1.0000
  C   C80       1.0  0.25004  0.47117  0.35099  1.0000
  H   H134      1.0  0.45383  0.03581  0.00123  1.0000
  H   H135      1.0  0.10085  0.38667  0.48088  1.0000
  S   S25       1.0  0.45214  0.27153  0.49389  1.0000
  H   H136      1.0  0.25661  0.48968  0.33807  1.0000
  H   H137      1.0  0.35970  0.49072  0.24858  1.0000
  C   C81       1.0  0.09303  0.32812  0.49448  1.0000
  Fe  Fe16      1.0  0.12735  0.46393  0.61799  1.0000
  S   S26       1.0  0.12559  0.42758  0.60144  1.0000
  C   C82       1.0  0.38341  0.00129  0.86339  1.0000
  H   H138      1.0  0.44141  0.47855  0.98275  1.0000
  S   S27       1.0  0.11793  0.44124  0.52382  1.0000
  Fe  Fe17      1.0  0.09227  0.42121  0.56801  1.0000
  S   S28       1.0  0.05610  0.38228  0.55789  1.0000
  Fe  Fe18      1.0  0.15153  0.45064  0.55843  1.0000
  S   S29       1.0  0.18755  0.44717  0.54952  1.0000
  S   S30       1.0  0.09263  0.45594  0.58727  1.0000
  H   H139      1.0  0.45132  0.20295  0.56165  1.0000
  Fe  Fe19      1.0  0.12365  0.44504  0.86781  1.0000
  S   S31       1.0  0.10380  0.41397  0.90670  1.0000
  S   S32       1.0  0.12759  0.43224  0.81485  1.0000
  H   H140      1.0  0.38166  0.06445  0.89485  1.0000
  S   S33       1.0  0.11529  0.45863  0.96139  1.0000
  Fe  Fe20      1.0  0.13695  0.44016  0.94150  1.0000
  H   H141      1.0  0.39844  0.15697  0.52071  1.0000
  Fe  Fe21      1.0  0.08408  0.43533  0.92308  1.0000
  S   S34       1.0  0.04301  0.42615  0.93396  1.0000
  H   H142      1.0  0.12966  0.47991  0.79491  1.0000
  S   S35       1.0  0.10232  0.46480  0.88231  1.0000
  Fe  Fe22      1.0  0.44171  0.08764  0.95287  1.0000
  C   C83       1.0  0.14705  0.37646  0.55288  1.0000
  S   S36       1.0  0.41166  0.04796  0.97203  1.0000
  Fe  Fe23      1.0  0.45688  0.14524  0.94713  1.0000
  H   H143      1.0  0.43334  0.01254  0.86916  1.0000
  H   H144      1.0  0.19124  0.37406  0.91948  1.0000
  C   C84       1.0  0.40110  0.47539  0.57002  1.0000
  H   H145      1.0  0.12665  0.41492  0.74697  1.0000
  C   C85       1.0  0.09354  0.35089  0.57400  1.0000
  S   S37       1.0  0.43249  0.10955  0.91513  1.0000
  H   H146      1.0  0.38962  0.14039  0.57741  1.0000
  C   C86       1.0  0.17260  0.37959  0.54054  1.0000
  S   S38       1.0  0.44400  0.12833  0.59585  1.0000
  H   H147      1.0  0.45737  0.48639  0.54203  1.0000
  C   C87       1.0  0.45200  0.23295  0.53130  1.0000
  H   H148      1.0  0.47190  0.45590  0.54627  1.0000
  Fe  Fe24      1.0  0.47655  0.15342  0.56142  1.0000
  H   H149      1.0  0.20972  0.44386  0.84206  1.0000
  Fe  Fe25      1.0  0.44837  0.09526  0.57770  1.0000
  S   S39       1.0  0.41273  0.05862  0.55840  1.0000
  C   C88       1.0  0.37654  0.01075  0.53706  1.0000
  H   H150      1.0  0.47026  0.31039  0.95499  1.0000
  C   C89       1.0  0.47287  0.20880  0.51636  1.0000
  H   H151      1.0  0.39355  0.48835  0.57511  1.0000
  H   H152      1.0  0.20568  0.42950  0.90189  1.0000
  H   H153      1.0  0.42323  0.02082  0.59347  1.0000
  Fe  Fe26      1.0  0.11989  0.47670  0.54508  1.0000
  C   C90       1.0  0.46845  0.11647  0.79481  1.0000
  H   H154      1.0  0.16045  0.34953  0.86555  1.0000
  C   C91       1.0  0.39855  0.43402  0.52383  1.0000
  H   H155      1.0  0.48125  0.03035  0.96104  1.0000
  C   C92       1.0  0.23150  0.44764  0.52905  1.0000
  H   H156      1.0  0.15100  0.39105  0.92583  1.0000
  H   H157      1.0  0.39521  0.47833  0.51682  1.0000
  C   C93       1.0  0.99948  0.42627  0.50553  1.0000
  S   S40       1.0  0.46256  0.12233  0.98703  1.0000
  N   N6        1.0  0.40481  0.12824  0.49660  1.0000
  H   H158      1.0  0.47801  0.15386  0.81239  1.0000
  H   H159      1.0  0.44843  0.04688  0.87561  1.0000
  H   H160      1.0  0.48070  0.17104  0.75480  1.0000
  C   C94       1.0  0.01195  0.39817  0.93559  1.0000
  H   H161      1.0  0.26563  0.44699  0.51443  1.0000
  C   C95       1.0  0.38952  0.45818  0.97791  1.0000
  H   H162      1.0  0.14033  0.36149  0.57254  1.0000
  Fe  Fe27      1.0  0.13419  0.48666  0.91991  1.0000
  C   C96       1.0  0.38037  0.02662  0.81744  1.0000
  C   C97       1.0  0.45816  0.21386  0.53873  1.0000
  H   H163      1.0  0.14332  0.41117  0.86848  1.0000
  C   C98       1.0  0.02268  0.48320  0.89752  1.0000
  H   H164      1.0  0.18800  0.35770  0.84224  1.0000
  C   C99       1.0  0.02211  0.36871  0.56002  1.0000
  C   C100      1.0  0.21011  0.44932  0.51850  1.0000
  C   C101      1.0  0.00689  0.34541  0.54305  1.0000
  C   C102      1.0  0.46059  0.24754  0.50162  1.0000
  H   H165      1.0  0.01597  0.33691  0.52898  1.0000
  C   C103      1.0  0.12996  0.46724  0.71042  1.0000
  H   H166      1.0  0.41907  0.01876  0.81043  1.0000
  C   C104      1.0  0.12926  0.46965  0.77232  1.0000
  C   C105      1.0  0.12800  0.44608  0.77504  1.0000
  C   C106      1.0  0.12760  0.43313  0.74525  1.0000
  C   C107      1.0  0.12844  0.44354  0.71316  1.0000
  H   H167      1.0  0.44046  0.23643  0.54877  1.0000
  H   H168      1.0  0.19610  0.40205  0.94258  1.0000
  H   H169      1.0  0.35920  0.40612  0.50986  1.0000
  H   H170      1.0  0.12818  0.43336  0.69056  1.0000
  H   H171      1.0  0.01440  0.46412  0.90920  1.0000
  S   S41       1.0  0.44450  0.17526  0.95667  1.0000
  Fe  Fe28      1.0  0.47415  0.13474  0.63488  1.0000
  H   H172      1.0  0.07375  0.34653  0.57933  1.0000
  H   H173      1.0  0.45921  0.08145  0.76888  1.0000
  C   C108      1.0  0.18162  0.38296  0.93270  1.0000
  C   C109      1.0  0.40581  0.01682  0.96131  1.0000
  H   H174      1.0  0.43234  0.05139  0.82019  1.0000
  H   H175      1.0  0.17701  0.48338  0.98309  1.0000
  H   H176      1.0  0.00664  0.48432  0.88557  1.0000
  S   S42       1.0  0.15493  0.48754  0.57714  1.0000
  C   C110      1.0  0.39816  0.02447  0.55793  1.0000
  H   H177      1.0  0.37576  0.05031  0.78024  1.0000
  S   S43       1.0  0.46767  0.10351  0.83532  1.0000
  C   C111      1.0  0.12354  0.37163  0.85644  1.0000
  S   S44       1.0  0.47907  0.11991  0.54061  1.0000
  C   C112      1.0  0.38783  0.05302  0.80289  1.0000
  N   N7        1.0  0.17080  0.39913  0.87830  1.0000
  C   C113      1.0  0.46492  0.11058  0.73318  1.0000
  C   C114      1.0  0.04417  0.48358  0.96997  1.0000
  H   H178      1.0  0.39564  0.42787  0.55063  1.0000
  Fe  Fe29      1.0  0.46891  0.11757  0.88970  1.0000
  H   H179      1.0  0.03567  0.48472  0.87693  1.0000
  C   C115      1.0  0.40470  0.14324  0.52703  1.0000
  H   H180      1.0  0.20490  0.39665  0.86944  1.0000
  H   H181      1.0  0.11364  0.36704  0.88108  1.0000
  H   H182      1.0  0.46134  0.09847  0.71128  1.0000
  C   C116      1.0  0.44219  0.46582  0.54158  1.0000
  C   C117      1.0  0.46373  0.10099  0.76593  1.0000
  H   H183      1.0  0.45836  0.03432  0.84238  1.0000
  H   H184      1.0  0.03371  0.46471  0.95699  1.0000
  H   H185      1.0  0.38430  0.06476  0.82116  1.0000
  C   C118      1.0  0.40662  0.01062  0.57715  1.0000
  H   H186      1.0  0.40807  0.06386  0.79483  1.0000
  H   H187      1.0  0.19193  0.40218  0.83319  1.0000
  H   H188      1.0  0.16217  0.35960  0.82227  1.0000
  H   H189      1.0  0.10528  0.36069  0.59683  1.0000
  H   H190      1.0  0.02430  0.37081  0.93056  1.0000
  C   C119      1.0  0.19753  0.44659  0.86029  1.0000
  C   C120      1.0  0.47129  0.13599  0.72890  1.0000
  H   H191      1.0  0.07848  0.31958  0.51454  1.0000
  C   C121      1.0  0.42359  0.01306  0.94374  1.0000
  C   C122      1.0  0.47433  0.14170  0.79051  1.0000
  C   C123      1.0  0.14878  0.39757  0.85807  1.0000
  H   H192      1.0  0.18510  0.38252  0.56280  1.0000
  H   H193      1.0  0.39306  0.11384  0.56681  1.0000
  C   C124      1.0  0.00977  0.37927  0.57834  1.0000
  H   H194      1.0  0.17210  0.37111  0.95514  1.0000
  H   H195      1.0  0.40502  0.47514  0.96519  1.0000
  S   S45       1.0  0.15758  0.46968  0.90184  1.0000
  S   S46       1.0  0.48011  0.18386  0.52308  1.0000
  H   H196      1.0  0.16990  0.36248  0.52670  1.0000
  H   H197      1.0  0.00438  0.43933  0.52752  1.0000
  H   H198      1.0  0.44134  0.02942  0.93577  1.0000
  C   C125      1.0  0.12032  0.34473  0.50946  1.0000
  C   C126      1.0  0.37225  0.42717  0.50890  1.0000
  H   H199      1.0  0.14367  0.40974  0.51427  1.0000
  H   H200      1.0  0.41402  0.06675  0.86149  1.0000
  H   H201      1.0  0.42427  0.20910  0.96064  1.0000
  C   C127      1.0  0.44930  0.19942  0.98724  1.0000
  C   C128      1.0  0.17311  0.36294  0.84624  1.0000
  H   H202      1.0  0.18156  0.44680  0.84669  1.0000
  H   H203      1.0  0.38526  0.45568  0.57463  1.0000
  N   N8        1.0  0.39698  0.02680  0.84616  1.0000
  H   H204      1.0  0.35987  0.01716  0.82465  1.0000
  C   C129      1.0  0.00806  0.37344  0.93360  1.0000
  H   H205      1.0  0.15456  0.40364  0.83154  1.0000
  S   S47       1.0  0.47624  0.10020  0.61907  1.0000
  C   C130      1.0  0.42214  0.03213  0.83164  1.0000
  H   H206      1.0  0.14648  0.36354  0.90493  1.0000
  C   C131      1.0  0.18621  0.39126  0.85712  1.0000
  H   H207      1.0  0.40696  0.09956  0.52690  1.0000
  C   C132      1.0  0.10382  0.36850  0.54307  1.0000
  C   C133      1.0  0.38754  0.12726  0.55641  1.0000
  H   H208      1.0  0.37375  0.03400  0.91252  1.0000
  H   H209      1.0  0.36701  0.11658  0.54897  1.0000
  C   C134      1.0  0.37813  0.04506  0.88878  1.0000
  C   C135      1.0  0.41067  0.47939  0.53337  1.0000
  H   H210      1.0  0.41688  0.48061  0.58848  1.0000
  H   H211      1.0  0.39355  0.00168  0.88700  1.0000
  H   H212      1.0  0.40402  0.42123  0.51080  1.0000
  H   H213      1.0  0.15148  0.39441  0.56645  1.0000
  H   H214      1.0  0.36409  0.99680  0.87186  1.0000
  H   H215      1.0  0.25168  0.47320  0.96463  1.0000
  H   H216      1.0  0.20759  0.46328  0.94989  1.0000
  S   S48       1.0  0.47720  0.09442  0.92687  1.0000
  C   C136      1.0  0.45438  0.44993  0.53074  1.0000
  H   H217      1.0  0.36309  0.43593  0.52346  1.0000
  H   H218      1.0  0.08746  0.36241  0.52531  1.0000
  H   H219      1.0  0.17824  0.43252  0.90742  1.0000
  H   H220      1.0  0.02120  0.39707  0.59199  1.0000
  C   C137      1.0  0.24938  0.44826  0.50563  1.0000
  H   H221      1.0  0.10852  0.38788  0.55160  1.0000
  C   C138      1.0  0.47582  0.15138  0.75777  1.0000
  H   H222      1.0  0.36898  0.99779  0.98529  1.0000
  H   H223      1.0  0.36861  0.09271  0.50246  1.0000
  H   H224      1.0  0.38526  0.44047  0.96423  1.0000
  H   H225      1.0  0.36082  0.03603  0.87250  1.0000
  H   H226      1.0  0.12609  0.35574  0.84803  1.0000
  H   H227      1.0  0.41403  0.04689  0.89312  1.0000
  H   H228      1.0  0.20954  0.46595  0.87160  1.0000
  H   H229      1.0  0.09298  0.33255  0.57004  1.0000
  H   H230      1.0  0.42454  0.15543  0.53722  1.0000
  C   C139      1.0  0.18811  0.42671  0.88887  1.0000
  C   C140      1.0  0.44132  0.03125  0.85659  1.0000
  C   C141      1.0  0.16115  0.38374  0.91016  1.0000
  C   C142      1.0  0.40207  0.04721  0.87192  1.0000
  H   H231      1.0  0.43678  0.46090  0.56841  1.0000
  H   H232      1.0  0.01398  0.42022  0.50489  1.0000
  H   H233      1.0  0.23432  0.44586  0.55566  1.0000
  C   C143      1.0  0.43671  0.21338  0.98244  1.0000
  H   H234      1.0  0.12278  0.33215  0.52760  1.0000
  H   H235      1.0  0.44134  0.42924  0.53525  1.0000
  H   H236      1.0  0.41952  0.43455  0.97870  1.0000
  C   C144      1.0  0.99048  0.40107  0.93977  1.0000
  S   S49       1.0  0.13203  0.48175  0.67060  1.0000
  H   H237      1.0  0.11042  0.37305  0.83795  1.0000
  N   N9        1.0  0.12660  0.36971  0.52614  1.0000
  H   H238      1.0  0.36968  0.02097  0.52215  1.0000
  H   H239      1.0  0.99315  0.42002  0.94142  1.0000
  H   H240      1.0  0.38053  0.01485  0.79592  1.0000
  C   C145      1.0  0.13037  0.48019  0.74022  1.0000
  H   H241      1.0  0.46025  0.45268  0.50398  1.0000
  C   C146      1.0  0.23563  0.45907  0.97894  1.0000
  N   N10       1.0  0.41943  0.46161  0.52080  1.0000
  H   H242      1.0  0.06447  0.48014  0.91219  1.0000
  H   H243      1.0  0.48092  0.34195  0.96977  1.0000
  S   S50       1.0  0.47552  0.15002  0.68836  1.0000
  H   H244      1.0  0.02918  0.48511  0.98403  1.0000
  C   C147      1.0  0.21055  0.45346  0.97047  1.0000
  S   S51       1.0  0.15716  0.42663  0.97862  1.0000
  H   H245      1.0  0.37208  0.45973  0.97570  1.0000
  C   C148      1.0  0.13727  0.39122  0.50105  1.0000
  H   H246      1.0  0.48046  0.27646  0.98529  1.0000
  H   H247      1.0  0.07552  0.47681  0.98454  1.0000
  H   H248      1.0  0.43700  0.12733  0.51914  1.0000
  H   H249      1.0  0.47593  0.28821  0.57003  1.0000
  C   C149      1.0  0.18948  0.43507  0.98847  1.0000
  C   C150      1.0  0.41804  0.11394  0.50735  1.0000
  C   C151      1.0  0.38287  0.99520  0.97153  1.0000
  H   H250      1.0  0.18338  0.39673  0.52478  1.0000
  Fe  Fe30      1.0  0.15537  0.68585  0.45546  1.0000
  S   S52       1.0  0.17497  0.67489  0.41640  1.0000
  H   H251      1.0  0.47816  0.81375  0.23094  1.0000
  Fe  Fe31      1.0  0.10209  0.63683  0.43960  1.0000
  S   S53       1.0  0.11872  0.62285  0.40009  1.0000
  S   S54       1.0  0.06046  0.60988  0.45577  1.0000
  Fe  Fe32      1.0  0.15139  0.63478  0.43708  1.0000
  S   S55       1.0  0.16974  0.61120  0.45083  1.0000
  Fe  Fe33      1.0  0.14055  0.66366  0.38254  1.0000
  S   S56       1.0  0.13971  0.67751  0.32901  1.0000
  S   S57       1.0  0.13372  0.64632  0.47773  1.0000
  S   S58       1.0  0.12213  0.67708  0.42038  1.0000
  Fe  Fe34      1.0  0.13100  0.61215  0.06818  1.0000
  S   S59       1.0  0.12341  0.63979  0.03984  1.0000
  S   S60       1.0  0.12088  0.57155  0.05510  1.0000
  Fe  Fe35      1.0  0.14709  0.64512  0.13346  1.0000
  S   S61       1.0  0.14087  0.67505  0.10967  1.0000
  S   S62       1.0  0.16162  0.64367  0.18629  1.0000
  Fe  Fe36      1.0  0.10422  0.64146  0.08788  1.0000
  S   S63       1.0  0.06519  0.63767  0.09862  1.0000
  Fe  Fe37      1.0  0.16079  0.67112  0.06371  1.0000
  S   S64       1.0  0.19715  0.70177  0.03587  1.0000
  S   S65       1.0  0.11000  0.61239  0.11440  1.0000
  S   S66       1.0  0.16875  0.64260  0.08926  1.0000
  S   S67       1.0  0.40582  0.51281  0.45983  1.0000
  S   S68       1.0  0.39105  0.51487  0.08135  1.0000
  H   H252      1.0  0.48221  0.68295  0.46443  1.0000
  S   S69       1.0  0.44916  0.81994  0.08192  1.0000
  C   C152      1.0  0.41011  0.52701  0.04508  1.0000
  C   C153      1.0  0.43599  0.54617  0.04861  1.0000
  H   H253      1.0  0.38685  0.83343  0.01904  1.0000
  H   H254      1.0  0.44409  0.55294  0.07355  1.0000
  H   H255      1.0  0.48443  0.90792  0.42256  1.0000
  H   H256      1.0  0.40089  0.60887  0.04345  1.0000
  H   H257      1.0  0.04917  0.66761  0.48574  1.0000
  H   H258      1.0  0.21017  0.57465  0.02608  1.0000
  H   H259      1.0  0.29277  0.87521  0.41416  1.0000
  H   H260      1.0  0.41947  0.82221  0.25484  1.0000
  C   C154      1.0  0.03359  0.61285  0.08692  1.0000
  C   C155      1.0  0.02904  0.59508  0.06124  1.0000
  C   C156      1.0  0.01236  0.61161  0.10309  1.0000
  H   H261      1.0  0.04507  0.59589  0.04830  1.0000
  H   H262      1.0  0.01552  0.62546  0.12257  1.0000
  C   C157      1.0  0.13155  0.56120  0.02055  1.0000
  C   C158      1.0  0.31859  0.89554  0.47284  1.0000
  H   H263      1.0  0.45702  0.55076  0.47695  1.0000
  H   H264      1.0  0.07259  0.55694  0.99833  1.0000
  H   H265      1.0  0.44149  0.68080  0.02816  1.0000
  C   C159      1.0  0.43570  0.82427  0.04464  1.0000
  H   H266      1.0  0.11698  0.71912  0.48449  1.0000
  H   H267      1.0  0.06559  0.70220  0.44962  1.0000
  S   S70       1.0  0.28166  0.81828  0.99919  1.0000
  C   C160      1.0  0.24291  0.73973  0.00889  1.0000
  S   S71       1.0  0.45908  0.85225  0.44508  1.0000
  H   H268      1.0  0.09605  0.66978  0.20472  1.0000
  C   C161      1.0  0.47770  0.63729  0.04766  1.0000
  H   H269      1.0  0.43279  0.79883  0.15407  1.0000
  H   H270      1.0  0.00054  0.56406  0.03050  1.0000
  C   C162      1.0  0.02956  0.60526  0.44620  1.0000
  C   C163      1.0  0.02604  0.62422  0.43159  1.0000
  C   C164      1.0  0.40327  0.83095  0.01728  1.0000
  H   H271      1.0  0.04253  0.64220  0.42460  1.0000
  H   H272      1.0  0.40604  0.82678  0.07097  1.0000
  H   H273      1.0  0.06590  0.65154  0.18179  1.0000
  C   C165      1.0  0.41420  0.82723  0.04664  1.0000
  C   C166      1.0  0.15221  0.58060  0.46942  1.0000
  H   H274      1.0  0.41096  0.78845  0.20927  1.0000
  H   H275      1.0  0.27191  0.83384  0.49074  1.0000
  C   C167      1.0  0.14676  0.66833  0.28982  1.0000
  C   C168      1.0  0.15388  0.64980  0.28734  1.0000
  C   C169      1.0  0.15865  0.64273  0.25548  1.0000
  C   C170      1.0  0.15582  0.65365  0.22574  1.0000
  C   C171      1.0  0.14901  0.67241  0.22823  1.0000
  C   C172      1.0  0.14466  0.67978  0.26011  1.0000
  H   H276      1.0  0.15575  0.64097  0.30999  1.0000
  H   H277      1.0  0.16421  0.62842  0.25388  1.0000
  H   H278      1.0  0.14714  0.68127  0.20565  1.0000
  H   H279      1.0  0.13934  0.69426  0.26183  1.0000
  H   H280      1.0  0.48341  0.65772  0.04641  1.0000
  H   H281      1.0  0.45205  0.49590  0.44886  1.0000
  H   H282      1.0  0.45352  0.90936  0.03139  1.0000
  H   H283      1.0  0.25256  0.85561  0.46980  1.0000
  H   H284      1.0  0.34152  0.93517  0.45779  1.0000
  C   C173      1.0  0.47622  0.82915  0.21870  1.0000
  H   H285      1.0  0.99853  0.63490  0.41571  1.0000
  H   H286      1.0  0.32520  0.50221  0.34511  1.0000
  H   H287      1.0  0.08368  0.65924  0.48268  1.0000
  H   H288      1.0  0.29934  0.84267  0.43664  1.0000
  H   H289      1.0  0.15688  0.50657  0.03669  1.0000
  H   H290      1.0  0.29966  0.50822  0.35063  1.0000
  N   N11       1.0  0.29252  0.87509  0.48451  1.0000
  H   H291      1.0  0.43096  0.65040  0.42877  1.0000
  H   H292      1.0  0.11587  0.52338  0.04079  1.0000
  H   H293      1.0  0.46200  0.65988  0.00034  1.0000
  C   C174      1.0  0.46253  0.66594  0.46593  1.0000
  H   H294      1.0  0.42693  0.59018  0.47350  1.0000
  H   H295      1.0  0.43600  0.76466  0.18236  1.0000
  H   H296      1.0  0.41916  0.60953  0.44688  1.0000
  H   H297      1.0  0.24375  0.49712  0.03380  1.0000
  C   C175      1.0  0.12562  0.53566  0.01970  1.0000
  H   H298      1.0  0.46187  0.85231  0.14292  1.0000
  H   H299      1.0  0.43387  0.78302  0.23028  1.0000
  H   H300      1.0  0.19939  0.75127  0.04580  1.0000
  C   C176      1.0  0.00367  0.57694  0.05126  1.0000
  H   H301      1.0  0.44130  0.84767  0.21441  1.0000
  C   C177      1.0  0.44838  0.61926  0.04583  1.0000
  C   C178      1.0  0.39974  0.51855  0.01278  1.0000
  C   C179      1.0  0.20819  0.49744  0.03631  1.0000
  H   H302      1.0  0.45112  0.50923  0.48848  1.0000
  C   C180      1.0  0.23566  0.78020  0.02523  1.0000
  C   C181      1.0  0.45093  0.49269  0.47653  1.0000
  C   C182      1.0  0.45187  0.65761  0.42974  1.0000
  H   H303      1.0  0.99008  0.57258  0.30082  1.0000
  H   H304      1.0  0.44017  0.62287  0.06877  1.0000
  H   H305      1.0  0.46847  0.88069  0.06695  1.0000
  H   H306      1.0  0.47561  0.61929  0.49207  1.0000
  H   H307      1.0  0.44119  0.81366  0.27513  1.0000
  H   H308      1.0  0.21321  0.54191  0.05997  1.0000
  H   H309      1.0  0.39575  0.60829  0.99966  1.0000
  C   C183      1.0  0.29197  0.85015  0.48915  1.0000
  H   H310      1.0  0.46658  0.81844  0.15291  1.0000
  H   H311      1.0  0.22290  0.72690  0.48029  1.0000
  C   C184      1.0  0.44366  0.83806  0.19218  1.0000
  N   N12       1.0  0.48661  0.91163  0.00659  1.0000
  H   H312      1.0  0.30140  0.82295  0.46813  1.0000
  C   C185      1.0  0.45368  0.78141  0.17282  1.0000
  H   H313      1.0  0.33357  0.89821  0.49166  1.0000
  H   H314      1.0  0.31933  0.93069  0.48972  1.0000
  H   H315      1.0  0.20840  0.49652  0.06440  1.0000
  H   H316      1.0  0.46840  0.49244  0.48429  1.0000
  C   C186      1.0  0.16954  0.49946  0.04573  1.0000
  H   H317      1.0  0.44876  0.87989  0.01717  1.0000
  C   C187      1.0  0.41801  0.53636  0.49224  1.0000
  H   H318      1.0  0.44062  0.49290  0.07550  1.0000
  C   C188      1.0  0.39588  0.57521  0.01905  1.0000
  H   H319      1.0  0.46235  0.82214  0.01122  1.0000
  C   C189      1.0  0.41945  0.60351  0.47304  1.0000
  H   H320      1.0  0.99030  0.60715  0.35544  1.0000
  N   N13       1.0  0.22008  0.72287  0.15752  1.0000
  C   C190      1.0  0.22011  0.71341  0.19275  1.0000
  C   C191      1.0  0.21317  0.70085  0.13363  1.0000
  C   C192      1.0  0.19944  0.72977  0.15592  1.0000
  C   C193      1.0  0.24612  0.74583  0.15083  1.0000
  C   C194      1.0  0.22339  0.73164  0.22212  1.0000
  C   C195      1.0  0.23100  0.68965  0.13484  1.0000
  C   C196      1.0  0.19535  0.73931  0.12184  1.0000
  C   C197      1.0  0.25400  0.75211  0.11342  1.0000
  H   H321      1.0  0.20204  0.69511  0.19736  1.0000
  H   H322      1.0  0.23572  0.70901  0.19599  1.0000
  H   H323      1.0  0.21225  0.70572  0.10703  1.0000
  H   H324      1.0  0.19348  0.68489  0.13884  1.0000
  H   H325      1.0  0.18068  0.71308  0.16333  1.0000
  H   H326      1.0  0.20347  0.74535  0.17418  1.0000
  H   H327      1.0  0.24783  0.76326  0.16281  1.0000
  H   H328      1.0  0.26131  0.74324  0.16292  1.0000
  H   H329      1.0  0.23989  0.75118  0.21858  1.0000
  H   H330      1.0  0.20561  0.73228  0.22614  1.0000
  H   H331      1.0  0.22688  0.72415  0.24587  1.0000
  H   H332      1.0  0.25152  0.70462  0.13450  1.0000
  H   H333      1.0  0.22706  0.67741  0.15733  1.0000
  H   H334      1.0  0.22710  0.67714  0.11236  1.0000
  H   H335      1.0  0.17848  0.74182  0.12374  1.0000
  H   H336      1.0  0.19106  0.72557  0.10088  1.0000
  H   H337      1.0  0.21187  0.75831  0.11558  1.0000
  H   H338      1.0  0.26524  0.77319  0.11042  1.0000
  H   H339      1.0  0.23809  0.74500  0.09496  1.0000
  H   H340      1.0  0.26710  0.74520  0.10600  1.0000
  H   H341      1.0  0.05222  0.52451  0.00974  1.0000
  C   C198      1.0  0.47517  0.63281  0.47357  1.0000
  H   H342      1.0  0.07225  0.49891  0.01223  1.0000
  H   H343      1.0  0.01107  0.59519  0.34849  1.0000
  C   C199      1.0  0.30544  0.49618  0.33653  1.0000
  C   C200      1.0  0.26190  0.76510  0.00082  1.0000
  C   C201      1.0  0.45142  0.55670  0.02001  1.0000
  H   H344      1.0  0.44503  0.59960  0.04901  1.0000
  H   H345      1.0  0.47724  0.95034  0.02127  1.0000
  C   C202      1.0  0.30569  0.84269  0.46279  1.0000
  H   H346      1.0  0.01022  0.56723  0.46656  1.0000
  H   H347      1.0  0.37486  0.56518  0.02298  1.0000
  N   N14       1.0  0.45032  0.81807  0.20168  1.0000
  C   C203      1.0  0.42425  0.85784  0.48242  1.0000
  C   C204      1.0  0.25841  0.78563  0.00876  1.0000
  C   C205      1.0  0.16478  0.56717  0.47763  1.0000
  C   C206      1.0  0.45061  0.80501  0.16924  1.0000
  N   N15       1.0  0.07250  0.61461  0.22047  1.0000
  C   C207      1.0  0.08601  0.60088  0.23256  1.0000
  C   C208      1.0  0.07304  0.63117  0.24939  1.0000
  C   C209      1.0  0.08682  0.63083  0.19051  1.0000
  C   C210      1.0  0.04557  0.59474  0.21018  1.0000
  C   C211      1.0  0.09183  0.58621  0.20548  1.0000
  C   C212      1.0  0.05994  0.61714  0.28212  1.0000
  C   C213      1.0  0.08569  0.65532  0.18452  1.0000
  C   C214      1.0  0.02798  0.60461  0.19799  1.0000
  H   H348      1.0  0.10465  0.61461  0.24491  1.0000
  H   H349      1.0  0.07467  0.58661  0.25217  1.0000
  H   H350      1.0  0.06421  0.64264  0.24246  1.0000
  H   H351      1.0  0.09322  0.64552  0.25623  1.0000
  H   H352      1.0  0.10757  0.63750  0.19252  1.0000
  H   H353      1.0  0.08024  0.61937  0.16669  1.0000
  H   H354      1.0  0.04588  0.58305  0.18871  1.0000
  H   H355      1.0  0.03563  0.58033  0.23019  1.0000
  H   H356      1.0  0.10551  0.59912  0.18647  1.0000
  H   H357      1.0  0.10126  0.57672  0.21794  1.0000
  H   H358      1.0  0.07433  0.57101  0.19271  1.0000
  H   H359      1.0  0.06057  0.63130  0.30056  1.0000
  H   H360      1.0  0.03953  0.60253  0.27793  1.0000
  H   H361      1.0  0.07030  0.60854  0.29436  1.0000
  H   H362      1.0  0.23262  0.79578  0.03165  1.0000
  C   C215      1.0  0.43613  0.66125  0.03634  1.0000
  H   H363      1.0  0.45702  0.77586  0.14745  1.0000
  H   H364      1.0  0.41553  0.65130  0.04271  1.0000
  H   H365      1.0  0.41553  0.85739  0.45831  1.0000
  C   C216      1.0  0.00778  0.58200  0.45507  1.0000
  C   C217      1.0  0.22017  0.73431  0.02540  1.0000
  C   C218      1.0  0.42472  0.80730  0.25749  1.0000
  C   C219      1.0  0.08439  0.70321  0.45120  1.0000
  H   H366      1.0  0.00768  0.58923  0.20065  1.0000
  H   H367      1.0  0.48492  0.63458  0.07221  1.0000
  C   C220      1.0  0.45809  0.90037  0.01015  1.0000
  H   H368      1.0  0.32434  0.89010  0.44924  1.0000
  C   C221      1.0  0.27123  0.87164  0.46117  1.0000
  H   H369      1.0  0.45128  0.67399  0.47697  1.0000
  H   H370      1.0  0.26295  0.87288  0.40794  1.0000
  C   C222      1.0  0.44598  0.82466  0.01308  1.0000
  H   H371      1.0  0.48287  0.86843  0.17870  1.0000
  N   N16       1.0  0.19357  0.51018  0.02490  1.0000
  H   H372      1.0  0.47131  0.57151  0.02290  1.0000
  H   H373      1.0  0.44772  0.66348  0.05926  1.0000
  H   H374      1.0  0.17911  0.54908  0.03589  1.0000
  H   H375      1.0  0.09561  0.66412  0.16060  1.0000
  H   H376      1.0  0.24874  0.52842  0.03834  1.0000
  C   C223      1.0  0.15130  0.54262  0.49191  1.0000
  C   C224      1.0  0.19651  0.55402  0.02126  1.0000
  H   H377      1.0  0.45796  0.87466  0.16739  1.0000
  H   H378      1.0  0.18497  0.57568  0.47244  1.0000
  C   C225      1.0  0.27303  0.86561  0.42381  1.0000
  C   C226      1.0  0.00105  0.62001  0.42659  1.0000
  C   C227      1.0  0.20898  0.53849  0.03239  1.0000
  H   H379      1.0  0.40406  0.56958  0.04007  1.0000
  H   H380      1.0  0.11614  0.57944  0.46974  1.0000
  H   H381      1.0  0.45570  0.64321  0.41861  1.0000
  H   H382      1.0  0.26381  0.84466  0.41953  1.0000
  C   C228      1.0  0.44607  0.85535  0.48351  1.0000
  N   N17       1.0  0.46182  0.64576  0.48862  1.0000
  C   C229      1.0  0.99050  0.58941  0.34921  1.0000
  H   H383      1.0  0.47567  0.92643  0.44810  1.0000
  H   H384      1.0  0.02979  0.62074  0.21318  1.0000
  C   C230      1.0  0.42953  0.79818  0.22348  1.0000
  N   N18       1.0  0.43516  0.62074  0.01424  1.0000
  C   C231      1.0  0.21673  0.75486  0.03343  1.0000
  C   C232      1.0  0.11260  0.54481  0.49016  1.0000
  H   H385      1.0  0.39925  0.59227  0.48141  1.0000
  H   H386      1.0  0.26846  0.88840  0.46226  1.0000
  H   H387      1.0  0.09732  0.71805  0.43318  1.0000
  C   C233      1.0  0.46292  0.85943  0.16903  1.0000
  C   C234      1.0  0.32169  0.92198  0.46643  1.0000
  C   C235      1.0  0.44157  0.64770  0.00736  1.0000
  H   H388      1.0  0.32682  0.85514  0.46500  1.0000
  H   H389      1.0  0.40821  0.79084  0.26979  1.0000
  H   H390      1.0  0.03151  0.61015  0.17103  1.0000
  S   S72       1.0  0.17215  0.72236  0.48910  1.0000
  H   H391      1.0  0.42461  0.82892  0.17915  1.0000
  C   C236      1.0  0.40662  0.60429  0.01899  1.0000
  H   H392      1.0  0.08197  0.68475  0.44264  1.0000
  H   H393      1.0  0.30680  0.50038  0.30920  1.0000
  H   H394      1.0  0.22810  0.54774  0.02071  1.0000
  C   C237      1.0  0.23638  0.50972  0.02563  1.0000
  H   H395      1.0  0.48282  0.50175  0.02014  1.0000
  C   C238      1.0  0.12607  0.56936  0.47601  1.0000
  H   H396      1.0  0.46472  0.62071  0.45140  1.0000
  H   H397      1.0  0.24605  0.72418  0.00268  1.0000
  H   H398      1.0  0.30844  0.92120  0.44640  1.0000
  H   H399      1.0  0.23878  0.51154  0.99802  1.0000
  H   H400      1.0  0.17431  0.50601  0.07253  1.0000
  H   H401      1.0  0.37971  0.50427  0.00969  1.0000
  H   H402      1.0  0.44225  0.49595  0.01826  1.0000
  H   H403      1.0  0.46806  0.85378  0.25349  1.0000
  H   H404      1.0  0.47031  0.78529  0.18896  1.0000
  C   C239      1.0  0.09591  0.71073  0.48719  1.0000
  C   C240      1.0  0.48353  0.85045  0.24559  1.0000
  H   H405      1.0  0.46164  0.67437  0.41288  1.0000
  H   H406      1.0  0.39890  0.56806  0.99475  1.0000
  Fe  Fe38      1.0  0.31684  0.84081  0.57237  1.0000
  S   S73       1.0  0.34157  0.83738  0.61282  1.0000
  S   S74       1.0  0.28606  0.80415  0.54401  1.0000
  Fe  Fe39      1.0  0.35050  0.90019  0.57363  1.0000
  S   S75       1.0  0.37699  0.89996  0.61280  1.0000
  S   S76       1.0  0.35360  0.93577  0.54884  1.0000
  Fe  Fe40      1.0  0.37529  0.86725  0.58392  1.0000
  S   S77       1.0  0.41228  0.86602  0.58175  1.0000
  Fe  Fe41      1.0  0.34161  0.87031  0.63932  1.0000
  S   S78       1.0  0.34585  0.88126  0.69545  1.0000
  S   S79       1.0  0.35113  0.86929  0.54221  1.0000
  S   S80       1.0  0.31457  0.87202  0.60109  1.0000
  Fe  Fe42      1.0  0.33256  0.84544  0.89058  1.0000
  S   S81       1.0  0.31949  0.86623  0.92477  1.0000
  S   S82       1.0  0.31446  0.82747  0.83939  1.0000
  Fe  Fe43      1.0  0.36935  0.84588  0.94507  1.0000
  H   H407      1.0  0.22329  0.53600  0.96960  1.0000
  S   S83       1.0  0.40129  0.83670  0.94811  1.0000
  Fe  Fe44      1.0  0.31755  0.83887  0.96529  1.0000
  H   H408      1.0  0.13313  0.73496  0.53636  1.0000
  Fe  Fe45      1.0  0.36132  0.89183  0.93966  1.0000
  S   S84       1.0  0.39011  0.93535  0.93645  1.0000
  S   S85       1.0  0.32875  0.81722  0.93015  1.0000
  S   S86       1.0  0.37394  0.87214  0.90264  1.0000
  H   H409      1.0  0.28609  0.90055  0.51645  1.0000
  S   S87       1.0  0.15148  0.52931  0.92791  1.0000
  H   H410      1.0  0.05002  0.69042  0.51499  1.0000
  S   S88       1.0  0.45899  0.56082  0.95082  1.0000
  H   H411      1.0  0.08561  0.63393  0.52281  1.0000
  H   H412      1.0  0.10136  0.53485  0.57480  1.0000
  H   H413      1.0  0.44663  0.89207  0.95632  1.0000
  H   H414      1.0  0.40697  0.52213  0.95937  1.0000
  H   H415      1.0  0.48389  0.89289  0.95875  1.0000
  C   C241      1.0  0.44007  0.57390  0.54402  1.0000
  C   C242      1.0  0.45568  0.57092  0.52097  1.0000
  C   C243      1.0  0.47599  0.65878  0.52089  1.0000
  H   H416      1.0  0.35979  0.95380  0.97203  1.0000
  H   H417      1.0  0.40108  0.56013  0.55888  1.0000
  C   C244      1.0  0.46377  0.67079  0.54284  1.0000
  C   C245      1.0  0.15059  0.56711  0.96517  1.0000
  H   H418      1.0  0.43208  0.59522  0.93448  1.0000
  H   H419      1.0  0.21278  0.50515  0.95111  1.0000
  H   H420      1.0  0.44155  0.62863  0.93717  1.0000
  C   C246      1.0  0.39539  0.96638  0.94662  1.0000
  H   H421      1.0  0.04397  0.52348  0.90974  1.0000
  C   C247      1.0  0.37758  0.97017  0.96408  1.0000
  H   H422      1.0  0.47683  0.69908  0.85424  1.0000
  H   H423      1.0  0.47984  0.92480  0.55141  1.0000
  H   H424      1.0  0.12865  0.72406  0.57880  1.0000
  H   H425      1.0  0.08686  0.68842  0.56803  1.0000
  H   H426      1.0  0.47568  0.67915  0.56598  1.0000
  C   C248      1.0  0.44371  0.90146  0.97849  1.0000
  H   H427      1.0  0.45483  0.67266  0.90044  1.0000
  H   H428      1.0  0.36813  0.97571  0.81877  1.0000
  H   H429      1.0  0.99460  0.52405  0.96264  1.0000
  C   C249      1.0  0.17140  0.60572  0.57681  1.0000
  C   C250      1.0  0.14985  0.56939  0.63649  1.0000
  H   H430      1.0  0.16969  0.50772  0.98216  1.0000
  C   C251      1.0  0.37943  0.97822  0.84209  1.0000
  C   C252      1.0  0.41359  0.83133  0.98571  1.0000
  H   H431      1.0  0.47222  0.65888  0.88298  1.0000
  H   H432      1.0  0.11483  0.68227  0.49641  1.0000
  H   H433      1.0  0.45516  0.85942  0.56885  1.0000
  C   C253      1.0  0.37164  0.96988  0.55408  1.0000
  C   C254      1.0  0.09459  0.70223  0.54717  1.0000
  C   C255      1.0  0.05641  0.67632  0.51115  1.0000
  N   N19       1.0  0.05703  0.50475  0.94464  1.0000
  H   H434      1.0  0.19194  0.55184  0.99387  1.0000
  C   C256      1.0  0.42464  0.86149  0.54360  1.0000
  H   H435      1.0  0.48061  0.68005  0.81155  1.0000
  H   H436      1.0  0.48321  0.67795  0.92142  1.0000
  H   H437      1.0  0.24643  0.85709  0.52441  1.0000
  H   H438      1.0  0.09336  0.72686  0.49544  1.0000
  C   C257      1.0  0.33613  0.86566  0.73499  1.0000
  C   C258      1.0  0.31888  0.83943  0.73779  1.0000
  C   C259      1.0  0.31248  0.82804  0.76992  1.0000
  C   C260      1.0  0.32336  0.84266  0.79953  1.0000
  C   C261      1.0  0.34068  0.86885  0.79669  1.0000
  C   C262      1.0  0.34687  0.88026  0.76463  1.0000
  H   H439      1.0  0.31045  0.82795  0.71525  1.0000
  H   H440      1.0  0.29903  0.80777  0.77183  1.0000
  H   H441      1.0  0.34911  0.88036  0.81921  1.0000
  H   H442      1.0  0.36016  0.90058  0.76279  1.0000
  C   C263      1.0  0.25418  0.78163  0.52901  1.0000
  C   C264      1.0  0.23287  0.78389  0.53678  1.0000
  C   C265      1.0  0.41847  0.98805  0.93669  1.0000
  H   H443      1.0  0.23535  0.79947  0.55275  1.0000
  H   H444      1.0  0.39985  0.97286  0.59023  1.0000
  C   C266      1.0  0.40230  0.53909  0.51548  1.0000
  H   H445      1.0  0.36851  0.96058  0.85719  1.0000
  H   H446      1.0  0.10724  0.53547  0.90475  1.0000
  H   H447      1.0  0.26628  0.84662  0.54515  1.0000
  H   H448      1.0  0.15466  0.56348  0.68969  1.0000
  S   S89       1.0  0.35856  0.86634  0.98300  1.0000
  C   C267      1.0  0.18983  0.56065  0.56759  1.0000
  H   H449      1.0  0.43781  0.91097  0.68173  1.0000
  C   C268      1.0  0.44649  0.85902  0.54474  1.0000
  H   H450      1.0  0.42640  0.49964  0.53212  1.0000
  C   C269      1.0  0.10609  0.52629  0.59630  1.0000
  C   C270      1.0  0.43458  0.62615  0.49770  1.0000
  H   H451      1.0  0.47813  0.64507  0.53716  1.0000
  H   H452      1.0  0.14898  0.59674  0.99377  1.0000
  H   H453      1.0  0.46503  0.62473  0.98095  1.0000
  H   H454      1.0  0.19207  0.57531  0.54920  1.0000
  H   H455      1.0  0.43244  0.98542  0.92323  1.0000
  H   H456      1.0  0.44903  0.92130  0.97218  1.0000
  C   C271      1.0  0.22544  0.74269  0.49592  1.0000
  H   H457      1.0  0.08986  0.53168  0.97451  1.0000
  C   C272      1.0  0.18029  0.56395  0.60223  1.0000
  H   H458      1.0  0.46330  0.68667  0.52987  1.0000
  H   H459      1.0  0.17724  0.54144  0.55652  1.0000
  H   H460      1.0  0.10071  0.53143  0.62044  1.0000
  C   C273      1.0  0.28823  0.88348  0.51860  1.0000
  H   H461      1.0  0.04267  0.53857  0.97647  1.0000
  H   H462      1.0  0.15691  0.54095  0.66331  1.0000
  H   H463      1.0  0.39782  0.97953  0.83570  1.0000
  H   H464      1.0  0.11345  0.65953  0.54189  1.0000
  H   H465      1.0  0.30518  0.88946  0.53544  1.0000
  C   C274      1.0  0.20815  0.76570  0.52432  1.0000
  H   H466      1.0  0.47891  0.65067  0.82308  1.0000
  H   H467      1.0  0.19806  0.52328  0.93983  1.0000
  N   N20       1.0  0.15396  0.56090  0.60249  1.0000
  C   C275      1.0  0.15131  0.57693  0.57561  1.0000
  C   C276      1.0  0.13436  0.53323  0.59578  1.0000
  H   H468      1.0  0.02056  0.64751  0.53262  1.0000
  H   H469      1.0  0.43412  0.61717  0.52235  1.0000
  H   H470      1.0  0.19496  0.58296  0.61256  1.0000
  C   C277      1.0  0.20412  0.74487  0.50382  1.0000
  H   H471      1.0  0.04628  0.65966  0.56240  1.0000
  H   H472      1.0  0.09369  0.50529  0.59312  1.0000
  H   H473      1.0  0.15158  0.56956  0.54999  1.0000
  H   H474      1.0  0.02125  0.50446  0.93994  1.0000
  H   H475      1.0  0.13654  0.52045  0.61383  1.0000
  H   H476      1.0  0.13735  0.52724  0.57063  1.0000
  H   H477      1.0  0.20902  0.56275  0.57100  1.0000
  H   H478      1.0  0.26633  0.75876  0.50209  1.0000
  C   C278      1.0  0.43139  0.61003  0.95031  1.0000
  C   C279      1.0  0.20633  0.51797  0.96126  1.0000
  C   C280      1.0  0.14682  0.55173  0.66635  1.0000
  H   H479      1.0  0.26358  0.87220  0.56238  1.0000
  C   C281      1.0  0.36362  0.98397  0.53501  1.0000
  C   C282      1.0  0.04127  0.65412  0.53557  1.0000
  C   C283      1.0  0.09453  0.67143  0.50469  1.0000
  H   H480      1.0  0.13158  0.49853  0.73847  1.0000
  C   C284      1.0  0.25017  0.76089  0.50839  1.0000
  H   H481      1.0  0.39676  0.86275  0.51102  1.0000
  H   H482      1.0  0.16600  0.58882  0.64305  1.0000
  C   C285      1.0  0.12398  0.71755  0.55210  1.0000
  H   H483      1.0  0.19197  0.76770  0.53081  1.0000
  H   H484      1.0  0.13238  0.57566  0.57705  1.0000
  H   H485      1.0  0.13292  0.70592  0.54664  1.0000
  H   H486      1.0  0.08105  0.54598  0.94293  1.0000
  C   C286      1.0  0.26466  0.86343  0.53824  1.0000
  S   S90       1.0  0.10691  0.50031  0.51538  1.0000
  C   C287      1.0  0.41356  0.86087  0.51227  1.0000
  C   C288      1.0  0.09372  0.65362  0.53318  1.0000
  H   H487      1.0  0.44436  0.65644  0.55147  1.0000
  C   C289      1.0  0.07289  0.53036  0.96180  1.0000
  C   C290      1.0  0.43483  0.82798  0.98374  1.0000
  H   H488      1.0  0.16034  0.57939  0.94407  1.0000
  C   C291      1.0  0.44417  0.61171  0.98484  1.0000
  H   H489      1.0  0.09279  0.50977  0.87402  1.0000
  C   C292      1.0  0.41332  0.55793  0.54115  1.0000
  C   C293      1.0  0.12509  0.53131  0.49816  1.0000
  H   H490      1.0  0.34707  0.97409  0.51852  1.0000
  C   C294      1.0  0.14392  0.54133  0.96392  1.0000
  H   H491      1.0  0.44281  0.82813  0.95937  1.0000
  C   C295      1.0  0.39330  0.98336  0.57536  1.0000
  H   H492      1.0  0.16955  0.61505  0.59985  1.0000
  C   C296      1.0  0.08879  0.51932  0.89508  1.0000
  N   N21       1.0  0.08527  0.68961  0.51303  1.0000
  C   C297      1.0  0.07453  0.49978  0.92326  1.0000
  C   C298      1.0  0.45715  0.85591  0.51485  1.0000
  C   C299      1.0  0.03642  0.50518  0.92355  1.0000
  H   H493      1.0  0.04317  0.63739  0.52894  1.0000
  H   H494      1.0  0.12625  0.53823  0.67142  1.0000
  H   H495      1.0  0.13239  0.57105  0.63567  1.0000
  C   C300      1.0  0.44101  0.54797  0.98774  1.0000
  C   C301      1.0  0.47439  0.67602  0.89614  1.0000
  H   H496      1.0  0.07759  0.52721  0.88373  1.0000
  N   N22       1.0  0.24102  0.77510  0.89408  1.0000
  C   C302      1.0  0.25614  0.76303  0.88233  1.0000
  C   C303      1.0  0.22700  0.77752  0.86401  1.0000
  C   C304      1.0  0.22178  0.75915  0.92042  1.0000
  C   C305      1.0  0.25937  0.80083  0.90950  1.0000
  C   C306      1.0  0.26744  0.75389  0.91026  1.0000
  C   C307      1.0  0.24392  0.79750  0.83767  1.0000
  C   C308      1.0  0.20204  0.73152  0.90961  1.0000
  C   C309      1.0  0.24745  0.81654  0.92226  1.0000
  H   H497      1.0  0.24441  0.74635  0.86537  1.0000
  H   H498      1.0  0.27262  0.77670  0.86672  1.0000
  H   H499      1.0  0.21198  0.78179  0.87183  1.0000
  H   H500      1.0  0.21625  0.75896  0.85014  1.0000
  H   H501      1.0  0.23152  0.75840  0.94391  1.0000
  H   H502      1.0  0.21056  0.76812  0.92845  1.0000
  H   H503      1.0  0.26926  0.79862  0.93177  1.0000
  H   H504      1.0  0.27550  0.81288  0.89243  1.0000
  H   H505      1.0  0.27926  0.74683  0.89836  1.0000
  H   H506      1.0  0.28022  0.76951  0.92773  1.0000
  H   H507      1.0  0.25242  0.73784  0.92490  1.0000
  H   H508      1.0  0.25852  0.79357  0.82729  1.0000
  H   H509      1.0  0.23172  0.79677  0.81614  1.0000
  H   H510      1.0  0.25346  0.81725  0.84805  1.0000
  H   H511      1.0  0.19020  0.72127  0.93178  1.0000
  H   H512      1.0  0.21113  0.72068  0.90088  1.0000
  H   H513      1.0  0.18881  0.73107  0.88977  1.0000
  H   H514      1.0  0.24107  0.81164  0.94878  1.0000
  H   H515      1.0  0.23114  0.81406  0.90669  1.0000
  H   H516      1.0  0.26194  0.83721  0.92111  1.0000
  N   N23       1.0  0.40390  0.86206  0.71122  1.0000
  C   C310      1.0  0.38344  0.84298  0.73428  1.0000
  C   C311      1.0  0.39327  0.85531  0.67569  1.0000
  C   C312      1.0  0.40918  0.88841  0.72096  1.0000
  C   C313      1.0  0.42753  0.86010  0.71612  1.0000
  C   C314      1.0  0.38824  0.84860  0.77255  1.0000
  C   C315      1.0  0.38761  0.82900  0.66238  1.0000
  C   C316      1.0  0.42072  0.90931  0.69389  1.0000
  C   C317      1.0  0.44989  0.87529  0.69175  1.0000
  H   H517      1.0  0.36466  0.84129  0.72836  1.0000
  H   H518      1.0  0.38040  0.82349  0.73033  1.0000
  H   H519      1.0  0.40604  0.86949  0.65702  1.0000
  H   H520      1.0  0.37523  0.85590  0.67368  1.0000
  H   H521      1.0  0.39118  0.88766  0.72855  1.0000
  H   H522      1.0  0.42202  0.89584  0.74356  1.0000
  H   H523      1.0  0.43571  0.86680  0.74188  1.0000
  H   H524      1.0  0.42289  0.83985  0.71573  1.0000
  H   H525      1.0  0.40573  0.84883  0.78146  1.0000
  H   H526      1.0  0.38911  0.86666  0.77993  1.0000
  H   H527      1.0  0.37184  0.83316  0.78642  1.0000
  H   H528      1.0  0.40476  0.82697  0.66329  1.0000
  H   H529      1.0  0.37147  0.81304  0.67576  1.0000
  H   H530      1.0  0.38179  0.82701  0.63539  1.0000
  H   H531      1.0  0.40613  0.90600  0.67433  1.0000
  H   H532      1.0  0.08741  0.71556  0.55223  1.0000
  H   H533      1.0  0.42645  0.92809  0.70579  1.0000
  H   H534      1.0  0.46282  0.89500  0.70142  1.0000
  H   H535      1.0  0.44378  0.87606  0.66565  1.0000
  H   H536      1.0  0.46109  0.86550  0.68931  1.0000
  H   H537      1.0  0.08218  0.65206  0.55534  1.0000
  C   C318      1.0  0.05888  0.53761  0.98795  1.0000
  H   H538      1.0  0.41087  0.60386  0.95191  1.0000
  H   H539      1.0  0.18114  0.54982  0.61911  1.0000
  H   H540      1.0  0.16807  0.61503  0.55482  1.0000
  S   S91       1.0  0.45329  0.59793  0.57583  1.0000
  H   H541      1.0  0.19129  0.60964  0.57481  1.0000
  H   H542      1.0  0.47384  0.85386  0.51605  1.0000
  H   H543      1.0  0.16105  0.53226  0.49737  1.0000
  H   H544      1.0  0.46926  0.90860  0.51100  1.0000
  H   H545      1.0  0.44275  0.59312  0.98993  1.0000
  H   H546      1.0  0.38173  0.52681  0.51362  1.0000
  H   H547      1.0  0.47626  0.58292  0.52296  1.0000
  C   C319      1.0  0.47600  0.92685  0.52452  1.0000
  H   H548      1.0  0.08990  0.50001  0.93902  1.0000
  C   C320      1.0  0.41521  0.52877  0.98430  1.0000
  H   H549      1.0  0.42294  0.63542  0.50138  1.0000
  H   H550      1.0  0.42281  0.89091  0.98347  1.0000
  H   H551      1.0  0.27941  0.76879  0.98887  1.0000
  H   H552      1.0  0.45939  0.92987  0.52330  1.0000
  H   H553      1.0  0.30122  0.85048  0.51359  1.0000
  H   H554      1.0  0.12640  0.50593  0.99093  1.0000
  C   C321      1.0  0.18558  0.50418  0.98826  1.0000
  C   C322      1.0  0.13154  0.52570  0.99141  1.0000
  H   H555      1.0  0.43065  0.64817  0.98491  1.0000
  C   C323      1.0  0.14430  0.57702  0.99333  1.0000
  C   C324      1.0  0.44470  0.55250  0.49502  1.0000
  H   H556      1.0  0.09230  0.53617  0.49471  1.0000
  H   H557      1.0  0.47959  0.87380  0.99418  1.0000
  Fe  Fe46      1.0  0.62656  0.09904  0.06211  1.0000
  S   S92       1.0  0.65614  0.08886  0.04755  1.0000
  S   S93       1.0  0.59725  0.09002  0.01996  1.0000
  Fe  Fe47      1.0  0.64861  0.11356  0.13409  1.0000
  S   S94       1.0  0.67980  0.10497  0.12324  1.0000
  S   S95       1.0  0.64099  0.12550  0.18552  1.0000
  Fe  Fe48      1.0  0.68475  0.12578  0.07383  1.0000
  S   S96       1.0  0.72302  0.15094  0.04583  1.0000
  Fe  Fe49      1.0  0.64833  0.06915  0.09765  1.0000
  S   S97       1.0  0.64359  0.03039  0.11229  1.0000
  S   S98       1.0  0.65524  0.13662  0.08645  1.0000
  S   S99       1.0  0.61711  0.07713  0.11053  1.0000
  Fe  Fe50      1.0  0.68399  0.13489  0.44713  1.0000
  S   S100      1.0  0.65934  0.13656  0.40545  1.0000
  H   H558      1.0  0.51443  0.34449  0.00327  1.0000
  Fe  Fe51      1.0  0.64698  0.07586  0.45176  1.0000
  S   S101      1.0  0.62057  0.07483  0.41089  1.0000
  H   H559      1.0  0.65534  0.05051  0.26722  1.0000
  Fe  Fe52      1.0  0.65681  0.10144  0.38310  1.0000
  S   S102      1.0  0.66759  0.09695  0.32916  1.0000
  Fe  Fe53      1.0  0.62559  0.11027  0.43710  1.0000
  S   S103      1.0  0.59473  0.12077  0.44328  1.0000
  S   S104      1.0  0.68329  0.10076  0.42297  1.0000
  S   S105      1.0  0.84255  0.48740  0.10967  1.0000
  C   C325      1.0  0.49737  0.34658  0.25317  1.0000
  S   S106      1.0  0.62349  0.44304  0.99743  1.0000
  S   S107      1.0  0.86907  0.44045  0.08368  1.0000
  H   H560      1.0  0.95125  0.43774  0.00900  1.0000
  H   H561      1.0  0.63489  0.03830  0.31971  1.0000
  H   H562      1.0  0.66861  0.06599  0.20787  1.0000
  H   H563      1.0  0.68483  0.15418  0.00746  1.0000
  H   H564      1.0  0.64834  0.00814  0.21291  1.0000
  H   H565      1.0  0.53743  0.29705  0.01087  1.0000
  H   H566      1.0  0.51133  0.29540  0.03328  1.0000
  C   C326      1.0  0.48755  0.33821  0.28576  1.0000
  C   C327      1.0  0.73889  0.20300  0.03794  1.0000
  C   C328      1.0  0.52627  0.31117  0.15623  1.0000
  H   H567      1.0  0.52326  0.07527  0.03306  1.0000
  H   H568      1.0  0.49372  0.25577  0.12394  1.0000
  H   H569      1.0  0.96990  0.39051  0.48511  1.0000
  H   H570      1.0  0.79792  0.29572  0.05190  1.0000
  H   H571      1.0  0.56924  0.46803  0.43396  1.0000
  C   C329      1.0  0.76538  0.32158  0.03844  1.0000
  H   H572      1.0  0.61230  0.04014  0.29256  1.0000
  C   C330      1.0  0.67052  0.04885  0.20667  1.0000
  H   H573      1.0  0.49897  0.02894  0.08097  1.0000
  H   H574      1.0  0.87759  0.47490  0.26957  1.0000
  H   H575      1.0  0.63634  0.01999  0.18187  1.0000
  H   H576      1.0  0.85047  0.39270  0.46003  1.0000
  H   H577      1.0  0.60562  0.05900  0.18477  1.0000
  C   C331      1.0  0.58992  0.42613  0.00212  1.0000
  H   H578      1.0  0.76806  0.17306  0.00428  1.0000
  H   H579      1.0  0.80265  0.33578  0.08250  1.0000
  S   S108      1.0  0.64995  0.11001  0.47968  1.0000
  H   H580      1.0  0.67583  0.21586  0.48756  1.0000
  C   C332      1.0  0.75546  0.22784  0.02537  1.0000
  C   C333      1.0  0.58269  0.12576  0.03260  1.0000
  H   H581      1.0  0.62897  0.06074  0.23679  1.0000
  H   H582      1.0  0.59587  0.13216  0.05388  1.0000
  C   C334      1.0  0.64857  0.11748  0.22528  1.0000
  C   C335      1.0  0.66735  0.11073  0.22880  1.0000
  C   C336      1.0  0.67291  0.10458  0.26081  1.0000
  C   C337      1.0  0.65983  0.10515  0.28969  1.0000
  C   C338      1.0  0.64138  0.11235  0.28631  1.0000
  C   C339      1.0  0.63588  0.11858  0.25427  1.0000
  H   H583      1.0  0.67764  0.11038  0.20682  1.0000
  H   H584      1.0  0.68750  0.09940  0.26320  1.0000
  H   H585      1.0  0.63124  0.11298  0.30830  1.0000
  H   H586      1.0  0.62150  0.12403  0.25187  1.0000
  C   C340      1.0  0.86601  0.42526  0.04428  1.0000
  H   H587      1.0  0.76763  0.48763  0.13694  1.0000
  H   H588      1.0  0.72301  0.19948  0.05376  1.0000
  C   C341      1.0  0.81036  0.33694  0.05674  1.0000
  C   C342      1.0  0.62226  0.02934  0.29724  1.0000
  C   C343      1.0  0.63885  0.03055  0.26714  1.0000
  H   H589      1.0  0.92042  0.45250  0.04589  1.0000
  C   C344      1.0  0.74325  0.18293  0.03065  1.0000
  C   C345      1.0  0.77666  0.23324  0.00508  1.0000
  H   H590      1.0  0.85372  0.44751  0.01635  1.0000
  H   H591      1.0  0.87738  0.39964  0.06477  1.0000
  C   C346      1.0  0.62297  0.00703  0.47996  1.0000
  H   H592      1.0  0.59174  0.41039  0.04998  1.0000
  C   C347      1.0  0.86920  0.39281  0.01136  1.0000
  H   H593      1.0  0.60129  0.00983  0.06251  1.0000
  S   S109      1.0  0.71856  0.17568  0.45653  1.0000
  H   H594      1.0  0.50021  0.09198  0.00984  1.0000
  H   H595      1.0  0.60764  0.00211  0.42939  1.0000
  H   H596      1.0  0.50628  0.10707  0.07123  1.0000
  N   N24       1.0  0.62562  0.02342  0.23301  1.0000
  H   H597      1.0  0.87339  0.37752  0.01015  1.0000
  C   C348      1.0  0.60113  0.99396  0.07501  1.0000
  Fe  Fe54      1.0  0.50699  0.35641  0.43488  1.0000
  C   C349      1.0  0.60877  0.99246  0.45161  1.0000
  H   H598      1.0  0.76158  0.32487  0.06484  1.0000
  H   H599      1.0  0.73368  0.28306  0.02841  1.0000
  C   C350      1.0  0.79852  0.36606  0.03094  1.0000
  H   H600      1.0  0.77982  0.36602  0.07886  1.0000
  C   C351      1.0  0.58947  0.42254  0.47916  1.0000
  C   C352      1.0  0.51123  0.04024  0.05977  1.0000
  H   H601      1.0  0.65173  0.13775  0.01428  1.0000
  C   C353      1.0  0.86709  0.43112  0.47976  1.0000
  H   H602      1.0  0.54602  0.32711  0.16168  1.0000
  C   C354      1.0  0.64437  0.02384  0.20784  1.0000
  H   H603      1.0  0.86405  0.43873  0.45670  1.0000
  C   C355      1.0  0.76588  0.45124  0.47527  1.0000
  C   C356      1.0  0.94964  0.42111  0.48071  1.0000
  H   H604      1.0  0.55654  0.13377  0.45813  1.0000
  H   H605      1.0  0.75739  0.22894  0.46067  1.0000
  H   H606      1.0  0.56799  0.00860  0.47975  1.0000
  H   H607      1.0  0.90803  0.40323  0.47143  1.0000
  H   H608      1.0  0.93820  0.47946  0.09507  1.0000
  Fe  Fe55      1.0  0.87201  0.47929  0.08822  1.0000
  N   N25       1.0  0.79329  0.33892  0.03042  1.0000
  H   H609      1.0  0.52208  0.25834  0.14321  1.0000
  H   H610      1.0  0.54118  0.32519  0.44862  1.0000
  C   C357      1.0  0.67182  0.19636  0.49418  1.0000
  H   H611      1.0  0.92604  0.37185  0.46131  1.0000
  H   H612      1.0  0.60127  0.42440  0.45778  1.0000
  H   H613      1.0  0.96584  0.44125  0.48093  1.0000
  H   H614      1.0  0.87354  0.25946  0.49110  1.0000
  H   H615      1.0  0.60828  0.00938  0.30425  1.0000
  H   H616      1.0  0.77383  0.42122  0.48360  1.0000
  C   C358      1.0  0.60327  0.99645  0.23528  1.0000
  C   C359      1.0  0.85826  0.43245  0.01509  1.0000
  H   H617      1.0  0.95235  0.41279  0.45716  1.0000
  H   H618      1.0  0.56920  0.45451  0.04349  1.0000
  C   C360      1.0  0.56986  0.47019  0.46186  1.0000
  S   S110      1.0  0.84719  0.48771  0.43033  1.0000
  C   C361      1.0  0.54670  0.33149  0.03618  1.0000
  H   H619      1.0  0.63435  0.05910  0.17600  1.0000
  C   C362      1.0  0.92076  0.48803  0.00230  1.0000
  H   H620      1.0  0.51750  0.36048  0.25030  1.0000
  H   H621      1.0  0.79293  0.48222  0.17279  1.0000
  H   H622      1.0  0.58822  0.47245  0.47111  1.0000
  H   H623      1.0  0.51204  0.31226  0.20469  1.0000
  H   H624      1.0  0.51417  0.07543  0.07506  1.0000
  C   C363      1.0  0.51386  0.29775  0.18953  1.0000
  H   H625      1.0  0.75189  0.24303  0.03170  1.0000
  H   H626      1.0  0.54470  0.38775  0.05914  1.0000
  H   H627      1.0  0.61892  0.47878  0.04385  1.0000
  C   C364      1.0  0.50833  0.06348  0.05170  1.0000
  H   H628      1.0  0.50748  0.02769  0.03750  1.0000
  C   C365      1.0  0.57927  0.41143  0.03115  1.0000
  H   H629      1.0  0.90368  0.47589  0.01783  1.0000
  H   H630      1.0  0.64972  0.17649  0.01195  1.0000
  C   C366      1.0  0.61707  0.49001  0.06454  1.0000
  H   H631      1.0  0.50656  0.25101  0.19768  1.0000
  C   C367      1.0  0.57999  0.12078  0.48178  1.0000
  H   H632      1.0  0.68325  0.04976  0.22759  1.0000
  H   H633      1.0  0.82969  0.35452  0.05679  1.0000
  C   C368      1.0  0.94147  0.48921  0.07042  1.0000
  H   H634      1.0  0.59726  0.03516  0.23543  1.0000
  H   H635      1.0  0.60395  0.03010  0.17120  1.0000
  C   C369      1.0  0.55604  0.46099  0.05155  1.0000
  H   H636      1.0  0.53777  0.44971  0.03718  1.0000
  H   H637      1.0  0.80135  0.39688  0.06229  1.0000
  H   H638      1.0  0.55112  0.32526  0.06033  1.0000
  S   S111      1.0  0.54970  0.38498  0.44132  1.0000
  C   C370      1.0  0.61506  0.04744  0.18698  1.0000
  S   S112      1.0  0.50318  0.38520  0.01823  1.0000
  H   H639      1.0  0.75623  0.28450  0.05945  1.0000
  H   H640      1.0  0.57109  0.15356  0.04090  1.0000
  H   H641      1.0  0.53923  0.34414  0.04301  1.0000
  C   C371      1.0  0.52727  0.30763  0.01597  1.0000
  H   H642      1.0  0.53141  0.04733  0.06772  1.0000
  H   H643      1.0  0.52766  0.29849  0.13744  1.0000
  H   H644      1.0  0.56509  0.34230  0.02268  1.0000
  C   C372      1.0  0.48896  0.10191  0.05583  1.0000
  C   C373      1.0  0.55142  0.12972  0.99767  1.0000
  H   H645      1.0  0.52825  0.29481  0.20325  1.0000
  S   S113      1.0  0.63959  0.04110  0.48270  1.0000
  H   H646      1.0  0.95417  0.46593  0.04717  1.0000
  C   C374      1.0  0.50087  0.24858  0.14430  1.0000
  C   C375      1.0  0.92503  0.42239  0.47631  1.0000
  C   C376      1.0  0.55266  0.39855  0.03635  1.0000
  N   N26       1.0  0.48839  0.27308  0.18714  1.0000
  N   N27       1.0  0.71880  0.17914  0.31618  1.0000
  C   C377      1.0  0.70948  0.17571  0.27996  1.0000
  C   C378      1.0  0.69626  0.17291  0.33826  1.0000
  C   C379      1.0  0.72804  0.16062  0.32271  1.0000
  C   C380      1.0  0.74031  0.20639  0.32068  1.0000
  C   C381      1.0  0.72778  0.17590  0.25290  1.0000
  C   C382      1.0  0.68406  0.18962  0.33343  1.0000
  C   C383      1.0  0.72879  0.15312  0.35969  1.0000
  C   C384      1.0  0.75130  0.21534  0.35666  1.0000
  H   H647      1.0  0.69108  0.15738  0.27662  1.0000
  H   H648      1.0  0.70522  0.19084  0.27265  1.0000
  H   H649      1.0  0.70121  0.17416  0.36541  1.0000
  H   H650      1.0  0.68087  0.15264  0.33409  1.0000
  H   H651      1.0  0.71549  0.14216  0.30925  1.0000
  H   H652      1.0  0.74756  0.16800  0.31235  1.0000
  H   H653      1.0  0.75694  0.20991  0.30508  1.0000
  H   H654      1.0  0.73505  0.22018  0.31043  1.0000
  H   H655      1.0  0.74648  0.19397  0.25306  1.0000
  H   H656      1.0  0.73075  0.15939  0.25531  1.0000
  H   H657      1.0  0.71890  0.17401  0.22759  1.0000
  H   H658      1.0  0.66874  0.18403  0.35240  1.0000
  H   H659      1.0  0.69808  0.21018  0.33761  1.0000
  H   H660      1.0  0.67467  0.18648  0.30831  1.0000
  H   H661      1.0  0.73774  0.14108  0.36070  1.0000
  H   H662      1.0  0.70919  0.14122  0.36968  1.0000
  H   H663      1.0  0.73998  0.16959  0.37679  1.0000
  H   H664      1.0  0.76704  0.21148  0.36195  1.0000
  H   H665      1.0  0.73698  0.20705  0.37688  1.0000
  H   H666      1.0  0.75914  0.23626  0.35896  1.0000
  H   H667      1.0  0.81430  0.37981  0.08237  1.0000
  H   H668      1.0  0.49740  0.25541  0.25090  1.0000
  C   C385      1.0  0.61651  0.04180  0.22462  1.0000
  H   H669      1.0  0.66920  0.18496  0.44168  1.0000
  C   C386      1.0  0.87140  0.40535  0.04228  1.0000
  N   N28       1.0  0.94044  0.47990  0.00635  1.0000
  H   H670      1.0  0.79871  0.44817  0.46293  1.0000
  C   C387      1.0  0.66896  0.17855  0.01044  1.0000
  C   C388      1.0  0.79832  0.37738  0.06585  1.0000
  H   H671      1.0  0.75712  0.44315  0.45017  1.0000
  H   H672      1.0  0.82664  0.31460  0.07552  1.0000
  C   C389      1.0  0.53654  0.40018  0.01237  1.0000
  H   H673      1.0  0.50850  0.28923  0.25611  1.0000
  C   C390      1.0  0.65679  0.17867  0.46424  1.0000
  C   C391      1.0  0.85939  0.40506  0.48174  1.0000
  H   H674      1.0  0.75290  0.32639  0.02322  1.0000
  H   H675      1.0  0.77535  0.47225  0.47296  1.0000
  C   C392      1.0  0.66699  0.15329  0.99902  1.0000
  H   H676      1.0  0.68014  0.04951  0.18261  1.0000
  C   C393      1.0  0.93893  0.47056  0.04200  1.0000
  H   H677      1.0  0.82746  0.31707  0.03087  1.0000
  C   C394      1.0  0.56304  0.40471  0.47768  1.0000
  H   H678      1.0  0.59382  0.47551  0.00310  1.0000
  H   H679      1.0  0.64707  0.01824  0.27327  1.0000
  C   C395      1.0  0.80002  0.33393  0.99575  1.0000
  H   H680      1.0  0.55388  0.45207  0.47185  1.0000
  C   C396      1.0  0.57968  0.10550  0.01237  1.0000
  H   H681      1.0  0.51583  0.32000  0.14507  1.0000
  S   S114      1.0  0.49414  0.33220  0.08753  1.0000
  C   C397      1.0  0.81551  0.31466  0.05316  1.0000
  H   H682      1.0  0.51555  0.30182  0.47326  1.0000
  H   H683      1.0  0.67739  0.18350  0.03629  1.0000
  H   H684      1.0  0.92698  0.43429  0.45408  1.0000
  C   C398      1.0  0.76433  0.18827  0.01022  1.0000
  H   H685      1.0  0.65134  0.15864  0.46899  1.0000
  C   C399      1.0  0.56865  0.13785  0.02517  1.0000
  C   C400      1.0  0.75435  0.29253  0.03520  1.0000
  H   H686      1.0  0.60157  0.47741  0.08189  1.0000
  H   H687      1.0  0.63947  0.17962  0.45759  1.0000
  C   C401      1.0  0.56173  0.12854  0.48168  1.0000
  C   C402      1.0  0.56631  0.49002  0.04812  1.0000
  H   H688      1.0  0.55143  0.45531  0.07834  1.0000
  C   C403      1.0  0.53638  0.31592  0.47373  1.0000
  C   C404      1.0  0.78505  0.44246  0.48427  1.0000
  C   C405      1.0  0.61942  0.99875  0.10015  1.0000
  H   H689      1.0  0.54627  0.48707  0.46695  1.0000
  H   H690      1.0  0.76281  0.28685  0.01483  1.0000
  H   H691      1.0  0.76483  0.48015  0.00566  1.0000
  H   H692      1.0  0.74876  0.48484  0.08098  1.0000
  C   C406      1.0  0.74231  0.19382  0.48837  1.0000
  H   H693      1.0  0.50006  0.34571  0.30767  1.0000
  C   C407      1.0  0.49207  0.25075  0.18001  1.0000
  S   S115      1.0  0.49514  0.34767  0.18384  1.0000
  H   H694      1.0  0.58924  0.99515  0.25423  1.0000
  H   H695      1.0  0.81746  0.37919  0.01990  1.0000
  C   C408      1.0  0.75914  0.22018  0.48344  1.0000
  H   H696      1.0  0.57628  0.99396  0.19592  1.0000
  S   S116      1.0  0.49151  0.31618  0.41478  1.0000
  H   H697      1.0  0.82045  0.48843  0.49148  1.0000
  H   H698      1.0  0.78445  0.36798  0.01488  1.0000
  H   H699      1.0  0.54735  0.30596  0.47636  1.0000
  H   H700      1.0  0.49239  0.11988  0.04397  1.0000
  H   H701      1.0  0.92518  0.34900  0.49068  1.0000
  C   C409      1.0  0.78081  0.21309  0.99746  1.0000
  H   H702      1.0  0.69083  0.19785  0.49446  1.0000
  H   H703      1.0  0.49282  0.21978  0.46908  1.0000
  S   S117      1.0  0.87288  0.49072  0.33611  1.0000
  H   H704      1.0  0.49293  0.22808  0.13782  1.0000
  H   H705      1.0  0.75000  0.44435  0.49348  1.0000
  H   H706      1.0  0.48759  0.31460  0.01180  1.0000
  C   C410      1.0  0.49150  0.26992  0.25213  1.0000
  C   C411      1.0  0.91861  0.36281  0.48594  1.0000
  H   H707      1.0  0.89740  0.35204  0.48316  1.0000
  H   H708      1.0  0.53418  0.34762  0.49396  1.0000
  Fe  Fe56      1.0  0.85106  0.30769  0.88265  1.0000
  S   S118      1.0  0.85784  0.28466  0.92156  1.0000
  S   S119      1.0  0.84429  0.29106  0.82893  1.0000
  Fe  Fe57      1.0  0.85836  0.34757  0.93644  1.0000
  C   C412      1.0  0.65563  0.48430  0.76783  1.0000
  H   H709      1.0  0.54089  0.16322  0.78783  1.0000
  Fe  Fe58      1.0  0.89094  0.32287  0.93915  1.0000
  S   S120      1.0  0.93070  0.32709  0.94484  1.0000
  Fe  Fe59      1.0  0.83231  0.29103  0.95669  1.0000
  C   C413      1.0  0.67480  0.20915  0.55418  1.0000
  S   S121      1.0  0.88490  0.34522  0.89899  1.0000
  S   S122      1.0  0.82365  0.31190  0.91642  1.0000
  Fe  Fe60      1.0  0.85882  0.34112  0.55614  1.0000
  S   S123      1.0  0.86516  0.30991  0.53698  1.0000
  S   S124      1.0  0.85312  0.36205  0.51259  1.0000
  Fe  Fe61      1.0  0.86181  0.32769  0.62993  1.0000
  S   S125      1.0  0.86829  0.29563  0.61507  1.0000
  S   S126      1.0  0.86321  0.34289  0.68347  1.0000
  Fe  Fe62      1.0  0.89600  0.32334  0.57715  1.0000
  S   S127      1.0  0.93320  0.32509  0.56113  1.0000
  Fe  Fe63      1.0  0.83681  0.28496  0.57579  1.0000
  S   S128      1.0  0.80574  0.24239  0.56816  1.0000
  S   S129      1.0  0.89128  0.35602  0.59381  1.0000
  S   S130      1.0  0.82869  0.31552  0.59319  1.0000
  C   C414      1.0  0.49016  0.04601  0.98012  1.0000
  S   S131      1.0  0.54393  0.12602  0.58124  1.0000
  H   H710      1.0  0.64389  0.46372  0.76935  1.0000
  S   S132      1.0  0.59900  0.45276  0.57418  1.0000
  C   C415      1.0  0.58583  0.43510  0.53629  1.0000
  C   C416      1.0  0.95431  0.42371  0.54217  1.0000
  C   C417      1.0  0.95254  0.44718  0.98461  1.0000
  S   S133      1.0  0.66117  0.48265  0.83667  1.0000
  H   H711      1.0  0.50834  0.09595  0.72101  1.0000
  H   H712      1.0  0.56877  0.18037  0.76260  1.0000
  S   S134      1.0  0.67987  0.48320  0.93409  1.0000
  H   H713      1.0  0.96583  0.31429  0.76211  1.0000
  H   H714      1.0  0.55126  0.16420  0.63401  1.0000
  H   H715      1.0  0.71142  0.23539  0.52956  1.0000
  C   C418      1.0  0.51681  0.09906  0.69555  1.0000
  C   C419      1.0  0.55683  0.12320  0.54248  1.0000
  H   H716      1.0  0.60000  0.18238  0.55119  1.0000
  C   C420      1.0  0.92236  0.31199  0.85781  1.0000
  H   H717      1.0  0.92875  0.29398  0.79808  1.0000
  H   H718      1.0  0.49262  0.06344  0.96786  1.0000
  C   C421      1.0  0.86312  0.39488  0.51158  1.0000
  C   C422      1.0  0.87475  0.41099  0.53947  1.0000
  C   C423      1.0  0.88235  0.43703  0.53754  1.0000
  H   H719      1.0  0.87767  0.40335  0.56258  1.0000
  H   H720      1.0  0.96363  0.38863  0.86158  1.0000
  C   C424      1.0  0.78113  0.22449  0.53718  1.0000
  C   C425      1.0  0.96553  0.37963  0.94222  1.0000
  H   H721      1.0  0.57277  0.47362  0.95119  1.0000
  H   H722      1.0  0.84720  0.20969  0.59743  1.0000
  H   H723      1.0  0.98043  0.33298  0.93541  1.0000
  C   C426      1.0  0.78010  0.44172  0.54543  1.0000
  C   C427      1.0  0.79058  0.44578  0.58193  1.0000
  H   H724      1.0  0.83189  0.45190  0.54120  1.0000
  C   C428      1.0  0.55301  0.35587  0.96146  1.0000
  H   H725      1.0  0.73233  0.16277  0.52242  1.0000
  C   C429      1.0  0.91226  0.32763  0.80650  1.0000
  H   H726      1.0  0.58503  0.47252  0.83830  1.0000
  H   H727      1.0  0.89990  0.33080  0.82417  1.0000
  C   C430      1.0  0.76415  0.19817  0.54224  1.0000
  H   H728      1.0  0.58171  0.43812  0.95510  1.0000
  C   C431      1.0  0.84921  0.30583  0.78876  1.0000
  C   C432      1.0  0.85614  0.33144  0.78524  1.0000
  C   C433      1.0  0.86025  0.34236  0.75286  1.0000
  C   C434      1.0  0.85762  0.32793  0.72358  1.0000
  C   C435      1.0  0.85084  0.30235  0.72714  1.0000
  C   C436      1.0  0.84662  0.29140  0.75952  1.0000
  H   H729      1.0  0.85820  0.34280  0.80742  1.0000
  H   H730      1.0  0.86545  0.36214  0.75044  1.0000
  H   H731      1.0  0.84868  0.29098  0.70494  1.0000
  H   H732      1.0  0.84125  0.27157  0.76191  1.0000
  H   H733      1.0  0.63509  0.00501  0.53040  1.0000
  Fe  Fe64      1.0  0.50670  0.12687  0.58296  1.0000
  H   H734      1.0  0.76592  0.18941  0.56501  1.0000
  C   C437      1.0  0.55938  0.41743  0.53468  1.0000
  H   H735      1.0  0.71705  0.19700  0.96463  1.0000
  H   H736      1.0  0.79914  0.48772  0.52234  1.0000
  C   C438      1.0  0.88224  0.24127  0.61600  1.0000
  H   H737      1.0  0.61852  0.49022  0.84567  1.0000
  C   C439      1.0  0.55020  0.17250  0.68836  1.0000
  H   H738      1.0  0.56957  0.30689  0.58945  1.0000
  H   H739      1.0  0.56290  0.19681  0.64423  1.0000
  C   C440      1.0  0.96750  0.34296  0.56216  1.0000
  H   H740      1.0  0.66958  0.20130  0.58012  1.0000
  H   H741      1.0  0.97317  0.37407  0.59456  1.0000
  H   H742      1.0  0.89382  0.27550  0.87837  1.0000
  C   C441      1.0  0.70430  0.22245  0.55158  1.0000
  H   H743      1.0  0.79045  0.33105  0.94236  1.0000
  H   H744      1.0  0.67931  0.18283  0.93573  1.0000
  H   H745      1.0  0.93255  0.37265  0.84206  1.0000
  H   H746      1.0  0.54606  0.29733  0.53086  1.0000
  H   H747      1.0  0.57322  0.36298  0.95437  1.0000
  H   H748      1.0  0.94675  0.43214  0.96480  1.0000
  H   H749      1.0  0.53909  0.47072  0.52480  1.0000
  C   C442      1.0  0.48764  0.32874  0.96209  1.0000
  H   H750      1.0  0.91144  0.27221  0.84516  1.0000
  H   H751      1.0  0.88657  0.27979  0.83608  1.0000
  H   H752      1.0  0.50523  0.29962  0.59291  1.0000
  H   H753      1.0  0.50140  0.08508  0.67838  1.0000
  C   C443      1.0  0.94653  0.36957  0.85632  1.0000
  H   H754      1.0  0.83149  0.45072  0.49700  1.0000
  H   H755      1.0  0.92805  0.37173  0.53791  1.0000
  H   H756      1.0  0.90241  0.28694  0.50495  1.0000
  H   H757      1.0  0.58036  0.11034  0.56621  1.0000
  H   H758      1.0  0.91455  0.44159  0.98798  1.0000
  H   H759      1.0  0.98011  0.41722  0.57511  1.0000
  H   H760      1.0  0.49267  0.25072  0.94818  1.0000
  H   H761      1.0  0.62888  0.19976  0.57536  1.0000
  H   H762      1.0  0.49996  0.33706  0.93980  1.0000
  H   H763      1.0  0.80885  0.44602  0.58457  1.0000
  H   H764      1.0  0.53612  0.13568  0.51129  1.0000
  H   H765      1.0  0.56582  0.46630  0.52687  1.0000
  S   S135      1.0  0.62914  0.48711  0.91783  1.0000
  H   H766      1.0  0.67359  0.09598  0.95976  1.0000
  H   H767      1.0  0.51605  0.13667  0.73939  1.0000
  H   H768      1.0  0.50879  0.12815  0.68003  1.0000
  C   C444      1.0  0.57513  0.11547  0.54264  1.0000
  C   C445      1.0  0.54385  0.33683  0.50104  1.0000
  H   H769      1.0  0.88946  0.22024  0.52037  1.0000
  C   C446      1.0  0.61845  0.18349  0.55753  1.0000
  H   H770      1.0  0.89399  0.23205  0.61534  1.0000
  N   N29       1.0  0.66152  0.14685  0.96199  1.0000
  H   H771      1.0  0.55136  0.47132  0.98348  1.0000
  C   C447      1.0  0.57312  0.37135  0.56061  1.0000
  C   C448      1.0  0.65726  0.12043  0.95574  1.0000
  H   H772      1.0  0.91318  0.36122  0.78468  1.0000
  C   C449      1.0  0.50721  0.26731  0.96334  1.0000
  H   H773      1.0  0.60008  0.10750  0.51275  1.0000
  H   H774      1.0  0.81250  0.19681  0.56373  1.0000
  H   H775      1.0  0.54454  0.99859  0.51200  1.0000
  H   H776      1.0  0.56048  0.08205  0.96863  1.0000
  C   C450      1.0  0.98006  0.33285  0.54389  1.0000
  H   H777      1.0  0.77686  0.42951  0.59761  1.0000
  H   H778      1.0  0.87379  0.23812  0.64156  1.0000
  H   H779      1.0  0.80706  0.18649  0.52095  1.0000
  H   H780      1.0  0.79023  0.35699  0.96274  1.0000
  H   H781      1.0  0.96893  0.31497  0.53031  1.0000
  Fe  Fe65      1.0  0.63779  0.48912  0.58203  1.0000
  H   H782      1.0  0.94931  0.38222  0.94572  1.0000
  H   H783      1.0  0.65192  0.11450  0.92896  1.0000
  H   H784      1.0  0.69149  0.16827  0.52273  1.0000
  H   H785      1.0  0.89066  0.18926  0.56577  1.0000
  H   H786      1.0  0.63541  0.20440  0.51211  1.0000
  C   C451      1.0  0.68010  0.11660  0.96277  1.0000
  N   N30       1.0  0.86837  0.23127  0.55327  1.0000
  H   H787      1.0  0.53561  0.10340  0.95578  1.0000
  H   H788      1.0  0.64020  0.14737  0.52235  1.0000
  C   C452      1.0  0.50917  0.30874  0.53827  1.0000
  H   H789      1.0  0.96598  0.36482  0.81493  1.0000
  N   N31       1.0  0.51670  0.31206  0.98375  1.0000
  C   C453      1.0  0.86031  0.22961  0.58956  1.0000
  C   C454      1.0  0.98250  0.36623  0.57975  1.0000
  H   H790      1.0  0.93781  0.31333  0.87474  1.0000
  H   H791      1.0  0.89111  0.44936  0.55933  1.0000
  H   H792      1.0  0.58240  0.18331  0.65366  1.0000
  H   H793      1.0  0.79281  0.46366  0.59296  1.0000
  H   H794      1.0  0.86366  0.17850  0.53741  1.0000
  S   S136      1.0  0.53418  0.14550  0.98960  1.0000
  H   H795      1.0  0.91256  0.32003  0.87261  1.0000
  H   H796      1.0  0.97485  0.34539  0.77666  1.0000
  Fe  Fe66      1.0  0.49767  0.13042  0.95797  1.0000
  C   C455      1.0  0.56361  0.48706  0.56873  1.0000
  H   H797      1.0  0.49028  0.28813  0.94401  1.0000
  Fe  Fe67      1.0  0.64485  0.47664  0.96205  1.0000
  C   C456      1.0  0.57371  0.42728  0.97784  1.0000
  H   H798      1.0  0.55068  0.31981  0.60168  1.0000
  C   C457      1.0  0.78508  0.33682  0.96611  1.0000
  H   H799      1.0  0.55163  0.31956  0.95917  1.0000
  H   H800      1.0  0.93352  0.46251  0.95612  1.0000
  H   H801      1.0  0.53473  0.41571  0.96433  1.0000
  C   C458      1.0  0.54799  0.40254  0.50544  1.0000
  H   H802      1.0  0.60956  0.14055  0.91395  1.0000
  C   C459      1.0  0.63328  0.18700  0.52453  1.0000
  H   H803      1.0  0.91054  0.33840  0.75433  1.0000
  C   C460      1.0  0.96168  0.35489  0.94076  1.0000
  H   H804      1.0  0.55373  0.36376  0.98681  1.0000
  H   H805      1.0  0.94481  0.32584  0.75355  1.0000
  C   C461      1.0  0.90246  0.28328  0.85346  1.0000
  C   C462      1.0  0.97260  0.40230  0.50805  1.0000
  C   C463      1.0  0.92642  0.38196  0.51573  1.0000
  C   C464      1.0  0.77836  0.23539  0.50757  1.0000
  C   C465      1.0  0.86144  0.40003  0.98217  1.0000
  S   S137      1.0  0.86630  0.32747  0.97796  1.0000
  H   H806      1.0  0.60564  0.48789  0.80359  1.0000
  H   H807      1.0  0.57574  0.38666  0.57853  1.0000
  H   H808      1.0  0.72296  0.18222  0.93028  1.0000
  C   C466      1.0  0.65427  0.16303  0.53909  1.0000
  N   N32       1.0  0.65901  0.18878  0.52805  1.0000
  C   C467      1.0  0.71027  0.17814  0.95230  1.0000
  H   H809      1.0  0.96918  0.35150  0.85245  1.0000
  H   H810      1.0  0.76410  0.32431  0.96877  1.0000
  H   H811      1.0  0.54580  0.36456  0.94306  1.0000
  H   H812      1.0  0.68096  0.15800  0.91406  1.0000
  H   H813      1.0  0.68763  0.16799  0.56816  1.0000
  H   H814      1.0  0.74949  0.48975  0.61874  1.0000
  C   C468      1.0  0.55276  0.31508  0.54613  1.0000
  C   C469      1.0  0.56238  0.17924  0.65309  1.0000
  H   H815      1.0  0.76623  0.42095  0.54161  1.0000
  C   C470      1.0  0.95483  0.35313  0.83648  1.0000
  H   H816      1.0  0.97263  0.46207  0.97961  1.0000
  C   C471      1.0  0.81867  0.44359  0.51926  1.0000
  H   H817      1.0  0.62120  0.45136  0.50911  1.0000
  H   H818      1.0  0.63964  0.14631  0.89826  1.0000
  C   C472      1.0  0.88391  0.25931  0.54484  1.0000
  H   H819      1.0  0.67063  0.22502  0.55297  1.0000
  C   C473      1.0  0.98311  0.35198  0.93637  1.0000
  N   N33       1.0  0.53760  0.32767  0.53696  1.0000
  H   H820      1.0  0.57324  0.32710  0.53902  1.0000
  C   C474      1.0  0.92014  0.34793  0.77852  1.0000
  H   H821      1.0  0.82623  0.17870  0.54690  1.0000
  H   H822      1.0  0.83774  0.23236  0.52602  1.0000
  S   S138      1.0  0.88744  0.47976  0.50718  1.0000
  H   H823      1.0  0.93848  0.36119  0.88108  1.0000
  H   H824      1.0  0.69557  0.12690  0.94426  1.0000
  H   H825      1.0  0.94642  0.39565  0.58264  1.0000
  S   S139      1.0  0.50649  0.16182  0.60144  1.0000
  S   S140      1.0  0.85746  0.38435  0.94299  1.0000
  C   C475      1.0  0.54851  0.10952  0.97733  1.0000
  C   C476      1.0  0.81285  0.48112  0.51704  1.0000
  C   C477      1.0  0.96095  0.41537  0.57564  1.0000
  N   N34       1.0  0.54656  0.14807  0.70332  1.0000
  C   C478      1.0  0.52609  0.12627  0.68240  1.0000
  H   H826      1.0  0.71401  0.16601  0.96923  1.0000
  C   C479      1.0  0.53708  0.14492  0.73919  1.0000
  C   C480      1.0  0.57055  0.14650  0.70179  1.0000
  H   H827      1.0  0.71325  0.23458  0.57439  1.0000
  H   H828      1.0  0.53150  0.17188  0.68684  1.0000
  C   C481      1.0  0.54764  0.16908  0.76161  1.0000
  H   H829      1.0  0.96155  0.42809  0.59630  1.0000
  H   H830      1.0  0.50919  0.25931  0.98754  1.0000
  C   C482      1.0  0.94424  0.31341  0.80588  1.0000
  H   H831      1.0  0.93660  0.42447  0.54685  1.0000
  C   C483      1.0  0.87443  0.19194  0.55850  1.0000
  H   H832      1.0  0.90257  0.25810  0.49756  1.0000
  H   H833      1.0  0.54046  0.13095  0.75300  1.0000
  H   H834      1.0  0.56746  0.12871  0.71393  1.0000
  H   H835      1.0  0.57535  0.14441  0.67530  1.0000
  H   H836      1.0  0.79692  0.21666  0.98203  1.0000
  C   C484      1.0  0.82173  0.19380  0.54151  1.0000
  H   H837      1.0  0.49849  0.31464  0.52107  1.0000
  H   H838      1.0  0.87364  0.26926  0.55279  1.0000
  C   C485      1.0  0.55161  0.30674  0.58305  1.0000
  C   C486      1.0  0.67780  0.15997  0.54358  1.0000
  H   H839      1.0  0.86226  0.18645  0.58105  1.0000
  H   H840      1.0  0.83146  0.48998  0.56782  1.0000
  H   H841      1.0  0.53984  0.18128  0.75334  1.0000
  H   H842      1.0  0.59527  0.16428  0.74635  1.0000
  C   C487      1.0  0.62532  0.13652  0.91826  1.0000
  C   C488      1.0  0.74495  0.18295  0.51810  1.0000
  H   H843      1.0  0.53370  0.36011  0.54999  1.0000
  H   H844      1.0  0.52544  0.27602  0.94936  1.0000
  C   C489      1.0  0.54713  0.41449  0.98307  1.0000
  H   H845      1.0  0.79369  0.40555  0.54178  1.0000
  C   C490      1.0  0.59465  0.16834  0.71917  1.0000
  C   C491      1.0  0.84514  0.21908  0.53011  1.0000
  H   H846      1.0  0.56248  0.18942  0.70443  1.0000
  H   H847      1.0  0.89463  0.26224  0.61332  1.0000
  H   H848      1.0  0.50484  0.28963  0.52892  1.0000
  C   C492      1.0  0.54443  0.35074  0.55879  1.0000
  H   H849      1.0  0.84994  0.42556  0.96176  1.0000
  H   H850      1.0  0.89916  0.30868  0.79459  1.0000
  C   C493      1.0  0.88507  0.21985  0.54762  1.0000
  H   H851      1.0  0.71152  0.20905  0.54999  1.0000
  N   N35       1.0  0.93345  0.32694  0.82582  1.0000
  C   C494      1.0  0.68223  0.16632  0.93959  1.0000
  H   H852      1.0  0.64478  0.15802  0.56401  1.0000
  C   C495      1.0  0.49759  0.28619  0.96900  1.0000
  H   H853      1.0  0.65085  0.48487  0.71364  1.0000
  H   H854      1.0  0.50920  0.04871  0.98659  1.0000
  C   C496      1.0  0.58645  0.11399  0.51240  1.0000
  C   C497      1.0  0.53765  0.32633  0.95842  1.0000
  H   H855      1.0  0.68773  0.12192  0.98884  1.0000
  H   H856      1.0  0.58507  0.36366  0.57021  1.0000
  H   H857      1.0  0.96951  0.44393  0.53801  1.0000
  H   H858      1.0  0.59640  0.18725  0.71650  1.0000
  H   H859      1.0  0.79114  0.25554  0.50314  1.0000
  H   H860      1.0  0.61194  0.17028  0.70682  1.0000
  H   H861      1.0  0.67155  0.13934  0.54279  1.0000
  H   H862      1.0  0.64090  0.10613  0.97106  1.0000
  C   C498      1.0  0.63666  0.14599  0.95395  1.0000
  H   H863      1.0  0.53520  0.28706  0.58667  1.0000
  H   H864      1.0  0.58046  0.38081  0.53606  1.0000
  H   H865      1.0  0.90246  0.26890  0.55896  1.0000
  H   H866      1.0  0.54761  0.41525  0.55623  1.0000
  H   H867      1.0  0.61656  0.11549  0.91581  1.0000
  C   C499      1.0  0.49591  0.30449  0.57263  1.0000
  H   H868      1.0  0.53258  0.12649  0.65618  1.0000
  H   H869      1.0  0.55587  0.46896  0.58301  1.0000
  H   H870      1.0  0.62011  0.17062  0.50789  1.0000
  H   H871      1.0  0.53220  0.09431  0.69531  1.0000
  C   C500      1.0  0.60293  0.49002  0.83077  1.0000
  C   C501      1.0  0.89076  0.26582  0.50733  1.0000
  H   H872      1.0  0.52939  0.32206  0.93236  1.0000
  C   C502      1.0  0.87850  0.44718  0.50775  1.0000
  H   H873      1.0  0.53840  0.34553  0.58526  1.0000
  H   H874      1.0  0.84889  0.23917  0.59282  1.0000
  H   H875      1.0  0.89777  0.46708  0.95744  1.0000
  H   H876      1.0  0.95787  0.31071  0.82195  1.0000
  H   H877      1.0  0.61331  0.16534  0.57028  1.0000
  C   C503      1.0  0.60081  0.43785  0.50821  1.0000
  H   H878      1.0  0.82077  0.34702  0.99106  1.0000
  H   H879      1.0  0.76769  0.45033  0.54476  1.0000
  C   C504      1.0  0.80741  0.41444  0.52092  1.0000
  C   C505      1.0  0.50205  0.32534  0.99202  1.0000
  C   C506      1.0  0.55008  0.12960  0.51180  1.0000
  H   H880      1.0  0.90993  0.38445  0.52198  1.0000
  H   H881      1.0  0.90436  0.23176  0.55956  1.0000
  H   H882      1.0  0.63889  0.16526  0.95679  1.0000
  C   C507      1.0  0.85614  0.41998  0.98417  1.0000
  N   N36       1.0  0.95077  0.40726  0.51160  1.0000
  C   C508      1.0  0.91009  0.48707  0.96649  1.0000
  H   H883      1.0  0.73201  0.47932  0.65682  1.0000
  H   H884      1.0  0.94082  0.35955  0.77360  1.0000
  C   C509      1.0  0.93421  0.45777  0.98292  1.0000
  H   H885      1.0  0.49450  0.32135  0.58020  1.0000
  H   H886      1.0  0.97291  0.39055  0.52923  1.0000
  C   C510      1.0  0.56003  0.48076  0.53058  1.0000
  H   H887      1.0  0.85031  0.21549  0.50461  1.0000
  C   C511      1.0  0.57025  0.48425  0.97223  1.0000
  C   C512      1.0  0.56267  0.09753  0.98462  1.0000
  C   C513      1.0  0.95815  0.32593  0.77290  1.0000
  H   H888      1.0  0.52763  0.38913  0.50459  1.0000
  H   H889      1.0  0.82320  0.41061  0.52592  1.0000
  N   N37       1.0  0.79938  0.45229  0.51743  1.0000
  C   C514      1.0  0.62426  0.99415  0.50841  1.0000
  H   H890      1.0  0.62159  0.13361  0.97216  1.0000
  S   S141      1.0  0.49289  0.15462  0.91878  1.0000
  S   S142      1.0  0.79720  0.26542  0.99055  1.0000
  H   H891      1.0  0.79755  0.31465  0.99324  1.0000
  H   H892      1.0  0.92156  0.43143  0.49839  1.0000
  H   H893      1.0  0.56469  0.35037  0.49792  1.0000
  H   H894      1.0  0.68139  0.19470  0.99385  1.0000
  H   H895      1.0  0.79846  0.40484  0.49659  1.0000
  C   C515      1.0  0.55561  0.99242  0.49652  1.0000
  H   H896      1.0  0.57748  0.50830  0.45279  1.0000
  C   C516      1.0  0.50924  0.72056  0.01626  1.0000
  Fe  Fe68      1.0  0.53439  0.85530  0.38680  1.0000
  S   S143      1.0  0.56211  0.85657  0.42662  1.0000
  S   S144      1.0  0.54571  0.86827  0.33228  1.0000
  Fe  Fe69      1.0  0.52719  0.82465  0.45215  1.0000
  H   H897      1.0  0.64123  0.53872  0.49372  1.0000
  Fe  Fe70      1.0  0.55366  0.88407  0.45409  1.0000
  H   H898      1.0  0.51009  0.63896  0.45003  1.0000
  H   H899      1.0  0.61232  0.55699  0.06188  1.0000
  S   S145      1.0  0.52817  0.88446  0.41365  1.0000
  H   H900      1.0  0.57683  0.54326  0.46631  1.0000
  S   S146      1.0  0.51985  0.84579  0.04206  1.0000
  Fe  Fe71      1.0  0.52890  0.83205  0.13523  1.0000
  S   S147      1.0  0.56165  0.85006  0.09837  1.0000
  S   S148      1.0  0.52711  0.81520  0.18723  1.0000
  Fe  Fe72      1.0  0.54494  0.87447  0.08224  1.0000
  S   S149      1.0  0.55986  0.91606  0.06635  1.0000
  Fe  Fe73      1.0  0.53402  0.81997  0.06106  1.0000
  S   S150      1.0  0.54864  0.79910  0.02671  1.0000
  S   S151      1.0  0.51441  0.85828  0.12175  1.0000
  H   H901      1.0  0.78537  0.57334  0.14612  1.0000
  H   H902      1.0  0.94319  0.53110  0.24660  1.0000
  C   C517      1.0  0.55509  0.74551  0.48175  1.0000
  Fe  Fe74      1.0  0.87548  0.52049  0.13712  1.0000
  S   S152      1.0  0.88367  0.54820  0.09435  1.0000
  S   S153      1.0  0.87262  0.53469  0.18974  1.0000
  Fe  Fe75      1.0  0.85158  0.51441  0.06605  1.0000
  H   H903      1.0  0.76719  0.51840  0.07595  1.0000
  Fe  Fe76      1.0  0.91081  0.53534  0.07576  1.0000
  S   S154      1.0  0.95088  0.55357  0.05191  1.0000
  C   C518      1.0  0.52614  0.75432  0.13279  1.0000
  C   C519      1.0  0.49553  0.95806  0.00771  1.0000
  Fe  Fe77      1.0  0.91009  0.55408  0.43289  1.0000
  C   C520      1.0  0.93450  0.56145  0.33969  1.0000
  S   S155      1.0  0.94811  0.59207  0.42809  1.0000
  Fe  Fe78      1.0  0.85072  0.52571  0.44317  1.0000
  H   H904      1.0  0.50409  0.66445  0.44265  1.0000
  H   H905      1.0  0.50835  0.74340  0.11737  1.0000
  H   H906      1.0  0.60993  0.78790  0.18399  1.0000
  H   H907      1.0  0.49165  0.83732  0.19951  1.0000
  N   N38       1.0  0.59110  0.50559  0.02953  1.0000
  H   H908      1.0  0.55716  0.88853  0.26574  1.0000
  S   S156      1.0  0.87651  0.54543  0.39849  1.0000
  H   H909      1.0  0.94285  0.55643  0.22498  1.0000
  Fe  Fe79      1.0  0.87482  0.50830  0.38810  1.0000
  H   H910      1.0  0.59125  0.83748  0.18308  1.0000
  C   C521      1.0  0.59862  0.78808  0.07109  1.0000
  H   H911      1.0  0.61190  0.80188  0.05232  1.0000
  C   C522      1.0  0.87166  0.52142  0.23005  1.0000
  C   C523      1.0  0.86792  0.53271  0.25892  1.0000
  C   C524      1.0  0.86773  0.52332  0.29152  1.0000
  H   H912      1.0  0.61660  0.76843  0.15626  1.0000
  N   N39       1.0  0.57461  0.78684  0.12535  1.0000
  C   C525      1.0  0.50808  0.92315  0.46768  1.0000
  H   H913      1.0  0.86527  0.54893  0.25609  1.0000
  H   H914      1.0  0.86497  0.53229  0.31344  1.0000
  H   H915      1.0  0.63201  0.52576  0.03879  1.0000
  S   S157      1.0  0.90935  0.51776  0.42047  1.0000
  H   H916      1.0  0.60822  0.77836  0.08223  1.0000
  C   C526      1.0  0.79150  0.52588  0.48286  1.0000
  H   H917      1.0  0.92705  0.51676  0.31503  1.0000
  H   H918      1.0  0.80289  0.55180  0.09307  1.0000
  H   H919      1.0  0.94143  0.56157  0.36562  1.0000
  C   C527      1.0  0.58265  0.94757  0.08089  1.0000
  C   C528      1.0  0.60057  0.95234  0.10657  1.0000
  C   C529      1.0  0.58302  0.96858  0.06533  1.0000
  H   H920      1.0  0.60070  0.93649  0.11867  1.0000
  H   H921      1.0  0.56941  0.96523  0.04533  1.0000
  C   C530      1.0  0.53866  0.76676  0.01476  1.0000
  H   H922      1.0  0.49983  0.86881  0.23671  1.0000
  H   H923      1.0  0.57699  0.52706  0.00216  1.0000
  H   H924      1.0  0.78606  0.50237  0.19965  1.0000
  H   H925      1.0  0.51598  0.79464  0.25402  1.0000
  S   S158      1.0  0.49986  0.82180  0.41041  1.0000
  C   C531      1.0  0.59620  0.96527  0.45212  1.0000
  H   H926      1.0  0.60994  0.98336  0.24412  1.0000
  H   H927      1.0  0.58544  0.95415  0.43026  1.0000
  H   H928      1.0  0.82835  0.58098  0.14544  1.0000
  C   C532      1.0  0.54020  0.85285  0.29238  1.0000
  C   C533      1.0  0.54802  0.86798  0.26321  1.0000
  C   C534      1.0  0.54408  0.85681  0.23084  1.0000
  C   C535      1.0  0.53261  0.83032  0.22734  1.0000
  C   C536      1.0  0.52488  0.81516  0.25646  1.0000
  C   C537      1.0  0.52845  0.82632  0.28882  1.0000
  H   H929      1.0  0.75382  0.54786  0.15247  1.0000
  H   H930      1.0  0.55015  0.86871  0.20870  1.0000
  H   H931      1.0  0.55076  0.49178  0.03554  1.0000
  H   H932      1.0  0.52241  0.81448  0.31103  1.0000
  H   H933      1.0  0.96636  0.55953  0.45632  1.0000
  C   C538      1.0  0.49845  0.91498  0.04117  1.0000
  C   C539      1.0  0.59253  0.49259  0.99780  1.0000
  C   C540      1.0  0.57186  0.80372  0.15105  1.0000
  H   H934      1.0  0.97125  0.56314  0.24783  1.0000
  H   H935      1.0  0.98048  0.59585  0.30003  1.0000
  C   C541      1.0  0.87502  0.50045  0.23415  1.0000
  C   C542      1.0  0.98243  0.57572  0.06740  1.0000
  H   H936      1.0  0.52811  0.97473  0.45645  1.0000
  H   H937      1.0  0.97096  0.59261  0.10615  1.0000
  H   H938      1.0  0.57974  0.75388  0.12475  1.0000
  C   C543      1.0  0.95816  0.52747  0.35036  1.0000
  H   H939      1.0  0.92689  0.49496  0.06808  1.0000
  C   C544      1.0  0.62119  0.52818  0.48403  1.0000
  H   H940      1.0  0.91933  0.58372  0.31558  1.0000
  S   S159      1.0  0.50243  0.80109  0.09873  1.0000
  H   H941      1.0  0.59909  0.98504  0.18112  1.0000
  H   H942      1.0  0.97938  0.53883  0.35135  1.0000
  C   C545      1.0  0.60974  0.78227  0.15722  1.0000
  H   H943      1.0  0.84367  0.58710  0.10527  1.0000
  N   N40       1.0  0.51930  0.94484  0.49305  1.0000
  H   H944      1.0  0.52870  0.74014  0.14710  1.0000
  S   S160      1.0  0.52201  0.79046  0.48441  1.0000
  H   H945      1.0  0.55859  0.80981  0.14117  1.0000
  N   N41       1.0  0.79704  0.52783  0.13688  1.0000
  H   H946      1.0  0.92836  0.50782  0.01208  1.0000
  H   H947      1.0  0.49162  0.70461  0.02526  1.0000
  H   H948      1.0  0.50355  0.74874  0.04251  1.0000
  C   C546      1.0  0.59775  0.95267  0.48099  1.0000
  C   C547      1.0  0.79460  0.51815  0.02000  1.0000
  H   H949      1.0  0.85129  0.57102  0.13665  1.0000
  C   C548      1.0  0.48919  0.89021  0.06133  1.0000
  C   C549      1.0  0.80132  0.54389  0.02062  1.0000
  S   S161      1.0  0.90409  0.50981  0.12001  1.0000
  S   S162      1.0  0.81215  0.52437  0.45166  1.0000
  H   H950      1.0  0.54895  0.75630  0.09077  1.0000
  H   H951      1.0  0.56901  0.74392  0.46665  1.0000
  H   H952      1.0  0.55104  0.96488  0.45874  1.0000
  H   H953      1.0  0.81983  0.55814  0.03062  1.0000
  H   H954      1.0  0.82347  0.53950  0.09531  1.0000
  C   C550      1.0  0.56676  0.49314  0.47155  1.0000
  H   H955      1.0  0.58134  0.77412  0.05678  1.0000
  C   C551      1.0  0.49229  0.92540  0.43864  1.0000
  C   C552      1.0  0.77041  0.50011  0.00639  1.0000
  H   H956      1.0  0.61181  0.82592  0.17092  1.0000
  H   H957      1.0  0.48767  0.63285  0.02781  1.0000
  C   C553      1.0  0.97812  0.57895  0.31407  1.0000
  C   C554      1.0  0.83539  0.57300  0.12596  1.0000
  H   H958      1.0  0.63385  0.87628  0.49426  1.0000
  H   H959      1.0  0.52271  0.76651  0.15039  1.0000
  H   H960      1.0  0.56293  0.79298  0.17456  1.0000
  H   H961      1.0  0.78965  0.57128  0.00876  1.0000
  H   H962      1.0  0.49540  0.90443  0.47946  1.0000
  C   C555      1.0  0.98283  0.57756  0.44933  1.0000
  H   H963      1.0  0.56801  0.49785  0.07408  1.0000
  H   H964      1.0  0.58524  0.81382  0.08455  1.0000
  C   C556      1.0  0.59618  0.82876  0.16187  1.0000
  H   H965      1.0  0.92446  0.58856  0.35992  1.0000
  H   H966      1.0  0.79515  0.54901  0.17965  1.0000
  H   H967      1.0  0.50415  0.94179  0.42206  1.0000
  C   C557      1.0  0.58243  0.76958  0.14208  1.0000
  C   C558      1.0  0.61612  0.87474  0.48404  1.0000
  H   H968      1.0  0.52366  0.92104  0.45628  1.0000
  C   C559      1.0  0.51598  0.74568  0.02619  1.0000
  H   H969      1.0  0.94112  0.57718  0.27416  1.0000
  H   H970      1.0  0.63304  0.98115  0.13523  1.0000
  H   H971      1.0  0.60689  0.85827  0.46618  1.0000
  H   H972      1.0  0.79003  0.49643  0.10375  1.0000
  C   C560      1.0  0.61395  0.51225  0.05194  1.0000
  H   H973      1.0  0.63520  0.49808  0.07940  1.0000
  H   H974      1.0  0.56947  0.75927  0.16336  1.0000
  C   C561      1.0  0.97926  0.59663  0.43531  1.0000
  H   H975      1.0  0.81554  0.50260  0.20374  1.0000
  C   C562      1.0  0.93262  0.58574  0.33640  1.0000
  C   C563      1.0  0.58743  0.98472  0.20270  1.0000
  H   H976      1.0  0.55731  0.77658  0.45223  1.0000
  C   C564      1.0  0.94759  0.53204  0.31737  1.0000
  H   H977      1.0  0.76607  0.52011  0.17066  1.0000
  H   H978      1.0  0.61162  0.81766  0.10815  1.0000
  C   C565      1.0  0.81394  0.54733  0.11129  1.0000
  H   H979      1.0  0.57754  0.53855  0.06454  1.0000
  C   C566      1.0  0.61892  0.97775  0.11593  1.0000
  C   C567      1.0  0.95006  0.55186  0.24824  1.0000
  C   C568      1.0  0.59277  0.80283  0.09793  1.0000
  H   H980      1.0  0.95154  0.60313  0.33280  1.0000
  H   H981      1.0  0.51599  0.66104  0.48320  1.0000
  C   C569      1.0  0.77239  0.55262  0.14102  1.0000
  C   C570      1.0  0.78409  0.55132  0.00813  1.0000
  S   S163      1.0  0.88456  0.53797  0.47833  1.0000
  H   H982      1.0  0.91453  0.54488  0.33927  1.0000
  H   H983      1.0  0.95010  0.53115  0.37314  1.0000
  C   C571      1.0  0.75881  0.50327  0.09513  1.0000
  C   C572      1.0  0.87137  0.50249  0.29562  1.0000
  H   H984      1.0  0.62173  0.89217  0.46899  1.0000
  C   C573      1.0  0.50285  0.65067  0.46184  1.0000
  H   H985      1.0  0.54310  0.78207  0.09374  1.0000
  C   C574      1.0  0.80102  0.50123  0.18520  1.0000
  C   C575      1.0  0.59327  0.53048  0.01886  1.0000
  C   C576      1.0  0.54866  0.77020  0.10883  1.0000
  H   H986      1.0  0.96082  0.50651  0.07165  1.0000
  H   H987      1.0  0.49052  0.84565  0.26885  1.0000
  H   H988      1.0  0.51151  0.96923  0.02593  1.0000
  H   H989      1.0  0.82736  0.54039  0.17467  1.0000
  C   C577      1.0  0.93895  0.55819  0.27924  1.0000
  H   H990      1.0  0.91805  0.54444  0.27875  1.0000
  H   H991      1.0  0.62409  0.79898  0.14305  1.0000
  N   N42       1.0  0.95032  0.55799  0.31325  1.0000
  H   H992      1.0  0.49452  0.92770  0.05713  1.0000
  H   H993      1.0  0.59308  0.56441  0.03578  1.0000
  S   S164      1.0  0.87935  0.50413  0.04345  1.0000
  S   S165      1.0  0.81494  0.50726  0.03722  1.0000
  C   C578      1.0  0.59404  0.54827  0.04736  1.0000
  H   H994      1.0  0.52675  0.89833  0.00691  1.0000
  H   H995      1.0  0.76017  0.51390  0.44747  1.0000
  C   C579      1.0  0.54845  0.76411  0.47345  1.0000
  H   H996      1.0  0.97040  0.51837  0.01845  1.0000
  C   C580      1.0  0.78260  0.53674  0.15852  1.0000
  Fe  Fe80      1.0  0.88201  0.50081  0.46344  1.0000
  H   H997      1.0  0.82715  0.51891  0.14416  1.0000
  H   H998      1.0  0.95771  0.52813  0.29709  1.0000
  H   H999      1.0  0.95270  0.50704  0.35129  1.0000
  H   H1000     1.0  0.60310  0.84295  0.14123  1.0000
  S   S166      1.0  0.58234  0.91881  0.48525  1.0000
  H   H1001     1.0  0.51971  0.92497  0.03981  1.0000
  H   H1002     1.0  0.76876  0.54937  0.11360  1.0000
  H   H1003     1.0  0.61787  0.54252  0.47176  1.0000
  C   C581      1.0  0.77899  0.50309  0.11878  1.0000
  C   C582      1.0  0.81433  0.52303  0.15948  1.0000
  H   H1004     1.0  0.49963  0.89508  0.08589  1.0000
  C   C583      1.0  0.76638  0.51932  0.47340  1.0000
  Fe  Fe81      1.0  0.49603  0.85141  0.44028  1.0000
  C   C584      1.0  0.57893  0.54685  0.49388  1.0000
  H   H1005     1.0  0.62024  0.51447  0.46471  1.0000
  H   H1006     1.0  0.61355  0.52227  0.07524  1.0000
  H   H1007     1.0  0.57320  0.96428  0.20722  1.0000
  C   C585      1.0  0.53814  0.96866  0.47445  1.0000
  S   S167      1.0  0.52106  0.85262  0.48276  1.0000
  C   C586      1.0  0.96703  0.50230  0.00142  1.0000
  H   H1008     1.0  0.73004  0.51472  0.48905  1.0000
  C   C587      1.0  0.53050  0.76658  0.49264  1.0000
  H   H1009     1.0  0.74403  0.50477  0.10958  1.0000
  H   H1010     1.0  0.98217  0.57587  0.37023  1.0000
  H   H1011     1.0  0.49207  0.95818  0.48953  1.0000
  H   H1012     1.0  0.98204  0.49800  0.00962  1.0000
  Fe  Fe82      1.0  0.49032  0.82886  0.08254  1.0000
  H   H1013     1.0  0.49331  0.87654  0.04837  1.0000
  H   H1014     1.0  0.61089  0.54192  0.00377  1.0000
  C   C588      1.0  0.98699  0.59297  0.09379  1.0000
  H   H1015     1.0  0.87787  0.49152  0.21225  1.0000
  C   C589      1.0  0.87484  0.49106  0.26673  1.0000
  C   C590      1.0  0.52504  0.71593  0.99496  1.0000
  C   C591      1.0  0.75985  0.53327  0.99459  1.0000
  Fe  Fe83      1.0  0.53883  0.65968  0.63279  1.0000
  S   S168      1.0  0.56929  0.67022  0.59355  1.0000
  S   S169      1.0  0.55319  0.67861  0.68468  1.0000
  H   H1016     1.0  0.60947  0.52817  0.53523  1.0000
  S   S170      1.0  0.52408  0.63233  0.54080  1.0000
  Fe  Fe84      1.0  0.54887  0.62813  0.58032  1.0000
  S   S171      1.0  0.56144  0.59808  0.58253  1.0000
  Fe  Fe85      1.0  0.54179  0.67376  0.55771  1.0000
  S   S172      1.0  0.55349  0.70603  0.51868  1.0000
  S   S173      1.0  0.51965  0.61779  0.62131  1.0000
  S   S174      1.0  0.51279  0.66563  0.59785  1.0000
  Fe  Fe86      1.0  0.52580  0.65691  0.95427  1.0000
  H   H1017     1.0  0.64314  0.54187  0.87292  1.0000
  Fe  Fe87      1.0  0.49636  0.62426  0.58255  1.0000
  Fe  Fe88      1.0  0.55514  0.62784  0.94466  1.0000
  S   S175      1.0  0.52561  0.59884  0.90922  1.0000
  H   H1018     1.0  0.57436  0.69468  0.75146  1.0000
  Fe  Fe89      1.0  0.52545  0.63206  0.88471  1.0000
  S   S176      1.0  0.51508  0.62663  0.82844  1.0000
  C   C592      1.0  0.76202  0.57509  0.64472  1.0000
  S   S177      1.0  0.55696  0.66191  0.91823  1.0000
  H   H1019     1.0  0.62827  0.57729  0.82060  1.0000
  H   H1020     1.0  0.52560  0.75099  0.80089  1.0000
  S   S178      1.0  0.68611  0.53817  0.90996  1.0000
  H   H1021     1.0  0.60958  0.53137  0.73977  1.0000
  C   C593      1.0  0.52818  0.73039  0.84378  1.0000
  S   S179      1.0  0.67157  0.49337  0.61243  1.0000
  Fe  Fe90      1.0  0.64976  0.52738  0.93852  1.0000
  S   S180      1.0  0.68058  0.53912  0.69499  1.0000
  Fe  Fe91      1.0  0.69826  0.52319  0.95496  1.0000
  C   C594      1.0  0.78183  0.53327  0.54023  1.0000
  C   C595      1.0  0.74452  0.55481  0.67041  1.0000
  H   H1022     1.0  0.66801  0.58616  0.84654  1.0000
  Fe  Fe92      1.0  0.66030  0.54613  0.57440  1.0000
  C   C596      1.0  0.75319  0.50755  0.99386  1.0000
  S   S181      1.0  0.65350  0.57750  0.55384  1.0000
  Fe  Fe93      1.0  0.69606  0.52275  0.57346  1.0000
  S   S182      1.0  0.63469  0.51865  0.61314  1.0000
  H   H1023     1.0  0.71662  0.51030  0.75286  1.0000
  H   H1024     1.0  0.76678  0.49923  0.65790  1.0000
  Fe  Fe94      1.0  0.67038  0.52525  0.64002  1.0000
  H   H1025     1.0  0.59874  0.84840  0.58959  1.0000
  H   H1026     1.0  0.74466  0.56506  0.69361  1.0000
  S   S183      1.0  0.69625  0.55485  0.60275  1.0000
  C   C597      1.0  0.75672  0.52675  0.53072  1.0000
  S   S184      1.0  0.73586  0.52758  0.56211  1.0000
  H   H1027     1.0  0.51223  0.66871  0.85954  1.0000
  C   C598      1.0  0.67047  0.56992  0.83916  1.0000
  H   H1028     1.0  0.50809  0.96459  0.52832  1.0000
  C   C599      1.0  0.58946  0.82905  0.52286  1.0000
  C   C600      1.0  0.56642  0.52218  0.51465  1.0000
  C   C601      1.0  0.56012  0.71893  0.88869  1.0000
  H   H1029     1.0  0.56290  0.70696  0.86996  1.0000
  C   C602      1.0  0.53391  0.93994  0.52021  1.0000
  H   H1030     1.0  0.57215  0.77815  0.98461  1.0000
  H   H1031     1.0  0.96714  0.52812  0.96284  1.0000
  C   C603      1.0  0.52201  0.91239  0.53332  1.0000
  H   H1032     1.0  0.62464  0.56737  0.86319  1.0000
  S   S185      1.0  0.66354  0.51606  0.98492  1.0000
  C   C604      1.0  0.73110  0.51534  0.70193  1.0000
  H   H1033     1.0  0.56881  0.98945  0.51287  1.0000
  C   C605      1.0  0.68227  0.52525  0.79504  1.0000
  H   H1034     1.0  0.75752  0.56739  0.61853  1.0000
  H   H1035     1.0  0.53083  0.72355  0.91221  1.0000
  H   H1036     1.0  0.64525  0.61852  0.53518  1.0000
  C   C606      1.0  0.58183  0.57966  0.93687  1.0000
  C   C607      1.0  0.58871  0.56094  0.93134  1.0000
  H   H1037     1.0  0.50965  0.62970  0.70520  1.0000
  H   H1038     1.0  0.59721  0.54557  0.76742  1.0000
  S   S186      1.0  0.52610  0.62483  0.98285  1.0000
  H   H1039     1.0  0.56303  0.57596  0.92944  1.0000
  H   H1040     1.0  0.60996  0.62729  0.54557  1.0000
  C   C608      1.0  0.61740  0.56037  0.83702  1.0000
  H   H1041     1.0  0.56757  0.87260  0.58635  1.0000
  C   C609      1.0  0.59922  0.60305  0.95219  1.0000
  H   H1042     1.0  0.50022  0.67016  0.79136  1.0000
  H   H1043     1.0  0.64479  0.87604  0.58891  1.0000
  H   H1044     1.0  0.69766  0.55779  0.76206  1.0000
  H   H1045     1.0  0.60736  0.49944  0.52195  1.0000
  C   C610      1.0  0.58774  0.59339  0.57473  1.0000
  C   C611      1.0  0.58707  0.57162  0.58816  1.0000
  C   C612      1.0  0.60735  0.56691  0.58300  1.0000
  C   C613      1.0  0.62839  0.58363  0.56357  1.0000
  C   C614      1.0  0.62910  0.60543  0.55024  1.0000
  C   C615      1.0  0.60906  0.61045  0.55604  1.0000
  H   H1046     1.0  0.57075  0.55833  0.60279  1.0000
  H   H1047     1.0  0.60651  0.55013  0.59356  1.0000
  H   H1048     1.0  0.58343  0.79128  0.53303  1.0000
  S   S187      1.0  0.73882  0.54399  0.97939  1.0000
  C   C616      1.0  0.54291  0.66356  0.72437  1.0000
  C   C617      1.0  0.52091  0.63954  0.72744  1.0000
  C   C618      1.0  0.51303  0.62848  0.75948  1.0000
  C   C619      1.0  0.52717  0.64107  0.78879  1.0000
  C   C620      1.0  0.54956  0.66485  0.78568  1.0000
  H   H1049     1.0  0.65106  0.52900  0.83855  1.0000
  H   H1050     1.0  0.64477  0.88605  0.54684  1.0000
  H   H1051     1.0  0.56355  0.88051  0.54357  1.0000
  C   C621      1.0  0.74915  0.51974  0.49701  1.0000
  C   C622      1.0  0.62677  0.53914  0.78970  1.0000
  H   H1052     1.0  0.67690  0.57204  0.81267  1.0000
  C   C623      1.0  0.73285  0.52525  0.73822  1.0000
  H   H1053     1.0  0.75836  0.59126  0.64550  1.0000
  H   H1054     1.0  0.50553  0.75172  0.53542  1.0000
  H   H1055     1.0  0.61331  0.95811  0.53133  1.0000
  N   N43       1.0  0.58914  0.62074  0.68356  1.0000
  C   C624      1.0  0.60941  0.62002  0.66241  1.0000
  C   C625      1.0  0.58451  0.64086  0.66863  1.0000
  C   C626      1.0  0.56498  0.59498  0.68025  1.0000
  C   C627      1.0  0.59848  0.62641  0.71977  1.0000
  C   C628      1.0  0.61509  0.59849  0.67022  1.0000
  C   C629      1.0  0.60822  0.66796  0.66687  1.0000
  C   C630      1.0  0.54100  0.59163  0.69811  1.0000
  C   C631      1.0  0.58647  0.63813  0.74279  1.0000
  H   H1056     1.0  0.60431  0.61845  0.63511  1.0000
  H   H1057     1.0  0.62810  0.63817  0.66508  1.0000
  H   H1058     1.0  0.56973  0.64264  0.68235  1.0000
  H   H1059     1.0  0.57662  0.63525  0.64248  1.0000
  H   H1060     1.0  0.55972  0.59006  0.65314  1.0000
  H   H1061     1.0  0.56790  0.57966  0.69055  1.0000
  H   H1062     1.0  0.59577  0.60881  0.73216  1.0000
  H   H1063     1.0  0.61949  0.64027  0.72057  1.0000
  H   H1064     1.0  0.61943  0.59796  0.69731  1.0000
  H   H1065     1.0  0.59920  0.57957  0.66169  1.0000
  H   H1066     1.0  0.63217  0.60190  0.65575  1.0000
  H   H1067     1.0  0.62095  0.66939  0.64596  1.0000
  H   H1068     1.0  0.60189  0.68183  0.66130  1.0000
  H   H1069     1.0  0.61921  0.67405  0.69091  1.0000
  H   H1070     1.0  0.54305  0.59170  0.72593  1.0000
  H   H1071     1.0  0.52446  0.57261  0.69110  1.0000
  H   H1072     1.0  0.53566  0.60578  0.69023  1.0000
  H   H1073     1.0  0.58499  0.63084  0.76882  1.0000
  H   H1074     1.0  0.56706  0.63370  0.73546  1.0000
  H   H1075     1.0  0.59918  0.65918  0.74495  1.0000
  H   H1076     1.0  0.49278  0.93573  0.96295  1.0000
  H   H1077     1.0  0.68640  0.57143  0.85496  1.0000
  H   H1078     1.0  0.58192  0.50933  0.82713  1.0000
  C   C632      1.0  0.55448  0.76212  0.99352  1.0000
  H   H1079     1.0  0.52305  0.89967  0.51399  1.0000
  C   C633      1.0  0.58934  0.55421  0.83759  1.0000
  H   H1080     1.0  0.55610  0.82908  0.56875  1.0000
  H   H1081     1.0  0.64926  0.59235  0.96369  1.0000
  S   S188      1.0  0.66204  0.51639  0.54153  1.0000
  H   H1082     1.0  0.92520  0.49800  0.94794  1.0000
  H   H1083     1.0  0.57871  0.54564  0.81384  1.0000
  H   H1084     1.0  0.53757  0.95260  0.54252  1.0000
  C   C634      1.0  0.68571  0.53723  0.76358  1.0000
  C   C635      1.0  0.51934  0.75003  0.52018  1.0000
  C   C636      1.0  0.64616  0.54371  0.84528  1.0000
  C   C637      1.0  0.62350  0.60730  0.96196  1.0000
  H   H1085     1.0  0.51761  0.71940  0.55018  1.0000
  H   H1086     1.0  0.85259  0.49467  0.53318  1.0000
  C   C638      1.0  0.83585  0.49599  0.54134  1.0000
  C   C639      1.0  0.78896  0.56647  0.71480  1.0000
  H   H1087     1.0  0.69177  0.53651  0.81738  1.0000
  C   C640      1.0  0.49093  0.89367  0.98498  1.0000
  Fe  Fe95      1.0  0.49675  0.59808  0.94510  1.0000
  H   H1088     1.0  0.53698  0.85637  0.56593  1.0000
  H   H1089     1.0  0.60721  0.87988  0.57828  1.0000
  C   C641      1.0  0.61311  0.56536  0.94066  1.0000
  H   H1090     1.0  0.81838  0.53851  0.52433  1.0000
  C   C642      1.0  0.60661  0.86235  0.56863  1.0000
  C   C643      1.0  0.79910  0.53297  0.51657  1.0000
  C   C644      1.0  0.67452  0.52282  0.73395  1.0000
  H   H1091     1.0  0.50203  0.90425  0.54155  1.0000
  H   H1092     1.0  0.79073  0.55000  0.66765  1.0000
  H   H1093     1.0  0.58405  0.49902  0.57610  1.0000
  S   S189      1.0  0.59150  0.62735  0.96003  1.0000
  H   H1094     1.0  0.49579  0.67447  0.51570  1.0000
  N   N44       1.0  0.58954  0.85201  0.53779  1.0000
  H   H1095     1.0  0.80373  0.58417  0.70240  1.0000
  H   H1096     1.0  0.55314  0.94478  0.51095  1.0000
  C   C645      1.0  0.52608  0.73153  0.52859  1.0000
  C   C646      1.0  0.56251  0.84351  0.54840  1.0000
  H   H1097     1.0  0.54746  0.73491  0.83520  1.0000
  Fe  Fe96      1.0  0.66573  0.49748  0.89118  1.0000
  H   H1098     1.0  0.53337  0.91233  0.55541  1.0000
  N   N45       1.0  0.51541  0.70577  0.86321  1.0000
  H   H1099     1.0  0.58755  0.51201  0.77123  1.0000
  H   H1100     1.0  0.63663  0.85339  0.55550  1.0000
  H   H1101     1.0  0.56885  0.71771  0.91285  1.0000
  C   C647      1.0  0.55721  0.67613  0.75364  1.0000
  H   H1102     1.0  0.89767  0.49563  0.96738  1.0000
  H   H1103     1.0  0.63711  0.62527  0.97392  1.0000
  H   H1104     1.0  0.56078  0.67465  0.80793  1.0000
  H   H1105     1.0  0.57885  0.54130  0.85876  1.0000
  C   C648      1.0  0.54404  0.72906  0.50941  1.0000
  N   N46       1.0  0.62218  0.53903  0.82708  1.0000
  H   H1106     1.0  0.57024  0.50077  0.96053  1.0000
  C   C649      1.0  0.59719  0.87259  0.51150  1.0000
  H   H1107     1.0  0.63426  0.52623  0.78363  1.0000
  H   H1108     1.0  0.59799  0.51406  0.86635  1.0000
  C   C650      1.0  0.53155  0.70963  0.89445  1.0000
  H   H1109     1.0  0.54892  0.83390  0.52693  1.0000
  S   S190      1.0  0.51499  0.68360  0.98274  1.0000
  S   S191      1.0  0.62049  0.54088  0.93253  1.0000
  H   H1110     1.0  0.56047  0.73399  0.96788  1.0000
  C   C651      1.0  0.66681  0.49872  0.79749  1.0000
  H   H1111     1.0  0.57658  0.82192  0.50023  1.0000
  H   H1112     1.0  0.57094  0.73929  0.88125  1.0000
  H   H1113     1.0  0.72458  0.54644  0.66052  1.0000
  H   H1114     1.0  0.60526  0.89180  0.52358  1.0000
  H   H1115     1.0  0.78262  0.58292  0.65014  1.0000
  H   H1116     1.0  0.49527  0.97123  0.98856  1.0000
  H   H1117     1.0  0.64189  0.55840  0.78142  1.0000
  H   H1118     1.0  0.53130  0.74663  0.86039  1.0000
  C   C652      1.0  0.63046  0.58864  0.95620  1.0000
  H   H1119     1.0  0.78813  0.53893  0.56605  1.0000
  H   H1120     1.0  0.57493  0.54287  0.91988  1.0000
  C   C653      1.0  0.51401  0.68411  0.84264  1.0000
  H   H1121     1.0  0.76053  0.53243  0.62534  1.0000
  H   H1122     1.0  0.79917  0.56273  0.73537  1.0000
  H   H1123     1.0  0.54527  0.51314  0.51148  1.0000
  C   C654      1.0  0.58122  0.80612  0.54652  1.0000
  C   C655      1.0  0.65950  0.49624  0.73620  1.0000
  H   H1124     1.0  0.77507  0.57042  0.72716  1.0000
  C   C656      1.0  0.74639  0.51971  0.64426  1.0000
  N   N47       1.0  0.75034  0.53384  0.67727  1.0000
  H   H1125     1.0  0.72714  0.51370  0.63324  1.0000
  C   C657      1.0  0.77746  0.54368  0.68948  1.0000
  H   H1126     1.0  0.53230  0.69066  0.82913  1.0000
  H   H1127     1.0  0.57069  0.52883  0.54128  1.0000
  H   H1128     1.0  0.61060  0.50524  0.98433  1.0000
  H   H1129     1.0  0.52393  0.69153  0.90873  1.0000
  C   C658      1.0  0.60364  0.53151  0.76621  1.0000
  C   C659      1.0  0.60045  0.51358  0.83854  1.0000
  C   C660      1.0  0.55783  0.86475  0.56174  1.0000
  H   H1130     1.0  0.58912  0.57216  0.84221  1.0000
  H   H1131     1.0  0.71120  0.50826  0.69239  1.0000
  H   H1132     1.0  0.52001  0.94555  0.98831  1.0000
  H   H1133     1.0  0.49564  0.61011  0.76161  1.0000
  C   C661      1.0  0.63471  0.86971  0.56412  1.0000
  H   H1134     1.0  0.55285  0.49639  0.57697  1.0000
  C   C662      1.0  0.61188  0.96742  0.50891  1.0000
  C   C663      1.0  0.97353  0.51402  0.96596  1.0000
  H   H1135     1.0  0.59331  0.81130  0.56962  1.0000
  H   H1136     1.0  0.84199  0.51659  0.54052  1.0000
  H   H1137     1.0  0.60862  0.83403  0.51346  1.0000
  H   H1138     1.0  0.56072  0.79690  0.55321  1.0000
  C   C664      1.0  0.49895  0.93732  0.98985  1.0000
  H   H1139     1.0  0.73119  0.54254  0.73941  1.0000
  C   C665      1.0  0.54786  0.73699  0.98387  1.0000
  H   H1140     1.0  0.59934  0.55937  0.50120  1.0000
  H   H1141     1.0  0.75059  0.52870  0.75126  1.0000
  C   C666      1.0  0.74893  0.49569  0.64515  1.0000
  H   H1142     1.0  0.77908  0.52795  0.70131  1.0000
  H   H1143     1.0  0.96552  0.49969  0.94533  1.0000
  C   C667      1.0  0.60301  0.51438  0.51372  1.0000
  H   H1144     1.0  0.73475  0.49333  0.98359  1.0000
  H   H1145     1.0  0.49499  0.72806  0.81608  1.0000
  S   S192      1.0  0.49469  0.62945  0.91858  1.0000
  H   H1146     1.0  0.58009  0.86970  0.49699  1.0000
  H   H1147     1.0  0.53166  0.91865  0.97104  1.0000
  H   H1148     1.0  0.51925  0.88526  0.96545  1.0000
  H   H1149     1.0  0.49182  0.71678  0.89090  1.0000
  C   C668      1.0  0.51446  0.73146  0.81148  1.0000
  C   C669      1.0  0.51885  0.89973  0.98226  1.0000
  H   H1150     1.0  0.73296  0.49819  0.70486  1.0000
  C   C670      1.0  0.49937  0.94967  0.50820  1.0000
  C   C671      1.0  0.48960  0.70047  0.87521  1.0000
  N   N48       1.0  0.57465  0.50303  0.50720  1.0000
  H   H1151     1.0  0.56945  0.55794  0.49998  1.0000
  H   H1152     1.0  0.51408  0.71833  0.79164  1.0000
  C   C672      1.0  0.49208  0.67091  0.81609  1.0000
