data_image0
_chemical_formula_structural       CH3CH2CH3C4HCH2C2H2CH2C3HCH3NC2H5CH3FeS2FeSHFeHFeS3HFeSFe3S2FeS2FeSFeS3Fe2S2CH6C2HCFeS2FeS2FeSHFeSFeS3H2SCH6SC2H2C6H6SCHCHCH3C6H4C2HC3HSCHC6H6CSHC6H7SHNC8H10SCH9C2H2CS2HCH5CFeH11C3HSCH5CHC2NC5H4CH5NC4H2CH2CH2SH2NC8H24NC8H10FeC2H2C2HCH4C2HC2H2C2H11C2HNC2HCH2C4SCNH6FeCHCHCSH2SCH7CFeS2FeC2FeHFeS3CFeSFeCFeS2FeS2FeSFeS3FeHSFeH2NH2C2H3CFeS2FeS2FeSHFeSFeS3H3SCH6C2H2C6H6C2SH2CH3C6H4C2H3CH2CHC6H6CH2C6H7SHNC5H16NHS2CSHFeHCH6CH5NC2HC4H5CH3C2H6NC6H12CH3CH2SCSH2C2H5FeCH3CH2C2SHC6H2CHCH2CSH7CH4C2HCH2CNSC2H7C2H3CH2C2HSCH2NC2H2CH2CH4C3H2CH2CH3C2H2CH3CHCH6C2H2C2H10C2H7C3H4CH2NSH2C2H3CHSH2CH4C2H2CSH3C2H5NH5C2H3CHCSH4SHFeS2FeS2Fe2S4CFeS3HNCHCHC6H4C6H4C7H2N2H3CHNC4H2NH6FeHC2HCH2SH5CSH2C2H2CHCH4CH3NHC2HCH2C2H3CHCH4CHCH6CH2SCH9CH5CHCH2SC3H3CH3CH2CH2CH5CSH7CHC4SCH4CFeHC3NH3CSCHC2H4CH3CH3NH4SHC2HCH5CH2CHSH2FeHCH5C3H2CHC2H2CH4CHCH4CH2CH3C2HCH2CH2CFeH2SHCH3CH2C2HCHSHFeSC2SHC2H4CSHCH2CSHSH4CH2CHC2HCFeHCHCFeSH7CHCH2CHFeH2CHCHC2HC2H2CHCNH3SC2H2CH3NC2H7CH2C2H2CHS2HSH2C2HCH2C2H2SH2SH3C2SH6CHCH2FeC4H2C2H5NH2CHSH2SFeH2C3HSHC2H3C2HC2H4CHFeCHC2H2CSHSH2CHC2H2C4HCNH2CHCFeH8C2H2CFeHSHSFeC2HC3H5NHFeH2CH3CSHC3HCH3CHNCH5CHSCH2CHCSNCH2CH2FeS2FeS2FeSCSHFeS2FeS2FeSFeS3FeS2FeSCFeSFeSFeCFeS2FeCFeHS3CHNHCH7C6H4CHC4H3C5SH3C4H5C6H4CHSC4H3CH2NC2SH5C3H9CH4C2H2CH2CH4C2H2C3H4SH4CH2CH2CH2CHNHCH5CH2CH2CHCHCHNCH4NH2CH3CHC2H3CHCHCH2C2H4C2HCHCH4CH4SH5SH2CH2FeS2FeCSFeSHSHFeS2FeS2FeSFeS3FeS2FeS2FeSFeSFeHFeS2FeNFeHS2H3CHCHC4H2C6H4C6H2CHC4H4C2HCH4C7H4CHCHC2H4C2HC3H4SH3CHC2HC2SCHSH6SCHNC7H7CH12NCNHC2HC2H2CH7C2H2SH11C3HNC8H9C2H2CH2CHCHCH3NH3C2HCH5SH7SH3CH3SCHCH2CH6CH2CNH2S3FeSHFeSHFeSFeS4CSHS2HCHNCH3NCHCH2FeSHSC6H6C3SC2H3FeCH2N2H2C7H4C6HSH2C3HC2H3C3HC2HSH2C6HCH3CHCH2NH2C3H4CH2SHC2HCH8CH2CH5NHC2FeHC2H5CNCSH2CHCSH2CHCH2SCH2CH2C2HCH2CH8SNC8H20NCSC2HFeH2CSCHSCH2C2H2C3H2C2H2CH14SCHCHCH2CH4SHCFeHCHNSFeHCHCHC2S2H2FeH5CHCHCH8SH2CHS2HFeCFeHCH3C3H10FeCH7FeHCNCH3SH3CH5CHSH2CFeCHS3FeSHFeSHFeSFeS5H2S4HFeH5CSCHCFeS3C6H11C2H3CSH2FeH3C6H4C6HCH2CH3C2H3C3H2C2H3C2HC3HCH2C4H3CHCH2CH8CNC2H2CH2CH2CH2CHCH2FeH2FeH4CHCSNH3CHFeC2H6CNH2C2SH4CHS2CHCHC3HCHCH2CH4SHCH6FeCH8CH5CH3CHNCHCHSC3HCH6CH2CHFeHCH4C2SHCHFeCHSH3SHCHC2SNHNH2CSH5CHSCH3FeHNH5C2HCH3SCH2CH4NHCNHC2H2C4H4FeH2CH2CH3SC2HCH2CHC2H6CHNHCHCH3CHCH4C2HSHFeHC2HSH2C2FeHCSHC3H4NCHFeCHCH2FeS2FeS2FeSFeSHFeCSFeH2FeSCSCHS2HS2FeS2FeSHFeSFeS3FeSFeSCHCHC6H4C6H3C3H3FeH4CHCHC2SC7H3C6H4C6SH3C7H4CHFeHCH2SH2CHFeC2SH7C2H2NC8H22CSH5CSH3C4H2CH3NHCSH3NCHCHSCHCH2SCH2CH6CHSHSCN2C8H20CH9C2HC2H6CHCH4NH2FeHC3HCH3C3HC2FeH8CH2NHCH2SCSFeCH6CH6CH2C2H6C2FeS2FeSHFeSHSFe2HSCSHFeSHS2HS2HS2FeS2FeSCFeSFeS3FeSFeSH2CHC6H4C6H4C4SCH2FeC4HSH2CH2C5H2C6H4C6FeH3C6H3C2FeH2C2HCHNH3C2H3NH5CH3CNC8H20NC4HSC2H8S2HSCHSFeC2FeHFeC2HSFeH3CH7SH2SHCSH3C3SHCH2CH6FeHC2H6CNHCH4CHC2H2CH3CH4SCH2CSCHCH8NH2FeH4C2HCHCHCHNH4CH2CH2SCH5NHFeS2FeHSFeCFeCS2C3FeSFeSCH2C2H4CH2NCH2SHC2HSC2H2CHCH2C3HNH2SH2C3H4C6H7CH3C2H2CH8CH3CH2C4H3CSH3NC8H9CHSHNH5C4SC2HCH2CHC2H2CH9CH4C2NH2CH2SCH3FeCH2CSHSHC2FeS2FeCSFeCFeCS2CH2FeSFeS2H2NCH8CNH4CH6C2SH2C3H7C3HCHC7H4CHCH5SCHCH4CH7C3H5CH8CHCHC5H2C3HC2HC2H8C4SH2CNSCSH3C3H7FeCFeH4SCS2CHCHCSCHNH2CSHFeHSNCHCHCSC2HCH2C2H2CSHC2H2C3FeHCH2CH2SH2SC2HC4H2CH2SH5SH4CHCH4C2HCFeCH2CH4C3HCH13CH2CH2CHSH4CSCHSFeHSH2SNSCSH2FeH3CH3CFeH4CH3CHSH4CHCHC8H2C6H6CHCH2CH3C4HSH2CHC2H2NCH2SCHC2HCH4CH4CSH6SHFeS2FeS2FeSFeS3H4CSH2CFeS2FeSHFeSFeS3C6H3C7H4C2HCSCH2C6H4C3HC2H4C6H4C6H5C3SHCH2CNHSHCH2CH4C3HCH2FeH2CH2C2H3C2SCH6NH2CHSC2H2NHCHCH3C2H6C3HCHCHSH5CH7C2HCHNC2H2CHCHCH6CHCH2SH2CHNH3C2H2CHCHCHCHCSCH4C2H2CH2CH3SHSCH2CNHC2HCH2NCHC2H6NFeH2C3FeH2FeCH2CH2CH3C2HCH5CH3NH2CHCHCH5CHCH9CNH2NH2CH2CHFeH2CHC2HFeCH3CHCHCH7CFeH2C2HCH2NH3FeH2C2HCH2SHFeS2FeS2FeSFeS3C2H2CSH3FeS2FeS2FeSFeS3C6H4C6H5CHCH2CHC6H4C4SCH4C6H4C6H6C3HCHNCH2C2H2C2HC2HCNSCH4CFeHNHC2SHC2H10NC2H13CH2C2SC2H2C3H10CH5CH3FeHCH7C2H5FeH2NHCH2CHC2H2CHC2H7CH2C3H2CSCH2NHCHCH3CHCH2CSHCH9CH4CH2CH7NCH3CH4FeHSH2CH6SFe2SFe2HS2C3HFeNCH3CHC3SC3SHS2H3C3HCSCHFeH2C5H4SHCHSH2C2H2SHCHCH7NH3C2SCFeS2Fe2SHFeHS2CH2SH2CSCH2CFeHC3HCH3CH2CHCH3CFeCH3CHSHCH2C2H2CH2CSH7NH2C4SHC2FeCH3CH2C2HSHSHNCSCSHFeSFeS2FeS2FeSFeHS2FeSHFeS2FeSFeS3FeHS3H3C3H6C2HC3HCHC7H4C6H4C6H6CH2C5SHCHCH4CH4NCH4CH4C2H2CHFeH2CHSHCH4CHCHCH5C2H5SH3SHNHSHSHCHCH3CH3CNC2HCH3CH3NC3H2CH3CH3CHCHCH2NC6HCH14FeHCH3NC4H11CHNHC3HC2SCH2SHCH3CH3CHCH3C2H9CH6FeHCHCFeH2C4HCH2FeCNH2C6HCH4SH2CH2C2HC2H2CH2CH6C3H2FeH3CHCFeHSHFeSFeS2FeS2FeSFeCS2FeSHFeSCFeSFeS3FeCS3H3C2H5C7H5C6H4C6H4C6H4SH2CHC5H5NCHC3HC2H2CH12C3H3CNH6CSHSHSHCH2CH3FeHCH3CH10CHC3H4SCH3CH6CHNC2HC3H4CH13FeHCH2CH4NCH3C2HC2HNCNCH6CHC2H2FeCSH2CSHCHC3H5CHSHCHCNH2CH2C2H4C2HSH5CH3C2H2C3H2NHSC3H4CH2SH2SC3H2CH8SH3NHNC2HFeC2FeS2HFeHFeHS2FeSCFeS2FeSFeS3FeS3FeSHFeS2FeSFeS3C6H4C6H6C3HCH3C6H5NH5NCHCHC2H6CH2C3H2SCH9SH3NH5CHCHCHCH2CHC2HCH4C2H6CHSC4HFeH3C2H5CNC8H23SFeH3SHCH3CH6CHCH3CH2SFeC2H2CH4C2H4CHC3HCH2CHC2H4SH2CHCHCHCH2CHC2H5FeS2HFeCFeCS2FeSHFeS2FeSFeS3FeS3FeSCFeS2FeSFeS3C6H4C6H6C4H3C7H6CHCH2FeCFeNHC2HC2H4C2NC2H7C2H4SH10C3H2CH3FeH5CNH2CH3C2H2NCH3CH5CHCH2C3H5CH2CHC3H2CH2CH4C2H3CH5CHCNC8H15C3H2CSCH2CNCHSH3C2HCSH4CH3SH6CH2FeH2CH4CHCHCH2C2HCHC2HC
_chemical_formula_sum              "C2016 H3456 N144 Fe288 S576"
_cell_length_a       72.052
_cell_length_b       76.2963
_cell_length_c       49.3148
_cell_angle_alpha    87.9784
_cell_angle_beta     88.0842
_cell_angle_gamma    106.085

_space_group_name_H-M_alt    "P 1"
_space_group_IT_number       1

loop_
  _space_group_symop_operation_xyz
  'x, y, z'

loop_
  _atom_site_type_symbol
  _atom_site_label
  _atom_site_symmetry_multiplicity
  _atom_site_fract_x
  _atom_site_fract_y
  _atom_site_fract_z
  _atom_site_occupancy
  C   C1        1.0  0.31624  0.02631  0.39253  1.0000
  H   H1        1.0  0.33189  0.03057  0.03705  1.0000
  H   H2        1.0  0.32380  0.05111  0.25726  1.0000
  H   H3        1.0  0.31313  0.04204  0.03410  1.0000
  C   C2        1.0  0.33470  0.03442  0.34955  1.0000
  H   H4        1.0  0.33128  0.02173  0.18957  1.0000
  H   H5        1.0  0.31529  0.04911  0.41663  1.0000
  C   C3        1.0  0.32350  0.02108  0.36842  1.0000
  H   H6        1.0  0.29599  0.03105  0.27993  1.0000
  H   H7        1.0  0.30250  0.01714  0.25493  1.0000
  H   H8        1.0  0.31849  0.03005  0.46193  1.0000
  C   C4        1.0  0.32679  0.03949  0.26889  1.0000
  C   C5        1.0  0.30736  0.02458  0.27341  1.0000
  C   C6        1.0  0.31893  0.02474  0.48313  1.0000
  C   C7        1.0  0.32096  0.04494  0.39811  1.0000
  H   H9        1.0  0.33047  0.04464  0.28946  1.0000
  C   C8        1.0  0.31941  0.03168  0.02513  1.0000
  H   H10       1.0  0.31359  0.02811  0.21091  1.0000
  H   H11       1.0  0.28780  0.01398  0.48028  1.0000
  C   C9        1.0  0.32661  0.02302  0.21094  1.0000
  C   C10       1.0  0.32587  0.03740  0.99510  1.0000
  H   H12       1.0  0.30800  0.01856  0.02782  1.0000
  H   H13       1.0  0.30818  0.01471  0.29012  1.0000
  C   C11       1.0  0.33256  0.05828  0.37949  1.0000
  H   H14       1.0  0.33571  0.07260  0.38367  1.0000
  H   H15       1.0  0.32822  0.01895  0.93308  1.0000
  C   C12       1.0  0.32257  0.05703  0.87650  1.0000
  C   C13       1.0  0.30728  0.04282  0.88865  1.0000
  C   C14       1.0  0.32339  0.02047  0.87492  1.0000
  H   H16       1.0  0.31802  0.04715  0.98747  1.0000
  C   C15       1.0  0.30763  0.02448  0.88795  1.0000
  H   H17       1.0  0.29515  0.04606  0.89870  1.0000
  H   H18       1.0  0.32213  0.07106  0.87710  1.0000
  H   H19       1.0  0.31792  0.03602  0.49638  1.0000
  N   N1        1.0  0.32449  0.02200  0.97631  1.0000
  C   C16       1.0  0.33076  0.02992  0.94793  1.0000
  C   C17       1.0  0.33527  0.12387  0.73646  1.0000
  H   H20       1.0  0.33040  0.11372  0.75379  1.0000
  H   H21       1.0  0.32695  0.13402  0.73859  1.0000
  H   H22       1.0  0.28624  0.02701  0.99151  1.0000
  H   H23       1.0  0.33151  0.11632  0.71769  1.0000
  H   H24       1.0  0.33475  0.02240  0.53069  1.0000
  C   C18       1.0  0.28817  0.01988  0.97285  1.0000
  H   H25       1.0  0.32183  0.03891  0.94125  1.0000
  H   H26       1.0  0.29102  0.02965  0.95502  1.0000
  H   H27       1.0  0.33143  0.18399  0.79061  1.0000
  Fe  Fe1       1.0  0.07871  0.45658  0.24496  1.0000
  S   S1        1.0  0.04905  0.44226  0.26203  1.0000
  S   S2        1.0  0.09746  0.43756  0.24155  1.0000
  Fe  Fe2       1.0  0.07107  0.49378  0.24790  1.0000
  S   S3        1.0  0.04098  0.48195  0.26617  1.0000
  H   H28       1.0  0.03445  0.32429  0.47651  1.0000
  Fe  Fe3       1.0  0.05416  0.46412  0.29254  1.0000
  H   H29       1.0  0.09056  0.43558  0.12286  1.0000
  Fe  Fe4       1.0  0.03927  0.46132  0.23387  1.0000
  S   S4        1.0  0.08439  0.47767  0.27629  1.0000
  S   S5        1.0  0.06862  0.47405  0.21441  1.0000
  S   S6        1.0  0.05519  0.46023  0.05514  1.0000
  H   H30       1.0  0.15528  0.44449  0.03552  1.0000
  Fe  Fe5       1.0  0.04564  0.43989  0.02288  1.0000
  S   S7        1.0  0.04746  0.41060  0.02789  1.0000
  Fe  Fe6       1.0  0.06725  0.48117  0.02090  1.0000
  Fe  Fe7       1.0  0.32864  0.38289  0.44638  1.0000
  Fe  Fe8       1.0  0.20090  0.40444  0.13325  1.0000
  S   S8        1.0  0.18364  0.37511  0.13294  1.0000
  S   S9        1.0  0.23357  0.41428  0.13007  1.0000
  Fe  Fe9       1.0  0.16480  0.41761  0.13802  1.0000
  S   S10       1.0  0.14478  0.38927  0.13874  1.0000
  S   S11       1.0  0.15185  0.44127  0.13719  1.0000
  Fe  Fe10      1.0  0.16580  0.38228  0.16684  1.0000
  S   S12       1.0  0.15744  0.36277  0.20357  1.0000
  Fe  Fe11      1.0  0.16442  0.38506  0.10483  1.0000
  S   S13       1.0  0.15173  0.36942  0.06854  1.0000
  S   S14       1.0  0.18434  0.41109  0.16907  1.0000
  S   S15       1.0  0.18316  0.41392  0.10224  1.0000
  Fe  Fe12      1.0  0.31535  0.37094  0.16423  1.0000
  Fe  Fe13      1.0  0.03426  0.47295  0.48902  1.0000
  S   S16       1.0  0.28299  0.36029  0.16144  1.0000
  S   S17       1.0  0.01303  0.45166  0.20850  1.0000
  C   C19       1.0  0.09852  0.42190  0.05330  1.0000
  H   H31       1.0  0.05209  0.32558  0.45014  1.0000
  H   H32       1.0  0.01753  0.42004  0.17149  1.0000
  H   H33       1.0  0.00979  0.49213  0.22815  1.0000
  H   H34       1.0  0.21231  0.39423  0.05254  1.0000
  H   H35       1.0  0.28569  0.39346  0.99459  1.0000
  H   H36       1.0  0.20057  0.39116  0.22246  1.0000
  C   C20       1.0  0.20192  0.40448  0.44795  1.0000
  C   C21       1.0  0.19959  0.35859  0.48587  1.0000
  H   H37       1.0  0.25573  0.38117  0.27471  1.0000
  C   C22       1.0  0.06377  0.31583  0.00925  1.0000
  Fe  Fe14      1.0  0.30414  0.40071  0.41200  1.0000
  S   S18       1.0  0.27503  0.40676  0.40895  1.0000
  S   S19       1.0  0.30762  0.37243  0.41405  1.0000
  Fe  Fe15      1.0  0.14340  0.37432  0.35578  1.0000
  S   S20       1.0  0.14538  0.34549  0.35482  1.0000
  S   S21       1.0  0.14148  0.39162  0.31836  1.0000
  Fe  Fe16      1.0  0.14405  0.37442  0.41812  1.0000
  S   S22       1.0  0.14646  0.34582  0.42095  1.0000
  H   H38       1.0  0.04335  0.46112  0.16405  1.0000
  Fe  Fe17      1.0  0.16807  0.35479  0.38571  1.0000
  S   S23       1.0  0.19666  0.34773  0.38447  1.0000
  Fe  Fe18      1.0  0.12358  0.34003  0.38996  1.0000
  S   S24       1.0  0.03999  0.48915  0.01574  1.0000
  S   S25       1.0  0.16710  0.38388  0.38477  1.0000
  S   S26       1.0  0.12012  0.36833  0.38895  1.0000
  H   H39       1.0  0.19531  0.37653  0.43750  1.0000
  H   H40       1.0  0.04095  0.46726  0.11427  1.0000
  S   S27       1.0  0.09615  0.50268  0.02101  1.0000
  C   C23       1.0  0.02943  0.46016  0.15570  1.0000
  H   H41       1.0  0.06707  0.30204  0.26158  1.0000
  H   H42       1.0  0.08785  0.37637  0.24846  1.0000
  H   H43       1.0  0.19953  0.34577  0.31743  1.0000
  H   H44       1.0  0.06918  0.35732  0.23620  1.0000
  H   H45       1.0  0.03379  0.31212  0.02529  1.0000
  H   H46       1.0  0.20969  0.41255  0.31274  1.0000
  S   S28       1.0  0.32805  0.41126  0.38003  1.0000
  C   C24       1.0  0.02602  0.39266  0.03544  1.0000
  C   C25       1.0  0.05936  0.30494  0.37991  1.0000
  H   H47       1.0  0.03074  0.29362  0.36514  1.0000
  H   H48       1.0  0.05403  0.30845  0.39915  1.0000
  C   C26       1.0  0.25419  0.39042  0.39852  1.0000
  C   C27       1.0  0.23757  0.39599  0.39337  1.0000
  C   C28       1.0  0.22003  0.38313  0.38804  1.0000
  C   C29       1.0  0.21892  0.36453  0.38792  1.0000
  C   C30       1.0  0.23574  0.35904  0.39188  1.0000
  C   C31       1.0  0.25330  0.37192  0.39721  1.0000
  H   H49       1.0  0.23818  0.41029  0.39410  1.0000
  H   H50       1.0  0.20736  0.38764  0.38459  1.0000
  H   H51       1.0  0.23508  0.34470  0.39161  1.0000
  H   H52       1.0  0.26599  0.36744  0.40104  1.0000
  H   H53       1.0  0.03348  0.42447  0.12340  1.0000
  H   H54       1.0  0.04847  0.41347  0.10536  1.0000
  S   S29       1.0  0.32810  0.36464  0.48365  1.0000
  C   C32       1.0  0.14338  0.38077  0.48777  1.0000
  H   H55       1.0  0.07977  0.43729  0.09032  1.0000
  C   C33       1.0  0.08426  0.36079  0.46581  1.0000
  H   H56       1.0  0.18735  0.34665  0.44788  1.0000
  C   C34       1.0  0.03509  0.47514  0.36712  1.0000
  H   H57       1.0  0.01453  0.39088  0.09184  1.0000
  H   H58       1.0  0.20777  0.36836  0.32726  1.0000
  H   H59       1.0  0.32200  0.32033  0.22115  1.0000
  C   C35       1.0  0.24664  0.39926  0.14145  1.0000
  C   C36       1.0  0.23821  0.38038  0.14344  1.0000
  C   C37       1.0  0.24943  0.36858  0.15021  1.0000
  C   C38       1.0  0.26907  0.37558  0.15528  1.0000
  C   C39       1.0  0.27734  0.39448  0.15426  1.0000
  C   C40       1.0  0.26619  0.40628  0.14711  1.0000
  H   H60       1.0  0.22321  0.37480  0.13905  1.0000
  H   H61       1.0  0.24291  0.35397  0.15113  1.0000
  H   H62       1.0  0.29236  0.40002  0.15862  1.0000
  H   H63       1.0  0.27277  0.42089  0.14575  1.0000
  C   C41       1.0  0.15277  0.38094  0.03672  1.0000
  C   C42       1.0  0.16072  0.39985  0.03329  1.0000
  H   H64       1.0  0.08302  0.33832  0.44034  1.0000
  C   C43       1.0  0.01029  0.36036  0.04717  1.0000
  C   C44       1.0  0.01001  0.46264  0.11675  1.0000
  C   C45       1.0  0.14586  0.37081  0.01418  1.0000
  H   H65       1.0  0.16609  0.40778  0.05049  1.0000
  S   S30       1.0  0.33400  0.36270  0.13263  1.0000
  C   C46       1.0  0.10340  0.41110  0.02939  1.0000
  H   H66       1.0  0.13958  0.35619  0.01673  1.0000
  C   C47       1.0  0.15417  0.37168  0.23515  1.0000
  C   C48       1.0  0.15133  0.38900  0.23727  1.0000
  C   C49       1.0  0.14763  0.39517  0.26292  1.0000
  C   C50       1.0  0.14718  0.38420  0.28651  1.0000
  C   C51       1.0  0.15054  0.36714  0.28428  1.0000
  C   C52       1.0  0.15376  0.36080  0.25871  1.0000
  H   H67       1.0  0.15160  0.39747  0.21913  1.0000
  H   H68       1.0  0.14503  0.40842  0.26437  1.0000
  H   H69       1.0  0.15022  0.35857  0.30213  1.0000
  H   H70       1.0  0.15594  0.34738  0.25717  1.0000
  H   H71       1.0  0.11440  0.45507  0.07247  1.0000
  H   H72       1.0  0.04808  0.31181  0.25201  1.0000
  C   C53       1.0  0.02712  0.37472  0.04032  1.0000
  S   S31       1.0  0.09549  0.31815  0.39966  1.0000
  H   H73       1.0  0.04104  0.37193  0.03915  1.0000
  C   C54       1.0  0.11194  0.43866  0.21190  1.0000
  C   C55       1.0  0.11349  0.45220  0.19138  1.0000
  C   C56       1.0  0.12573  0.45296  0.16830  1.0000
  C   C57       1.0  0.13631  0.44015  0.16574  1.0000
  C   C58       1.0  0.13442  0.42644  0.18602  1.0000
  C   C59       1.0  0.12233  0.42574  0.20911  1.0000
  H   H74       1.0  0.10556  0.46223  0.19353  1.0000
  H   H75       1.0  0.12723  0.46362  0.15265  1.0000
  H   H76       1.0  0.14253  0.41654  0.18409  1.0000
  H   H77       1.0  0.12116  0.41526  0.22493  1.0000
  H   H78       1.0  0.09891  0.31101  0.24425  1.0000
  H   H79       1.0  0.08945  0.36943  0.21468  1.0000
  H   H80       1.0  0.10380  0.34253  0.32800  1.0000
  S   S32       1.0  0.14222  0.39071  0.45521  1.0000
  H   H81       1.0  0.12098  0.32950  0.23973  1.0000
  N   N2        1.0  0.28801  0.38361  0.06436  1.0000
  C   C60       1.0  0.30710  0.39715  0.06931  1.0000
  C   C61       1.0  0.28714  0.38065  0.03428  1.0000
  C   C62       1.0  0.28598  0.36554  0.07928  1.0000
  C   C63       1.0  0.27197  0.39113  0.07457  1.0000
  C   C64       1.0  0.31143  0.40106  0.09921  1.0000
  C   C65       1.0  0.28479  0.39679  0.01627  1.0000
  C   C66       1.0  0.30244  0.35668  0.07374  1.0000
  C   C67       1.0  0.25120  0.37924  0.07070  1.0000
  H   H82       1.0  0.31927  0.39279  0.06012  1.0000
  H   H83       1.0  0.30815  0.41064  0.05915  1.0000
  H   H84       1.0  0.27531  0.36835  0.02986  1.0000
  H   H85       1.0  0.30059  0.37767  0.02641  1.0000
  H   H86       1.0  0.28442  0.36670  0.10162  1.0000
  H   H87       1.0  0.27239  0.35534  0.07407  1.0000
  H   H88       1.0  0.27270  0.39269  0.09682  1.0000
  H   H89       1.0  0.27359  0.40531  0.06648  1.0000
  H   H90       1.0  0.31068  0.38855  0.11175  1.0000
  H   H91       1.0  0.32633  0.41016  0.10014  1.0000
  S   S33       1.0  0.33295  0.40028  0.16308  1.0000
  C   C68       1.0  0.16200  0.40851  0.00738  1.0000
  H   H92       1.0  0.06704  0.51031  0.18567  1.0000
  H   H93       1.0  0.08852  0.36590  0.48608  1.0000
  H   H94       1.0  0.31644  0.36521  0.08039  1.0000
  H   H95       1.0  0.30386  0.35365  0.05207  1.0000
  H   H96       1.0  0.29925  0.34349  0.08574  1.0000
  H   H97       1.0  0.24666  0.36817  0.08684  1.0000
  H   H98       1.0  0.24933  0.37321  0.05057  1.0000
  H   H99       1.0  0.27055  0.39935  0.02017  1.0000
  H   H100      1.0  0.09693  0.38588  0.07660  1.0000
  C   C69       1.0  0.02888  0.48081  0.39193  1.0000
  C   C70       1.0  0.01395  0.50739  0.14966  1.0000
  H   H101      1.0  0.14317  0.42983  0.08273  1.0000
  H   H102      1.0  0.01249  0.28616  0.44573  1.0000
  C   C71       1.0  0.22832  0.37956  0.46116  1.0000
  S   S34       1.0  0.05329  0.45398  0.33685  1.0000
  S   S35       1.0  0.32360  0.41065  0.44660  1.0000
  H   H103      1.0  0.12305  0.39224  0.08043  1.0000
  C   C72       1.0  0.10886  0.39224  0.08981  1.0000
  H   H104      1.0  0.30180  0.40857  0.10829  1.0000
  H   H105      1.0  0.00372  0.42261  0.13351  1.0000
  H   H106      1.0  0.24121  0.38798  0.07202  1.0000
  H   H107      1.0  0.20874  0.40958  0.26355  1.0000
  H   H108      1.0  0.05236  0.34677  0.00375  1.0000
  C   C73       1.0  0.00859  0.49827  0.20774  1.0000
  Fe  Fe19      1.0  0.00447  0.27464  0.31988  1.0000
  H   H109      1.0  0.03089  0.48000  0.34805  1.0000
  H   H110      1.0  0.16846  0.42309  0.00477  1.0000
  H   H111      1.0  0.02280  0.35113  0.46143  1.0000
  H   H112      1.0  0.18105  0.38039  0.46520  1.0000
  H   H113      1.0  0.13186  0.44793  0.03112  1.0000
  H   H114      1.0  0.23741  0.35745  0.48252  1.0000
  H   H115      1.0  0.03318  0.49170  0.19066  1.0000
  H   H116      1.0  0.11954  0.31073  0.26299  1.0000
  H   H117      1.0  0.14661  0.45836  0.05839  1.0000
  H   H118      1.0  0.14323  0.35439  0.47373  1.0000
  H   H119      1.0  0.11561  0.41952  0.01618  1.0000
  C   C74       1.0  0.07283  0.29487  0.33083  1.0000
  C   C75       1.0  0.08548  0.31079  0.46938  1.0000
  C   C76       1.0  0.00859  0.37156  0.47600  1.0000
  H   H120      1.0  0.07797  0.33976  0.32903  1.0000
  S   S36       1.0  0.02623  0.48218  0.44763  1.0000
  C   C77       1.0  0.13344  0.42888  0.06540  1.0000
  H   H121      1.0  0.10671  0.38319  0.10848  1.0000
  H   H122      1.0  0.20746  0.37295  0.01771  1.0000
  H   H123      1.0  0.18940  0.33051  0.47375  1.0000
  H   H124      1.0  0.07027  0.31866  0.23331  1.0000
  H   H125      1.0  0.10145  0.30628  0.34549  1.0000
  C   C78       1.0  0.08608  0.30385  0.34962  1.0000
  H   H126      1.0  0.21316  0.41320  0.03023  1.0000
  C   C79       1.0  0.02885  0.50449  0.19343  1.0000
  C   C80       1.0  0.24302  0.37219  0.47671  1.0000
  N   N3        1.0  0.20926  0.37802  0.47600  1.0000
  C   C81       1.0  0.04722  0.31956  0.47078  1.0000
  C   C82       1.0  0.19720  0.40266  0.30413  1.0000
  C   C83       1.0  0.10796  0.41132  0.09782  1.0000
  C   C84       1.0  0.33241  0.31388  0.23063  1.0000
  C   C85       1.0  0.21704  0.40011  0.03166  1.0000
  H   H127      1.0  0.20080  0.41314  0.46516  1.0000
  H   H128      1.0  0.09209  0.37154  0.45045  1.0000
  H   H129      1.0  0.04250  0.30445  0.46974  1.0000
  H   H130      1.0  0.19171  0.40682  0.43275  1.0000
  C   C86       1.0  0.01930  0.39548  0.11225  1.0000
  H   H131      1.0  0.07568  0.30708  0.45223  1.0000
  H   H132      1.0  0.03500  0.36522  0.48715  1.0000
  H   H133      1.0  0.10033  0.31322  0.45992  1.0000
  H   H134      1.0  0.08392  0.41417  0.06186  1.0000
  H   H135      1.0  0.09302  0.40923  0.10648  1.0000
  N   N4        1.0  0.08335  0.32787  0.48209  1.0000
  C   C87       1.0  0.00658  0.39122  0.16030  1.0000
  C   C88       1.0  0.20635  0.38662  0.01101  1.0000
  C   C89       1.0  0.00789  0.39599  0.03698  1.0000
  C   C90       1.0  0.03397  0.47437  0.41691  1.0000
  H   H136      1.0  0.10530  0.34638  0.45554  1.0000
  H   H137      1.0  0.09215  0.45732  0.10713  1.0000
  C   C91       1.0  0.19616  0.38399  0.45662  1.0000
  H   H138      1.0  0.04956  0.30616  0.04878  1.0000
  H   H139      1.0  0.23588  0.39403  0.45512  1.0000
  C   C92       1.0  0.14394  0.36266  0.49105  1.0000
  H   H140      1.0  0.06857  0.35911  0.46384  1.0000
  H   H141      1.0  0.22598  0.37243  0.44187  1.0000
  S   S37       1.0  0.03682  0.28036  0.31166  1.0000
  H   H142      1.0  0.11769  0.41531  0.11505  1.0000
  H   H143      1.0  0.29650  0.40950  0.01866  1.0000
  N   N5        1.0  0.10294  0.42720  0.32903  1.0000
  C   C93       1.0  0.10155  0.44529  0.31729  1.0000
  C   C94       1.0  0.10012  0.41392  0.30652  1.0000
  C   C95       1.0  0.12244  0.42896  0.34058  1.0000
  C   C96       1.0  0.08767  0.42072  0.35157  1.0000
  C   C97       1.0  0.10610  0.46130  0.33662  1.0000
  C   C98       1.0  0.07920  0.40666  0.29738  1.0000
  C   C99       1.0  0.14001  0.43751  0.32093  1.0000
  C   C100      1.0  0.08664  0.40198  0.36557  1.0000
  H   H144      1.0  0.11114  0.44966  0.29866  1.0000
  H   H145      1.0  0.08675  0.44404  0.31029  1.0000
  H   H146      1.0  0.10536  0.40190  0.31190  1.0000
  H   H147      1.0  0.10916  0.42024  0.28809  1.0000
  H   H148      1.0  0.12423  0.43696  0.35922  1.0000
  H   H149      1.0  0.12372  0.41534  0.34758  1.0000
  H   H150      1.0  0.09011  0.43052  0.36813  1.0000
  H   H151      1.0  0.07305  0.42070  0.34480  1.0000
  H   H152      1.0  0.10551  0.47392  0.32523  1.0000
  H   H153      1.0  0.09517  0.45916  0.35367  1.0000
  H   H154      1.0  0.12079  0.46411  0.34452  1.0000
  H   H155      1.0  0.07932  0.39898  0.27870  1.0000
  H   H156      1.0  0.06987  0.39713  0.31301  1.0000
  H   H157      1.0  0.07267  0.41782  0.29222  1.0000
  H   H158      1.0  0.13957  0.42977  0.30224  1.0000
  H   H159      1.0  0.15341  0.43707  0.33110  1.0000
  H   H160      1.0  0.14134  0.45201  0.31532  1.0000
  H   H161      1.0  0.09573  0.40375  0.38360  1.0000
  H   H162      1.0  0.09134  0.39260  0.35210  1.0000
  H   H163      1.0  0.07142  0.39495  0.37216  1.0000
  H   H164      1.0  0.23344  0.37635  0.24369  1.0000
  H   H165      1.0  0.21418  0.35572  0.27587  1.0000
  H   H166      1.0  0.25876  0.38709  0.30921  1.0000
  H   H167      1.0  0.24098  0.36660  0.30190  1.0000
  N   N6        1.0  0.09123  0.34136  0.27205  1.0000
  C   C101      1.0  0.09381  0.35586  0.29281  1.0000
  C   C102      1.0  0.09670  0.35106  0.24450  1.0000
  C   C103      1.0  0.10469  0.32983  0.27834  1.0000
  C   C104      1.0  0.07040  0.32999  0.27438  1.0000
  C   C105      1.0  0.09236  0.34913  0.32296  1.0000
  C   C106      1.0  0.08490  0.36421  0.23590  1.0000
  C   C107      1.0  0.11114  0.31977  0.25473  1.0000
  C   C108      1.0  0.06395  0.31481  0.25411  1.0000
  H   H168      1.0  0.10811  0.36617  0.28940  1.0000
  H   H169      1.0  0.08284  0.36357  0.29078  1.0000
  H   H170      1.0  0.09565  0.34138  0.22802  1.0000
  H   H171      1.0  0.11221  0.35913  0.24367  1.0000
  H   H172      1.0  0.11837  0.33832  0.28630  1.0000
  H   H173      1.0  0.09830  0.31943  0.29484  1.0000
  H   H174      1.0  0.06703  0.32282  0.29472  1.0000
  H   H175      1.0  0.06019  0.33857  0.27387  1.0000
  H   H176      1.0  0.09451  0.36110  0.33588  1.0000
  H   H177      1.0  0.07527  0.30894  0.01303  1.0000
  Fe  Fe20      1.0  0.02742  0.46689  0.04780  1.0000
  C   C109      1.0  0.02805  0.46346  0.12748  1.0000
  C   C110      1.0  0.04574  0.30566  0.02712  1.0000
  H   H178      1.0  0.12322  0.44811  0.10303  1.0000
  H   H179      1.0  0.21663  0.40918  0.43820  1.0000
  C   C111      1.0  0.04613  0.29644  0.36075  1.0000
  C   C112      1.0  0.07937  0.30879  0.37433  1.0000
  H   H180      1.0  0.08245  0.28191  0.47609  1.0000
  C   C113      1.0  0.24777  0.38091  0.29442  1.0000
  H   H181      1.0  0.21063  0.34317  0.45472  1.0000
  H   H182      1.0  0.01713  0.38245  0.46120  1.0000
  H   H183      1.0  0.18589  0.40990  0.30165  1.0000
  H   H184      1.0  0.01137  0.34669  0.05126  1.0000
  C   C114      1.0  0.09229  0.44315  0.10286  1.0000
  C   C115      1.0  0.20935  0.38131  0.22383  1.0000
  H   H185      1.0  0.21718  0.38227  0.20376  1.0000
  C   C116      1.0  0.20554  0.36503  0.28234  1.0000
  C   C117      1.0  0.11171  0.44368  0.08817  1.0000
  H   H186      1.0  0.23293  0.40268  0.02953  1.0000
  H   H187      1.0  0.09636  0.43462  0.04377  1.0000
  C   C118      1.0  0.22429  0.38583  0.24619  1.0000
  C   C119      1.0  0.05111  0.45618  0.39213  1.0000
  H   H188      1.0  0.05953  0.44644  0.39237  1.0000
  H   H189      1.0  0.04917  0.45697  0.43590  1.0000
  H   H190      1.0  0.13507  0.41694  0.05448  1.0000
  H   H191      1.0  0.18355  0.36007  0.31591  1.0000
  H   H192      1.0  0.10680  0.39837  0.03588  1.0000
  H   H193      1.0  0.32377  0.30344  0.24568  1.0000
  H   H194      1.0  0.25605  0.37373  0.46306  1.0000
  H   H195      1.0  0.03110  0.42098  0.08745  1.0000
  H   H196      1.0  0.23397  0.39977  0.24078  1.0000
  H   H197      1.0  0.19232  0.36065  0.27048  1.0000
  H   H198      1.0  0.22821  0.39332  0.31415  1.0000
  C   C120      1.0  0.04610  0.46265  0.36714  1.0000
  C   C121      1.0  0.04522  0.46210  0.41687  1.0000
  H   H199      1.0  0.04051  0.29100  0.02265  1.0000
  N   N7        1.0  0.21613  0.38473  0.27509  1.0000
  C   C122      1.0  0.23294  0.39209  0.29287  1.0000
  C   C123      1.0  0.19876  0.35985  0.31233  1.0000
  H   H200      1.0  0.19966  0.36721  0.22641  1.0000
  C   C124      1.0  0.20254  0.39667  0.27605  1.0000
  H   H201      1.0  0.19104  0.39110  0.31885  1.0000
  H   H202      1.0  0.03628  0.40911  0.16247  1.0000
  C   C125      1.0  0.08936  0.34286  0.46003  1.0000
  C   C126      1.0  0.14208  0.44593  0.04644  1.0000
  C   C127      1.0  0.08183  0.29366  0.48844  1.0000
  C   C128      1.0  0.05284  0.29126  0.33620  1.0000
  S   S38       1.0  0.01724  0.44577  0.01682  1.0000
  C   C129      1.0  0.01272  0.45567  0.17299  1.0000
  N   N8        1.0  0.11282  0.42620  0.07560  1.0000
  H   H203      1.0  0.24093  0.40633  0.28589  1.0000
  H   H204      1.0  0.04682  0.49938  0.14543  1.0000
  H   H205      1.0  0.18870  0.38984  0.26676  1.0000
  H   H206      1.0  0.01236  0.37924  0.16317  1.0000
  H   H207      1.0  0.02297  0.40380  0.19408  1.0000
  H   H208      1.0  0.07804  0.29044  0.31219  1.0000
  Fe  Fe21      1.0  0.33294  0.38364  0.38445  1.0000
  C   C130      1.0  0.02172  0.40715  0.17222  1.0000
  H   H209      1.0  0.00668  0.40959  0.03334  1.0000
  C   C131      1.0  0.19675  0.34414  0.46406  1.0000
  H   H210      1.0  0.01274  0.49277  0.14683  1.0000
  C   C132      1.0  0.03352  0.41479  0.10729  1.0000
  S   S39       1.0  0.00731  0.46926  0.08274  1.0000
  H   H211      1.0  0.02776  0.38614  0.11939  1.0000
  H   H212      1.0  0.09923  0.34037  0.99543  1.0000
  S   S40       1.0  0.33060  0.36226  0.19906  1.0000
  C   C133      1.0  0.02048  0.35776  0.48041  1.0000
  H   H213      1.0  0.06922  0.32943  0.01785  1.0000
  H   H214      1.0  0.19071  0.38567  0.01391  1.0000
  H   H215      1.0  0.06012  0.51048  0.42343  1.0000
  H   H216      1.0  0.01983  0.48997  0.39178  1.0000
  H   H217      1.0  0.09069  0.40719  0.01647  1.0000
  H   H218      1.0  0.00467  0.35845  0.11628  1.0000
  H   H219      1.0  0.23209  0.36591  0.00037  1.0000
  C   C134      1.0  0.06273  0.32540  0.49208  1.0000
  Fe  Fe22      1.0  0.06970  0.44294  0.74085  1.0000
  S   S41       1.0  0.04006  0.43028  0.75936  1.0000
  S   S42       1.0  0.08388  0.42109  0.73028  1.0000
  Fe  Fe23      1.0  0.06663  0.48141  0.75054  1.0000
  C   C135      1.0  0.22264  0.35906  0.72493  1.0000
  C   C136      1.0  0.03153  0.46313  0.86429  1.0000
  Fe  Fe24      1.0  0.04846  0.45040  0.79213  1.0000
  H   H220      1.0  0.10374  0.31532  0.75874  1.0000
  Fe  Fe25      1.0  0.03194  0.45218  0.73491  1.0000
  S   S43       1.0  0.07871  0.46193  0.77466  1.0000
  S   S44       1.0  0.06113  0.46368  0.71441  1.0000
  S   S45       1.0  0.05171  0.46224  0.56012  1.0000
  C   C137      1.0  0.08996  0.32623  0.53380  1.0000
  Fe  Fe26      1.0  0.04409  0.44377  0.52532  1.0000
  S   S46       1.0  0.04577  0.41449  0.53054  1.0000
  Fe  Fe27      1.0  0.06590  0.48452  0.52879  1.0000
  C   C138      1.0  0.07939  0.32763  0.96410  1.0000
  Fe  Fe28      1.0  0.19306  0.39390  0.63685  1.0000
  S   S47       1.0  0.17485  0.36483  0.63983  1.0000
  S   S48       1.0  0.22556  0.40313  0.63942  1.0000
  Fe  Fe29      1.0  0.15783  0.40845  0.63389  1.0000
  S   S49       1.0  0.13691  0.38047  0.63615  1.0000
  S   S50       1.0  0.14570  0.43261  0.63267  1.0000
  Fe  Fe30      1.0  0.15563  0.37472  0.66884  1.0000
  S   S51       1.0  0.14312  0.35891  0.70801  1.0000
  Fe  Fe31      1.0  0.15805  0.37365  0.60685  1.0000
  S   S52       1.0  0.14874  0.35553  0.57172  1.0000
  S   S53       1.0  0.17523  0.40318  0.66845  1.0000
  S   S54       1.0  0.17762  0.40220  0.60177  1.0000
  Fe  Fe32      1.0  0.30657  0.35807  0.66689  1.0000
  H   H221      1.0  0.07794  0.48767  0.88520  1.0000
  S   S55       1.0  0.27398  0.34737  0.66641  1.0000
  Fe  Fe33      1.0  0.03351  0.46706  0.98543  1.0000
  H   H222      1.0  0.30609  0.40524  0.52149  1.0000
  H   H223      1.0  0.32399  0.36180  0.75394  1.0000
  N   N9        1.0  0.21268  0.39127  0.98152  1.0000
  H   H224      1.0  0.24800  0.38009  0.49478  1.0000
  H   H225      1.0  0.26475  0.35039  0.59534  1.0000
  C   C139      1.0  0.25696  0.40044  0.56471  1.0000
  C   C140      1.0  0.11952  0.44114  0.78684  1.0000
  H   H226      1.0  0.12327  0.44553  0.84678  1.0000
  H   H227      1.0  0.08694  0.31170  0.73240  1.0000
  H   H228      1.0  0.06936  0.30140  0.92818  1.0000
  C   C141      1.0  0.06775  0.31150  0.83169  1.0000
  Fe  Fe34      1.0  0.31705  0.40106  0.91385  1.0000
  S   S56       1.0  0.29006  0.41100  0.91217  1.0000
  S   S57       1.0  0.31499  0.37140  0.92066  1.0000
  Fe  Fe35      1.0  0.15704  0.38767  0.85464  1.0000
  S   S58       1.0  0.15699  0.35824  0.85702  1.0000
  S   S59       1.0  0.15563  0.40318  0.81528  1.0000
  Fe  Fe36      1.0  0.15813  0.39085  0.91648  1.0000
  S   S60       1.0  0.15779  0.36162  0.92286  1.0000
  H   H229      1.0  0.02666  0.46687  0.84497  1.0000
  Fe  Fe37      1.0  0.17980  0.36742  0.88791  1.0000
  S   S61       1.0  0.20693  0.35786  0.89094  1.0000
  Fe  Fe38      1.0  0.13517  0.35600  0.89164  1.0000
  S   S62       1.0  0.03931  0.49333  0.52196  1.0000
  S   S63       1.0  0.18128  0.39706  0.88300  1.0000
  S   S64       1.0  0.13410  0.38500  0.88757  1.0000
  H   H230      1.0  0.14382  0.40531  0.50841  1.0000
  H   H231      1.0  0.03318  0.38858  0.68146  1.0000
  H   H232      1.0  0.04581  0.35149  0.71137  1.0000
  S   S65       1.0  0.10564  0.33642  0.90089  1.0000
  C   C142      1.0  0.21132  0.41036  0.97501  1.0000
  H   H233      1.0  0.02371  0.38091  0.89573  1.0000
  H   H234      1.0  0.18044  0.36378  0.78528  1.0000
  H   H235      1.0  0.17990  0.35689  0.99087  1.0000
  H   H236      1.0  0.10650  0.39345  0.55073  1.0000
  H   H237      1.0  0.08942  0.37041  0.82443  1.0000
  H   H238      1.0  0.06607  0.34711  0.79719  1.0000
  C   C143      1.0  0.02475  0.39731  0.54239  1.0000
  C   C144      1.0  0.07117  0.32381  0.87655  1.0000
  H   H239      1.0  0.04380  0.31197  0.85868  1.0000
  H   H240      1.0  0.06460  0.32664  0.89528  1.0000
  C   C145      1.0  0.26712  0.39602  0.90604  1.0000
  C   C146      1.0  0.25188  0.40337  0.89958  1.0000
  C   C147      1.0  0.23341  0.39188  0.89475  1.0000
  C   C148      1.0  0.22998  0.37289  0.89640  1.0000
  C   C149      1.0  0.24527  0.36557  0.90265  1.0000
  C   C150      1.0  0.26372  0.37705  0.90752  1.0000
  H   H241      1.0  0.25436  0.41803  0.89830  1.0000
  H   H242      1.0  0.22187  0.39773  0.88966  1.0000
  H   H243      1.0  0.24279  0.35090  0.90393  1.0000
  H   H244      1.0  0.27524  0.37116  0.91253  1.0000
  H   H245      1.0  0.08363  0.44436  0.53062  1.0000
  H   H246      1.0  0.03710  0.32910  0.69960  1.0000
  C   C151      1.0  0.09140  0.48707  0.93445  1.0000
  C   C152      1.0  0.09750  0.33296  0.50454  1.0000
  S   S66       1.0  0.05323  0.30007  0.80611  1.0000
  H   H247      1.0  0.28602  0.34506  0.60553  1.0000
  H   H248      1.0  0.03784  0.39997  0.64817  1.0000
  C   C153      1.0  0.14415  0.39125  0.51077  1.0000
  H   H249      1.0  0.00676  0.29794  0.73181  1.0000
  H   H250      1.0  0.10410  0.35169  0.96270  1.0000
  H   H251      1.0  0.28522  0.35385  0.83673  1.0000
  C   C154      1.0  0.23833  0.38731  0.64806  1.0000
  C   C155      1.0  0.23014  0.36850  0.64646  1.0000
  C   C156      1.0  0.24119  0.35635  0.65219  1.0000
  C   C157      1.0  0.26044  0.36293  0.65954  1.0000
  C   C158      1.0  0.26847  0.38172  0.66154  1.0000
  C   C159      1.0  0.25749  0.39386  0.65573  1.0000
  H   H252      1.0  0.21545  0.36332  0.64031  1.0000
  H   H253      1.0  0.23485  0.34181  0.65068  1.0000
  H   H254      1.0  0.28307  0.38695  0.66780  1.0000
  H   H255      1.0  0.26386  0.40840  0.65714  1.0000
  C   C160      1.0  0.14647  0.36561  0.53984  1.0000
  C   C161      1.0  0.14586  0.38374  0.53676  1.0000
  H   H256      1.0  0.10992  0.32923  0.72838  1.0000
  H   H257      1.0  0.29618  0.43564  0.82942  1.0000
  H   H258      1.0  0.14203  0.37147  0.97108  1.0000
  C   C162      1.0  0.14540  0.35510  0.51695  1.0000
  H   H259      1.0  0.14679  0.39197  0.55435  1.0000
  H   H260      1.0  0.08907  0.38896  0.57947  1.0000
  C   C163      1.0  0.21300  0.38988  0.50013  1.0000
  H   H261      1.0  0.14590  0.34108  0.51925  1.0000
  C   C164      1.0  0.14481  0.37138  0.73768  1.0000
  C   C165      1.0  0.15016  0.39046  0.73643  1.0000
  C   C166      1.0  0.15285  0.40008  0.76040  1.0000
  C   C167      1.0  0.15022  0.39068  0.78579  1.0000
  C   C168      1.0  0.14387  0.37159  0.78710  1.0000
  C   C169      1.0  0.14123  0.36197  0.76310  1.0000
  H   H262      1.0  0.15234  0.39789  0.71705  1.0000
  H   H263      1.0  0.15743  0.41486  0.75920  1.0000
  H   H264      1.0  0.14133  0.36419  0.80652  1.0000
  H   H265      1.0  0.13693  0.34720  0.76429  1.0000
  H   H266      1.0  0.09692  0.34662  0.70325  1.0000
  H   H267      1.0  0.06668  0.42650  0.61833  1.0000
  C   C170      1.0  0.02554  0.37919  0.54596  1.0000
  H   H268      1.0  0.09522  0.48081  0.95340  1.0000
  H   H269      1.0  0.03905  0.37597  0.54196  1.0000
  C   C171      1.0  0.10162  0.42547  0.70380  1.0000
  C   C172      1.0  0.10459  0.44052  0.68547  1.0000
  C   C173      1.0  0.11843  0.44298  0.66379  1.0000
  C   C174      1.0  0.12917  0.43036  0.66049  1.0000
  C   C175      1.0  0.12632  0.41555  0.67917  1.0000
  C   C176      1.0  0.11263  0.41313  0.70075  1.0000
  H   H270      1.0  0.09619  0.45016  0.68788  1.0000
  H   H271      1.0  0.12074  0.45459  0.64959  1.0000
  H   H272      1.0  0.13472  0.40594  0.67714  1.0000
  H   H273      1.0  0.11065  0.40169  0.71518  1.0000
  H   H274      1.0  0.04910  0.49520  0.64850  1.0000
  H   H275      1.0  0.04808  0.44907  0.93398  1.0000
  H   H276      1.0  0.21141  0.43050  0.94271  1.0000
  S   S67       1.0  0.15978  0.40914  0.95199  1.0000
  H   H277      1.0  0.07421  0.40617  0.61842  1.0000
  N   N10       1.0  0.20566  0.36522  0.73538  1.0000
  C   C177      1.0  0.18818  0.34871  0.73676  1.0000
  C   C178      1.0  0.20178  0.37962  0.71626  1.0000
  C   C179      1.0  0.18331  0.33886  0.71000  1.0000
  C   C180      1.0  0.19202  0.37626  0.77857  1.0000
  C   C181      1.0  0.21331  0.39971  0.71993  1.0000
  H   H278      1.0  0.17494  0.35251  0.74327  1.0000
  H   H279      1.0  0.22077  0.35496  0.70355  1.0000
  H   H280      1.0  0.20419  0.37653  0.69470  1.0000
  H   H281      1.0  0.18625  0.37936  0.71826  1.0000
  H   H282      1.0  0.19383  0.33123  0.70445  1.0000
  H   H283      1.0  0.16890  0.32868  0.71272  1.0000
  H   H284      1.0  0.18232  0.34837  0.69299  1.0000
  H   H285      1.0  0.19701  0.38361  0.79721  1.0000
  H   H286      1.0  0.18598  0.38528  0.76564  1.0000
  H   H287      1.0  0.25370  0.36631  0.71773  1.0000
  H   H288      1.0  0.21674  0.40687  0.69958  1.0000
  H   H289      1.0  0.22720  0.40176  0.72980  1.0000
  H   H290      1.0  0.20418  0.40701  0.73089  1.0000
  H   H291      1.0  0.31732  0.34684  0.80008  1.0000
  H   H292      1.0  0.00598  0.29257  0.90026  1.0000
  H   H293      1.0  0.02722  0.40631  0.60158  1.0000
  N   N11       1.0  0.29140  0.39892  0.81148  1.0000
  H   H294      1.0  0.04457  0.30263  0.92881  1.0000
  S   S68       1.0  0.01621  0.45022  0.51720  1.0000
  S   S69       1.0  0.32515  0.35171  0.63318  1.0000
  C   C182      1.0  0.33411  0.36330  0.53781  1.0000
  S   S70       1.0  0.06176  0.46517  0.49468  1.0000
  H   H295      1.0  0.28361  0.41475  0.60988  1.0000
  Fe  Fe39      1.0  0.02120  0.29581  0.81356  1.0000
  H   H296      1.0  0.30227  0.37394  0.84715  1.0000
  C   C183      1.0  0.07872  0.42088  0.61191  1.0000
  H   H297      1.0  0.18607  0.38297  0.96009  1.0000
  H   H298      1.0  0.04102  0.40288  0.90139  1.0000
  H   H299      1.0  0.09845  0.48230  0.91693  1.0000
  H   H300      1.0  0.07554  0.48167  0.93394  1.0000
  H   H301      1.0  0.10231  0.32951  0.54748  1.0000
  H   H302      1.0  0.22173  0.40402  0.49389  1.0000
  C   C184      1.0  0.09842  0.50797  0.93584  1.0000
  H   H303      1.0  0.05776  0.43670  0.89156  1.0000
  H   H304      1.0  0.00635  0.41514  0.54543  1.0000
  H   H305      1.0  0.18722  0.37788  0.52709  1.0000
  H   H306      1.0  0.33296  0.31162  0.62910  1.0000
  H   H307      1.0  0.31634  0.43266  0.79265  1.0000
  N   N12       1.0  0.07716  0.34539  0.73797  1.0000
  C   C185      1.0  0.08846  0.33616  0.75613  1.0000
  C   C186      1.0  0.07028  0.35860  0.75504  1.0000
  H   H308      1.0  0.04448  0.51036  0.95631  1.0000
  C   C187      1.0  0.06077  0.33092  0.72670  1.0000
  C   C188      1.0  0.09767  0.32241  0.74270  1.0000
  C   C189      1.0  0.05732  0.34997  0.78035  1.0000
  C   C190      1.0  0.04300  0.33691  0.71749  1.0000
  H   H309      1.0  0.10019  0.34647  0.76576  1.0000
  H   H310      1.0  0.07905  0.32826  0.77318  1.0000
  H   H311      1.0  0.06219  0.36641  0.74323  1.0000
  H   H312      1.0  0.08288  0.36928  0.76215  1.0000
  H   H313      1.0  0.18976  0.33834  0.75235  1.0000
  C   C191      1.0  0.05937  0.31557  0.85579  1.0000
  H   H314      1.0  0.06617  0.32457  0.70921  1.0000
  H   H315      1.0  0.05497  0.31958  0.74232  1.0000
  H   H316      1.0  0.30447  0.40514  0.75467  1.0000
  C   C192      1.0  0.21444  0.41702  0.94484  1.0000
  C   C193      1.0  0.26504  0.38622  0.57957  1.0000
  H   H317      1.0  0.08324  0.31131  0.53586  1.0000
  H   H318      1.0  0.06476  0.50286  0.87228  1.0000
  H   H319      1.0  0.04947  0.35961  0.78777  1.0000
  H   H320      1.0  0.20242  0.35211  0.98177  1.0000
  H   H321      1.0  0.02538  0.40046  0.87396  1.0000
  H   H322      1.0  0.03110  0.33303  0.73340  1.0000
  N   N13       1.0  0.10272  0.42837  0.57050  1.0000
  C   C194      1.0  0.10373  0.42802  0.53990  1.0000
  C   C195      1.0  0.11263  0.41464  0.58128  1.0000
  C   C196      1.0  0.11417  0.44683  0.57968  1.0000
  C   C197      1.0  0.08189  0.42322  0.58068  1.0000
  C   C198      1.0  0.29154  0.39533  0.52110  1.0000
  C   C199      1.0  0.10447  0.39476  0.57288  1.0000
  H   H323      1.0  0.27963  0.42882  0.85781  1.0000
  H   H324      1.0  0.06527  0.29023  0.97691  1.0000
  H   H325      1.0  0.11860  0.42838  0.53231  1.0000
  H   H326      1.0  0.09395  0.41508  0.53299  1.0000
  H   H327      1.0  0.11247  0.41415  0.60385  1.0000
  H   H328      1.0  0.12831  0.41898  0.57488  1.0000
  H   H329      1.0  0.12030  0.44557  0.59983  1.0000
  H   H330      1.0  0.12718  0.45266  0.56589  1.0000
  H   H331      1.0  0.07446  0.43329  0.57324  1.0000
  H   H332      1.0  0.07948  0.33343  0.54127  1.0000
  H   H333      1.0  0.18490  0.35736  0.49490  1.0000
  H   H334      1.0  0.10915  0.45679  0.52581  1.0000
  C   C200      1.0  0.03145  0.40027  0.66871  1.0000
  H   H335      1.0  0.11263  0.38616  0.58302  1.0000
  H   H336      1.0  0.05836  0.31471  0.50873  1.0000
  H   H337      1.0  0.32313  0.30158  0.77760  1.0000
  C   C201      1.0  0.00605  0.45208  0.67435  1.0000
  H   H338      1.0  0.09330  0.29515  0.50333  1.0000
  H   H339      1.0  0.04634  0.33715  0.77603  1.0000
  S   S71       1.0  0.32400  0.35014  0.69988  1.0000
  C   C202      1.0  0.04462  0.32550  0.97297  1.0000
  S   S72       1.0  0.32206  0.38794  0.66618  1.0000
  H   H340      1.0  0.11816  0.45234  0.79975  1.0000
  H   H341      1.0  0.10882  0.43921  0.77085  1.0000
  C   C203      1.0  0.09221  0.34446  0.97749  1.0000
  C   C204      1.0  0.05478  0.29603  0.93830  1.0000
  H   H342      1.0  0.32884  0.34863  0.53653  1.0000
  H   H343      1.0  0.11399  0.47476  0.58697  1.0000
  H   H344      1.0  0.20609  0.37815  0.94322  1.0000
  H   H345      1.0  0.01069  0.28357  0.68873  1.0000
  H   H346      1.0  0.18426  0.34974  0.95773  1.0000
  Fe  Fe40      1.0  0.02468  0.46965  0.55089  1.0000
  C   C205      1.0  0.20904  0.37136  0.76401  1.0000
  H   H347      1.0  0.22167  0.38344  0.76505  1.0000
  H   H348      1.0  0.13403  0.44569  0.77626  1.0000
  H   H349      1.0  0.11462  0.37719  0.82861  1.0000
  C   C206      1.0  0.28829  0.38079  0.54466  1.0000
  H   H350      1.0  0.03540  0.46426  0.61677  1.0000
  H   H351      1.0  0.03629  0.45486  0.66564  1.0000
  C   C207      1.0  0.04339  0.45298  0.91469  1.0000
  C   C208      1.0  0.04890  0.44603  0.89061  1.0000
  S   S73       1.0  0.03674  0.47110  0.76990  1.0000
  H   H352      1.0  0.07377  0.41020  0.57200  1.0000
  C   C209      1.0  0.09138  0.32823  0.87323  1.0000
  C   C210      1.0  0.24269  0.37301  0.72493  1.0000
  C   C211      1.0  0.10333  0.46157  0.58304  1.0000
  C   C212      1.0  0.04278  0.45086  0.86536  1.0000
  C   C213      1.0  0.02235  0.46100  0.62962  1.0000
  C   C214      1.0  0.02289  0.45583  0.65738  1.0000
  H   H353      1.0  0.08900  0.31861  0.96064  1.0000
  H   H354      1.0  0.31477  0.40508  0.57308  1.0000
  C   C215      1.0  0.04175  0.39234  0.95843  1.0000
  H   H355      1.0  0.25526  0.37270  0.57498  1.0000
  C   C216      1.0  0.28448  0.40562  0.83738  1.0000
  H   H356      1.0  0.30098  0.37521  0.54308  1.0000
  H   H357      1.0  0.28035  0.40272  0.52083  1.0000
  C   C217      1.0  0.03151  0.46467  0.91379  1.0000
  S   S74       1.0  0.04843  0.44018  0.83618  1.0000
  H   H358      1.0  0.08744  0.40182  0.78243  1.0000
  H   H359      1.0  0.13022  0.42590  0.81718  1.0000
  H   H360      1.0  0.22360  0.34668  0.73688  1.0000
  H   H361      1.0  0.24679  0.37770  0.74542  1.0000
  H   H362      1.0  0.24375  0.38469  0.71044  1.0000
  H   H363      1.0  0.08038  0.42165  0.78925  1.0000
  H   H364      1.0  0.03181  0.42442  0.62584  1.0000
  C   C218      1.0  0.23332  0.39117  0.97571  1.0000
  H   H365      1.0  0.05976  0.49977  0.91946  1.0000
  H   H366      1.0  0.28869  0.37675  0.61412  1.0000
  H   H367      1.0  0.04323  0.32687  0.95066  1.0000
  H   H368      1.0  0.21259  0.36054  0.77693  1.0000
  C   C219      1.0  0.02619  0.39591  0.89546  1.0000
  C   C220      1.0  0.00719  0.40127  0.54778  1.0000
  H   H369      1.0  0.22959  0.41907  0.93737  1.0000
  C   C221      1.0  0.05205  0.50953  0.65503  1.0000
  H   H370      1.0  0.07207  0.35812  0.68234  1.0000
  H   H371      1.0  0.27565  0.36935  0.53972  1.0000
  C   C222      1.0  0.11792  0.42324  0.80344  1.0000
  N   N14       1.0  0.28582  0.38686  0.57311  1.0000
  S   S75       1.0  0.02323  0.47274  0.94379  1.0000
  C   C223      1.0  0.07939  0.50101  0.87458  1.0000
  C   C224      1.0  0.08312  0.40937  0.79930  1.0000
  H   H372      1.0  0.10560  0.38460  0.79845  1.0000
  H   H373      1.0  0.18481  0.39614  0.50416  1.0000
  H   H374      1.0  0.03192  0.48498  0.68986  1.0000
  H   H375      1.0  0.32652  0.43093  0.82549  1.0000
  H   H376      1.0  0.22183  0.38474  0.51486  1.0000
  H   H377      1.0  0.29772  0.41586  0.56169  1.0000
  H   H378      1.0  0.12099  0.41355  0.78878  1.0000
  C   C225      1.0  0.19120  0.35820  0.97444  1.0000
  C   C226      1.0  0.08292  0.36711  0.69487  1.0000
  H   H379      1.0  0.07707  0.37753  0.70436  1.0000
  H   H380      1.0  0.10421  0.44700  0.86980  1.0000
  H   H381      1.0  0.19944  0.40102  0.53286  1.0000
  C   C227      1.0  0.28444  0.37826  0.81284  1.0000
  H   H382      1.0  0.26659  0.40092  0.78945  1.0000
  H   H383      1.0  0.05722  0.40510  0.82682  1.0000
  C   C228      1.0  0.02166  0.41690  0.61107  1.0000
  C   C229      1.0  0.00498  0.46242  0.61886  1.0000
  H   H384      1.0  0.24521  0.40307  0.57777  1.0000
  S   S76       1.0  0.33383  0.35696  0.85131  1.0000
  C   C230      1.0  0.29957  0.40546  0.57680  1.0000
  H   H385      1.0  0.22212  0.42064  0.98606  1.0000
  H   H386      1.0  0.11060  0.32828  0.50022  1.0000
  N   N15       1.0  0.09897  0.41496  0.81910  1.0000
  C   C231      1.0  0.06332  0.39779  0.81141  1.0000
  C   C232      1.0  0.10258  0.38203  0.82058  1.0000
  H   H387      1.0  0.09044  0.43972  0.82562  1.0000
  H   H388      1.0  0.07636  0.33231  0.94349  1.0000
  C   C233      1.0  0.09978  0.32493  0.84865  1.0000
  H   H389      1.0  0.11535  0.32818  0.84601  1.0000
  H   H390      1.0  0.10375  0.36553  0.72441  1.0000
  C   C234      1.0  0.02583  0.46992  0.88847  1.0000
  H   H391      1.0  0.04051  0.41268  0.67795  1.0000
  H   H392      1.0  0.09148  0.42810  0.62307  1.0000
  H   H393      1.0  0.25407  0.37570  0.98212  1.0000
  H   H394      1.0  0.23358  0.36377  0.96378  1.0000
  C   C235      1.0  0.32831  0.35975  0.79684  1.0000
  C   C236      1.0  0.09405  0.42854  0.83755  1.0000
  C   C237      1.0  0.10085  0.39882  0.83621  1.0000
  H   H395      1.0  0.11386  0.40290  0.84860  1.0000
  H   H396      1.0  0.06391  0.38442  0.82023  1.0000
  C   C238      1.0  0.14740  0.37943  0.98824  1.0000
  H   H397      1.0  0.09497  0.37470  0.68058  1.0000
  H   H398      1.0  0.02127  0.42704  0.59448  1.0000
  C   C239      1.0  0.23820  0.37296  0.98078  1.0000
  H   H399      1.0  0.26224  0.38697  0.60172  1.0000
  H   H400      1.0  0.05294  0.39497  0.79486  1.0000
  H   H401      1.0  0.08837  0.39409  0.85118  1.0000
  C   C240      1.0  0.29829  0.41349  0.60484  1.0000
  C   C241      1.0  0.19492  0.39115  0.51667  1.0000
  H   H402      1.0  0.02362  0.40613  0.97850  1.0000
  H   H403      1.0  0.31923  0.39923  0.82681  1.0000
  C   C242      1.0  0.09818  0.44345  0.52417  1.0000
  H   H404      1.0  0.28295  0.34814  0.57019  1.0000
  H   H405      1.0  0.31803  0.30376  0.74275  1.0000
  H   H406      1.0  0.03469  0.41725  0.94786  1.0000
  C   C243      1.0  0.10965  0.43741  0.85744  1.0000
  H   H407      1.0  0.08075  0.42200  0.85033  1.0000
  C   C244      1.0  0.00885  0.36512  0.55420  1.0000
  H   H408      1.0  0.30700  0.37488  0.59057  1.0000
  H   H409      1.0  0.09293  0.45822  0.60081  1.0000
  H   H410      1.0  0.20756  0.35427  0.50263  1.0000
  H   H411      1.0  0.01387  0.34724  0.49666  1.0000
  H   H412      1.0  0.00848  0.37830  0.49556  1.0000
  H   H413      1.0  0.33098  0.32109  0.96337  1.0000
  C   C245      1.0  0.09101  0.35592  0.71560  1.0000
  C   C246      1.0  0.08797  0.31639  0.82805  1.0000
  H   H414      1.0  0.26971  0.39696  0.84394  1.0000
  H   H415      1.0  0.09564  0.46403  0.56493  1.0000
  C   C247      1.0  0.19915  0.37828  0.96370  1.0000
  C   C248      1.0  0.28045  0.35324  0.59038  1.0000
  H   H416      1.0  0.10343  0.34798  0.50563  1.0000
  H   H417      1.0  0.30838  0.42747  0.60449  1.0000
  H   H418      1.0  0.00532  0.37306  0.98886  1.0000
  H   H419      1.0  0.11274  0.42718  0.87182  1.0000
  H   H420      1.0  0.26753  0.41397  0.56114  1.0000
  H   H421      1.0  0.25090  0.39535  0.54517  1.0000
  H   H422      1.0  0.05442  0.35543  0.96878  1.0000
  H   H423      1.0  0.03127  0.34609  0.98668  1.0000
  H   H424      1.0  0.24378  0.40207  0.98620  1.0000
  H   H425      1.0  0.29169  0.37248  0.79649  1.0000
  C   C249      1.0  0.33523  0.37468  0.51452  1.0000
  C   C250      1.0  0.29125  0.37362  0.59274  1.0000
  H   H426      1.0  0.20441  0.40784  0.93156  1.0000
  H   H427      1.0  0.30292  0.40555  0.62122  1.0000
  H   H428      1.0  0.01216  0.48685  0.73045  1.0000
  H   H429      1.0  0.23743  0.39483  0.95392  1.0000
  H   H430      1.0  0.04976  0.28132  0.93396  1.0000
  H   H431      1.0  0.03659  0.38029  0.97270  1.0000
  H   H432      1.0  0.09454  0.31314  0.80957  1.0000
  C   C251      1.0  0.15580  0.39826  0.98466  1.0000
  C   C252      1.0  0.04609  0.34457  0.98361  1.0000
  C   C253      1.0  0.32991  0.30435  0.75680  1.0000
  H   H433      1.0  0.01027  0.27767  0.94392  1.0000
  H   H434      1.0  0.08438  0.35441  0.98328  1.0000
  H   H435      1.0  0.08542  0.50028  0.85374  1.0000
  H   H436      1.0  0.07079  0.50426  0.68717  1.0000
  C   C254      1.0  0.02691  0.40354  0.95702  1.0000
  H   H437      1.0  0.00966  0.35126  0.55654  1.0000
  H   H438      1.0  0.03032  0.31632  0.98007  1.0000
  N   N16       1.0  0.00857  0.39546  0.94239  1.0000
  S   S77       1.0  0.01138  0.32115  0.81482  1.0000
  H   H439      1.0  0.04565  0.38789  0.93848  1.0000
  H   H440      1.0  0.31832  0.39734  0.79194  1.0000
  C   C255      1.0  0.28754  0.36865  0.83977  1.0000
  C   C256      1.0  0.03149  0.49879  0.69576  1.0000
  H   H441      1.0  0.09767  0.44054  0.50225  1.0000
  H   H442      1.0  0.01664  0.47898  0.88759  1.0000
  H   H443      1.0  0.29120  0.38848  0.50150  1.0000
  C   C257      1.0  0.33219  0.36811  0.77064  1.0000
  H   H444      1.0  0.01067  0.49159  0.65543  1.0000
  S   S78       1.0  0.09458  0.50483  0.53596  1.0000
  H   H445      1.0  0.06734  0.29002  0.49889  1.0000
  H   H446      1.0  0.04306  0.50872  0.76412  1.0000
  C   C258      1.0  0.01235  0.49620  0.71260  1.0000
  H   H447      1.0  0.05527  0.40095  0.96667  1.0000
  H   H448      1.0  0.02776  0.50434  0.61292  1.0000
  H   H449      1.0  0.29396  0.40430  0.85428  1.0000
  H   H450      1.0  0.27693  0.36977  0.85596  1.0000
  C   C259      1.0  0.01010  0.40083  0.67007  1.0000
  C   C260      1.0  0.32380  0.42480  0.80539  1.0000
  H   H451      1.0  0.01733  0.38060  0.62546  1.0000
  H   H452      1.0  0.26865  0.37344  0.80941  1.0000
  C   C261      1.0  0.05519  0.29790  0.96941  1.0000
  S   S79       1.0  0.00550  0.44603  0.70944  1.0000
  H   H453      1.0  0.06663  0.50778  0.96855  1.0000
  H   H454      1.0  0.01010  0.41507  0.67425  1.0000
  H   H455      1.0  0.04330  0.50310  0.71009  1.0000
  C   C262      1.0  0.01691  0.50666  0.65459  1.0000
  C   C263      1.0  0.01093  0.40173  0.91277  1.0000
  H   H456      1.0  0.01083  0.50913  0.72059  1.0000
  H   H457      1.0  0.33474  0.29524  0.58695  1.0000
  H   H458      1.0  0.01512  0.41688  0.91037  1.0000
  H   H459      1.0  0.19693  0.41165  0.98188  1.0000
  H   H460      1.0  0.00995  0.43092  0.95834  1.0000
  N   N17       1.0  0.06077  0.31716  0.97918  1.0000
  H   H461      1.0  0.04054  0.29011  0.97768  1.0000
  H   H462      1.0  0.01362  0.36890  0.93676  1.0000
  H   H463      1.0  0.06094  0.33776  0.50194  1.0000
  H   H464      1.0  0.32737  0.26498  0.66352  1.0000
  H   H465      1.0  0.27052  0.42667  0.82459  1.0000
  C   C264      1.0  0.28268  0.40559  0.78717  1.0000
  C   C265      1.0  0.28278  0.42535  0.83677  1.0000
  H   H466      1.0  0.28625  0.42069  0.78554  1.0000
  H   H467      1.0  0.28427  0.38465  0.75774  1.0000
  H   H468      1.0  0.00483  0.50873  0.61521  1.0000
  C   C266      1.0  0.31316  0.40429  0.80878  1.0000
  H   H469      1.0  0.28137  0.40538  0.74314  1.0000
  C   C267      1.0  0.28868  0.39969  0.75933  1.0000
  S   S80       1.0  0.06140  0.45989  0.98937  1.0000
  H   H470      1.0  0.33655  0.29339  0.75133  1.0000
  H   H471      1.0  0.00487  0.35050  0.64352  1.0000
  H   H472      1.0  0.00476  0.36360  0.67294  1.0000
  H   H473      1.0  0.00332  0.39251  0.68871  1.0000
  S   S81       1.0  0.00345  0.47060  0.58522  1.0000
  H   H474      1.0  0.33292  0.27190  0.69718  1.0000
  Fe  Fe41      1.0  0.07906  0.63684  0.25798  1.0000
  S   S82       1.0  0.04679  0.62686  0.26244  1.0000
  S   S83       1.0  0.09760  0.64425  0.29434  1.0000
  Fe  Fe42      1.0  0.07870  0.63528  0.19572  1.0000
  S   S84       1.0  0.04638  0.62528  0.19578  1.0000
  S   S85       1.0  0.09660  0.64156  0.15632  1.0000
  Fe  Fe43      1.0  0.04710  0.64606  0.22694  1.0000
  Fe  Fe44      1.0  0.04965  0.60706  0.23100  1.0000
  S   S86       1.0  0.03258  0.57753  0.23642  1.0000
  S   S87       1.0  0.07926  0.65759  0.22443  1.0000
  S   S88       1.0  0.08208  0.61567  0.22898  1.0000
  S   S89       1.0  0.07368  0.64062  0.47278  1.0000
  C   C268      1.0  0.07552  0.57519  0.29298  1.0000
  Fe  Fe45      1.0  0.07812  0.61846  0.44672  1.0000
  S   S90       1.0  0.06161  0.60893  0.40932  1.0000
  S   S91       1.0  0.05399  0.61199  0.04983  1.0000
  S   S92       1.0  0.11054  0.62759  0.44708  1.0000
  H   H475      1.0  0.09075  0.55900  0.21246  1.0000
  N   N18       1.0  0.12232  0.72815  0.05293  1.0000
  C   C269      1.0  0.09161  0.56032  0.32723  1.0000
  H   H476      1.0  0.07459  0.53989  0.29961  1.0000
  C   C270      1.0  0.08655  0.56679  0.43316  1.0000
  H   H477      1.0  0.10560  0.56080  0.33645  1.0000
  C   C271      1.0  0.08492  0.63282  0.12688  1.0000
  C   C272      1.0  0.09288  0.64038  0.10135  1.0000
  C   C273      1.0  0.08339  0.63422  0.07762  1.0000
  C   C274      1.0  0.06597  0.62031  0.07926  1.0000
  C   C275      1.0  0.05805  0.61268  0.10479  1.0000
  C   C276      1.0  0.06756  0.61884  0.12854  1.0000
  H   H478      1.0  0.10627  0.65125  0.09994  1.0000
  H   H479      1.0  0.08938  0.64050  0.05812  1.0000
  H   H480      1.0  0.04460  0.60190  0.10618  1.0000
  H   H481      1.0  0.06149  0.61267  0.14806  1.0000
  C   C277      1.0  0.08740  0.63461  0.32630  1.0000
  C   C278      1.0  0.06918  0.62190  0.32874  1.0000
  C   C279      1.0  0.06141  0.61421  0.35434  1.0000
  C   C280      1.0  0.07184  0.61907  0.37768  1.0000
  C   C281      1.0  0.09008  0.63178  0.37532  1.0000
  C   C282      1.0  0.09785  0.63951  0.34967  1.0000
  H   H482      1.0  0.06113  0.61773  0.31094  1.0000
  H   H483      1.0  0.04726  0.60444  0.35605  1.0000
  H   H484      1.0  0.09820  0.63572  0.39321  1.0000
  H   H485      1.0  0.11201  0.64926  0.34794  1.0000
  C   C283      1.0  0.07005  0.53815  0.23694  1.0000
  C   C284      1.0  0.05176  0.53318  0.25018  1.0000
  C   C285      1.0  0.04012  0.54518  0.24940  1.0000
  C   C286      1.0  0.04684  0.56228  0.23566  1.0000
  C   C287      1.0  0.06498  0.56711  0.22197  1.0000
  C   C288      1.0  0.07663  0.55512  0.22281  1.0000
  C   C289      1.0  0.12057  0.53549  0.00376  1.0000
  H   H486      1.0  0.06997  0.57998  0.21053  1.0000
  H   H487      1.0  0.12389  0.61170  0.34107  1.0000
  N   N19       1.0  0.09421  0.57575  0.30627  1.0000
  N   N20       1.0  0.04329  0.66817  0.36604  1.0000
  H   H488      1.0  0.18686  0.74902  0.34522  1.0000
  H   H489      1.0  0.05554  0.67357  0.29583  1.0000
  H   H490      1.0  0.07373  0.68131  0.37225  1.0000
  C   C290      1.0  0.08930  0.54487  0.08631  1.0000
  H   H491      1.0  0.07811  0.66888  0.41380  1.0000
  N   N21       1.0  0.04639  0.67615  0.13719  1.0000
  C   C291      1.0  0.04732  0.69149  0.15615  1.0000
  C   C292      1.0  0.06503  0.67095  0.13941  1.0000
  C   C293      1.0  0.02971  0.66017  0.14719  1.0000
  C   C294      1.0  0.04339  0.68268  0.10880  1.0000
  H   H492      1.0  0.05203  0.68809  0.17653  1.0000
  H   H493      1.0  0.05831  0.70422  0.14848  1.0000
  N   N22       1.0  0.03091  0.51542  0.16678  1.0000
  H   H494      1.0  0.06620  0.66547  0.16038  1.0000
  H   H495      1.0  0.09282  0.53618  0.45371  1.0000
  H   H496      1.0  0.01453  0.63178  0.14216  1.0000
  H   H497      1.0  0.18769  0.74298  0.30999  1.0000
  H   H498      1.0  0.05150  0.69736  0.10526  1.0000
  H   H499      1.0  0.07662  0.58824  0.28129  1.0000
  Fe  Fe46      1.0  0.10605  0.64876  0.47563  1.0000
  H   H500      1.0  0.06868  0.65834  0.36487  1.0000
  C   C295      1.0  0.10073  0.59365  0.32003  1.0000
  C   C296      1.0  0.05738  0.57154  0.31215  1.0000
  H   H501      1.0  0.07239  0.56471  0.27759  1.0000
  C   C297      1.0  0.02633  0.64260  0.13143  1.0000
  H   H502      1.0  0.08215  0.56174  0.34485  1.0000
  H   H503      1.0  0.02363  0.69562  0.25637  1.0000
  S   S93       1.0  0.07402  0.59816  0.48202  1.0000
  H   H504      1.0  0.09054  0.59412  0.33726  1.0000
  H   H505      1.0  0.05746  0.69041  0.33705  1.0000
  H   H506      1.0  0.06943  0.55743  0.04801  1.0000
  H   H507      1.0  0.05901  0.56601  0.41619  1.0000
  H   H508      1.0  0.08937  0.58176  0.42929  1.0000
  C   C298      1.0  0.08426  0.54082  0.31676  1.0000
  S   S94       1.0  0.03815  0.73184  0.11112  1.0000
  H   H509      1.0  0.04525  0.57383  0.30047  1.0000
  H   H510      1.0  0.13259  0.59960  0.31564  1.0000
  C   C299      1.0  0.11421  0.58926  0.26231  1.0000
  C   C300      1.0  0.13355  0.69605  0.45627  1.0000
  H   H511      1.0  0.12246  0.57295  0.29406  1.0000
  H   H512      1.0  0.10161  0.58923  0.25004  1.0000
  C   C301      1.0  0.06857  0.55681  0.41807  1.0000
  H   H513      1.0  0.10355  0.56094  0.27425  1.0000
  C   C302      1.0  0.10889  0.57396  0.28483  1.0000
  H   H514      1.0  0.12220  0.58822  0.34788  1.0000
  H   H515      1.0  0.12024  0.60297  0.27036  1.0000
  H   H516      1.0  0.09952  0.56274  0.42620  1.0000
  H   H517      1.0  0.10045  0.60530  0.30597  1.0000
  C   C303      1.0  0.12104  0.59823  0.33165  1.0000
  H   H518      1.0  0.12546  0.58675  0.24823  1.0000
  H   H519      1.0  0.09743  0.58356  0.03422  1.0000
  H   H520      1.0  0.06262  0.57645  0.03461  1.0000
  N   N23       1.0  0.10156  0.58027  0.07729  1.0000
  H   H521      1.0  0.05988  0.57194  0.07016  1.0000
  C   C304      1.0  0.09000  0.58425  0.05409  1.0000
  C   C305      1.0  0.06938  0.57157  0.05219  1.0000
  H   H522      1.0  0.07480  0.54682  0.08952  1.0000
  C   C306      1.0  0.02838  0.69685  0.16097  1.0000
  H   H523      1.0  0.04499  0.54027  0.18610  1.0000
  H   H524      1.0  0.12705  0.60296  0.03230  1.0000
  C   C307      1.0  0.12072  0.59487  0.07575  1.0000
  C   C308      1.0  0.13481  0.71455  0.45966  1.0000
  H   H525      1.0  0.08774  0.53375  0.07182  1.0000
  H   H526      1.0  0.08877  0.59845  0.05484  1.0000
  H   H527      1.0  0.14882  0.74258  0.44653  1.0000
  C   C309      1.0  0.14784  0.72839  0.44342  1.0000
  H   H528      1.0  0.13010  0.59250  0.09216  1.0000
  C   C310      1.0  0.10533  0.56185  0.07494  1.0000
  H   H529      1.0  0.11865  0.56159  0.08562  1.0000
  H   H530      1.0  0.07669  0.57277  0.10622  1.0000
  H   H531      1.0  0.09368  0.53945  0.10554  1.0000
  H   H532      1.0  0.10849  0.55949  0.05331  1.0000
  C   C311      1.0  0.09140  0.58224  0.10380  1.0000
  H   H533      1.0  0.08902  0.59605  0.10423  1.0000
  C   C312      1.0  0.10197  0.57969  0.12971  1.0000
  H   H534      1.0  0.14775  0.60576  0.05194  1.0000
  H   H535      1.0  0.09189  0.57843  0.14770  1.0000
  H   H536      1.0  0.10705  0.56725  0.12971  1.0000
  H   H537      1.0  0.11435  0.59182  0.13263  1.0000
  H   H538      1.0  0.11855  0.60859  0.07901  1.0000
  H   H539      1.0  0.13496  0.58331  0.04287  1.0000
  C   C313      1.0  0.13309  0.59656  0.04909  1.0000
  H   H540      1.0  0.11672  0.71532  0.33228  1.0000
  H   H541      1.0  0.03031  0.51825  0.42119  1.0000
  S   S95       1.0  0.10419  0.62739  0.01107  1.0000
  C   C314      1.0  0.11477  0.69289  0.05463  1.0000
  H   H542      1.0  0.02097  0.69794  0.14194  1.0000
  H   H543      1.0  0.07480  0.51573  0.46668  1.0000
  H   H544      1.0  0.03934  0.54408  0.15272  1.0000
  H   H545      1.0  0.02140  0.64449  0.11075  1.0000
  H   H546      1.0  0.03145  0.65646  0.16883  1.0000
  H   H547      1.0  0.19701  0.73134  0.33595  1.0000
  H   H548      1.0  0.02792  0.68214  0.10642  1.0000
  H   H549      1.0  0.16722  0.72894  0.02190  1.0000
  H   H550      1.0  0.09655  0.53560  0.31009  1.0000
  C   C315      1.0  0.08366  0.68648  0.13258  1.0000
  H   H551      1.0  0.05924  0.70023  0.39581  1.0000
  H   H552      1.0  0.08679  0.69623  0.14912  1.0000
  H   H553      1.0  0.08299  0.69393  0.11312  1.0000
  H   H554      1.0  0.14471  0.71386  0.01359  1.0000
  H   H555      1.0  0.05031  0.65859  0.08954  1.0000
  C   C316      1.0  0.11694  0.72893  0.08259  1.0000
  H   H556      1.0  0.04784  0.70764  0.36687  1.0000
  C   C317      1.0  0.11047  0.71027  0.04270  1.0000
  H   H557      1.0  0.14027  0.68753  0.33095  1.0000
  H   H558      1.0  0.03910  0.63727  0.13060  1.0000
  S   S96       1.0  0.08525  0.52377  0.23838  1.0000
  C   C318      1.0  0.13057  0.71228  0.33607  1.0000
  C   C319      1.0  0.12986  0.69427  0.32222  1.0000
  C   C320      1.0  0.14979  0.73308  0.29792  1.0000
  H   H559      1.0  0.04527  0.56469  0.45828  1.0000
  H   H560      1.0  0.04234  0.52333  0.46505  1.0000
  H   H561      1.0  0.11825  0.73219  0.29605  1.0000
  C   C321      1.0  0.01671  0.68279  0.26725  1.0000
  H   H562      1.0  0.12575  0.71824  0.47510  1.0000
  H   H563      1.0  0.02400  0.72963  0.47603  1.0000
  H   H564      1.0  0.10096  0.72554  0.08607  1.0000
  C   C322      1.0  0.05483  0.75122  0.12371  1.0000
  H   H565      1.0  0.07865  0.52791  0.40608  1.0000
  H   H566      1.0  0.06291  0.54105  0.47187  1.0000
  C   C323      1.0  0.06269  0.66794  0.37641  1.0000
  H   H567      1.0  0.12958  0.69234  0.04878  1.0000
  H   H568      1.0  0.05491  0.73397  0.20647  1.0000
  C   C324      1.0  0.15989  0.72385  0.42368  1.0000
  H   H569      1.0  0.00522  0.69543  0.29955  1.0000
  H   H570      1.0  0.16433  0.71850  0.35828  1.0000
  H   H571      1.0  0.07557  0.53145  0.33316  1.0000
  H   H572      1.0  0.14192  0.75054  0.09588  1.0000
  H   H573      1.0  0.04570  0.74835  0.24501  1.0000
  C   C325      1.0  0.13103  0.73236  0.28298  1.0000
  S   S97       1.0  0.11824  0.67951  0.47925  1.0000
  H   H574      1.0  0.09478  0.70844  0.04699  1.0000
  H   H575      1.0  0.03941  0.67182  0.06843  1.0000
  H   H576      1.0  0.02608  0.54138  0.25999  1.0000
  H   H577      1.0  0.10471  0.68074  0.04610  1.0000
  H   H578      1.0  0.02367  0.54569  0.45613  1.0000
  H   H579      1.0  0.11252  0.69136  0.07700  1.0000
  H   H580      1.0  0.07400  0.55638  0.39684  1.0000
  C   C326      1.0  0.03345  0.67949  0.38275  1.0000
  H   H581      1.0  0.12734  0.72043  0.26989  1.0000
  C   C327      1.0  0.14367  0.72990  0.05003  1.0000
  C   C328      1.0  0.01445  0.51658  0.12119  1.0000
  C   C329      1.0  0.03811  0.55029  0.46485  1.0000
  C   C330      1.0  0.04665  0.67679  0.33757  1.0000
  S   S98       1.0  0.02999  0.66653  0.22526  1.0000
  C   C331      1.0  0.18520  0.73760  0.33136  1.0000
  H   H582      1.0  0.09608  0.68054  0.13078  1.0000
  H   H583      1.0  0.11546  0.74252  0.34303  1.0000
  H   H584      1.0  0.09255  0.51437  0.44153  1.0000
  H   H585      1.0  0.03694  0.70593  0.40006  1.0000
  C   C332      1.0  0.14522  0.69145  0.43605  1.0000
  Fe  Fe47      1.0  0.00701  0.73268  0.10648  1.0000
  H   H586      1.0  0.03555  0.54995  0.48724  1.0000
  C   C333      1.0  0.04532  0.69940  0.38629  1.0000
  C   C334      1.0  0.11820  0.74355  0.03641  1.0000
  C   C335      1.0  0.06302  0.74853  0.20825  1.0000
  N   N24       1.0  0.05758  0.53789  0.42884  1.0000
  H   H587      1.0  0.08655  0.73333  0.03270  1.0000
  H   H588      1.0  0.05276  0.55715  0.32014  1.0000
  H   H589      1.0  0.04670  0.52027  0.26149  1.0000
  C   C336      1.0  0.14673  0.74439  0.34422  1.0000
  S   S99       1.0  0.01521  0.73260  0.42005  1.0000
  C   C337      1.0  0.06345  0.66233  0.40662  1.0000
  H   H590      1.0  0.02907  0.67340  0.40350  1.0000
  C   C338      1.0  0.04978  0.67270  0.08486  1.0000
  C   C339      1.0  0.08318  0.52291  0.44824  1.0000
  H   H591      1.0  0.07935  0.74072  0.11681  1.0000
  H   H592      1.0  0.02576  0.51387  0.10745  1.0000
  H   H593      1.0  0.06818  0.66399  0.32013  1.0000
  H   H594      1.0  0.00686  0.64613  0.39564  1.0000
  C   C340      1.0  0.16560  0.72290  0.33633  1.0000
  H   H595      1.0  0.16779  0.70171  0.40482  1.0000
  H   H596      1.0  0.03172  0.71040  0.17015  1.0000
  H   H597      1.0  0.03315  0.67935  0.33029  1.0000
  C   C341      1.0  0.08702  0.53533  0.00730  1.0000
  H   H598      1.0  0.15977  0.74700  0.29392  1.0000
  H   H599      1.0  0.13170  0.52853  0.00588  1.0000
  H   H600      1.0  0.08458  0.56481  0.45539  1.0000
  N   N25       1.0  0.14782  0.72825  0.32805  1.0000
  H   H601      1.0  0.14992  0.73827  0.00645  1.0000
  H   H602      1.0  0.15229  0.74360  0.05597  1.0000
  H   H603      1.0  0.11526  0.68453  0.32599  1.0000
  H   H604      1.0  0.13253  0.69620  0.29992  1.0000
  S   S100      1.0  0.17705  0.74103  0.40381  1.0000
  H   H605      1.0  0.15677  0.72378  0.28716  1.0000
  C   C342      1.0  0.15842  0.70534  0.41991  1.0000
  C   C343      1.0  0.05385  0.66586  0.31573  1.0000
  H   H606      1.0  0.06066  0.64732  0.40948  1.0000
  C   C344      1.0  0.05073  0.53751  0.45817  1.0000
  H   H607      1.0  0.12074  0.74603  0.11744  1.0000
  H   H608      1.0  0.16714  0.71093  0.32517  1.0000
  H   H609      1.0  0.12996  0.70928  0.35846  1.0000
  H   H610      1.0  0.14452  0.67727  0.43342  1.0000
  H   H611      1.0  0.05263  0.75028  0.29139  1.0000
  C   C345      1.0  0.10124  0.52601  0.01000  1.0000
  H   H612      1.0  0.12082  0.74213  0.01433  1.0000
  H   H613      1.0  0.14774  0.72003  0.06418  1.0000
  C   C346      1.0  0.01873  0.63992  0.39068  1.0000
  H   H614      1.0  0.05953  0.58080  0.32922  1.0000
  S   S101      1.0  0.01092  0.71835  0.34516  1.0000
  H   H615      1.0  0.12143  0.71843  0.09489  1.0000
  H   H616      1.0  0.03889  0.51212  0.20829  1.0000
  Fe  Fe48      1.0  0.07193  0.61854  0.01035  1.0000
  H   H617      1.0  0.11216  0.71010  0.02022  1.0000
  C   C347      1.0  0.09229  0.55396  0.99808  1.0000
  H   H618      1.0  0.12832  0.75686  0.04108  1.0000
  H   H619      1.0  0.05353  0.66695  0.42034  1.0000
  H   H620      1.0  0.06562  0.65966  0.12633  1.0000
  H   H621      1.0  0.02929  0.52335  0.37273  1.0000
  H   H622      1.0  0.09651  0.75735  0.02661  1.0000
  C   C348      1.0  0.03355  0.53539  0.17140  1.0000
  C   C349      1.0  0.09747  0.74546  0.03962  1.0000
  C   C350      1.0  0.07453  0.75197  0.12413  1.0000
  H   H623      1.0  0.01764  0.55557  0.17630  1.0000
  H   H624      1.0  0.05039  0.54224  0.37083  1.0000
  C   C351      1.0  0.00646  0.68270  0.29189  1.0000
  H   H625      1.0  0.04337  0.65241  0.31289  1.0000
  C   C352      1.0  0.03020  0.64898  0.36449  1.0000
  C   C353      1.0  0.15148  0.72754  0.02124  1.0000
  H   H626      1.0  0.02787  0.64035  0.40830  1.0000
  H   H627      1.0  0.09364  0.74824  0.06068  1.0000
  C   C354      1.0  0.03980  0.53153  0.41246  1.0000
  H   H628      1.0  0.03085  0.54129  0.41325  1.0000
  H   H629      1.0  0.03852  0.63960  0.35728  1.0000
  H   H630      1.0  0.01630  0.53146  0.12200  1.0000
  H   H631      1.0  0.15986  0.75602  0.34035  1.0000
  C   C355      1.0  0.01242  0.73610  0.47509  1.0000
  H   H632      1.0  0.07975  0.51704  0.15381  1.0000
  C   C356      1.0  0.04345  0.52905  0.38195  1.0000
  H   H633      1.0  0.01958  0.67987  0.37368  1.0000
  H   H634      1.0  0.01578  0.66374  0.14665  1.0000
  H   H635      1.0  0.06398  0.68083  0.07570  1.0000
  H   H636      1.0  0.01903  0.64860  0.34923  1.0000
  C   C357      1.0  0.06961  0.52462  0.42532  1.0000
  H   H637      1.0  0.05176  0.52230  0.13242  1.0000
  H   H638      1.0  0.01177  0.62529  0.38726  1.0000
  C   C358      1.0  0.12595  0.74722  0.09583  1.0000
  H   H639      1.0  0.14617  0.74082  0.36642  1.0000
  H   H640      1.0  0.07188  0.53361  0.17213  1.0000
  H   H641      1.0  0.13369  0.74461  0.26890  1.0000
  C   C359      1.0  0.12977  0.75249  0.33887  1.0000
  C   C360      1.0  0.06777  0.51905  0.16700  1.0000
  H   H642      1.0  0.05202  0.51924  0.37846  1.0000
  C   C361      1.0  0.01812  0.66637  0.25685  1.0000
  H   H643      1.0  0.01839  0.68693  0.17548  1.0000
  H   H644      1.0  0.07203  0.52822  0.01234  1.0000
  C   C362      1.0  0.00971  0.64989  0.27151  1.0000
  H   H645      1.0  0.07833  0.74985  0.20205  1.0000
  H   H646      1.0  0.01048  0.63712  0.26337  1.0000
  C   C363      1.0  0.12575  0.55383  0.99446  1.0000
  Fe  Fe49      1.0  0.10600  0.60832  0.48413  1.0000
  H   H647      1.0  0.01488  0.53995  0.20514  1.0000
  H   H648      1.0  0.12171  0.75881  0.08625  1.0000
  S   S102      1.0  0.00744  0.74675  0.28124  1.0000
  H   H649      1.0  0.08130  0.56102  0.99566  1.0000
  C   C364      1.0  0.06114  0.75382  0.23801  1.0000
  H   H650      1.0  0.00415  0.69281  0.21848  1.0000
  H   H651      1.0  0.01115  0.75418  0.02153  1.0000
  H   H652      1.0  0.06883  0.74540  0.24969  1.0000
  C   C365      1.0  0.01592  0.54105  0.18262  1.0000
  H   H653      1.0  0.00677  0.71490  0.20321  1.0000
  H   H654      1.0  0.01827  0.75030  0.22433  1.0000
  C   C366      1.0  0.00454  0.75561  0.00250  1.0000
  C   C367      1.0  0.00510  0.73911  0.44986  1.0000
  H   H655      1.0  0.05715  0.75654  0.19350  1.0000
  C   C368      1.0  0.04884  0.51368  0.15160  1.0000
  H   H656      1.0  0.13098  0.75882  0.31807  1.0000
  S   S103      1.0  0.12305  0.58794  0.49192  1.0000
  H   H657      1.0  0.02371  0.53083  0.76089  1.0000
  Fe  Fe50      1.0  0.01336  0.73289  0.60468  1.0000
  S   S104      1.0  0.01758  0.65095  0.73393  1.0000
  C   C369      1.0  0.02011  0.66387  0.76302  1.0000
  C   C370      1.0  0.02344  0.68394  0.81019  1.0000
  S   S105      1.0  0.02252  0.74467  0.84607  1.0000
  H   H658      1.0  0.02051  0.55396  0.82717  1.0000
  C   C371      1.0  0.01104  0.68647  0.79010  1.0000
  C   C372      1.0  0.02574  0.58284  0.82249  1.0000
  H   H659      1.0  0.02595  0.52700  0.61981  1.0000
  H   H660      1.0  0.02403  0.68287  0.68871  1.0000
  H   H661      1.0  0.02498  0.53221  0.69244  1.0000
  H   H662      1.0  0.01923  0.58354  0.84299  1.0000
  C   C373      1.0  0.02268  0.68898  0.66850  1.0000
  S   S106      1.0  0.03259  0.56745  0.73903  1.0000
  H   H663      1.0  0.02998  0.54931  0.65149  1.0000
  C   C374      1.0  0.02787  0.64970  0.64369  1.0000
  H   H664      1.0  0.01804  0.65755  0.63647  1.0000
  H   H665      1.0  0.01886  0.63718  0.65492  1.0000
  C   C375      1.0  0.01446  0.75475  0.97769  1.0000
  S   S107      1.0  0.01916  0.75566  0.92210  1.0000
  H   H666      1.0  0.02859  0.75244  0.97784  1.0000
  S   S108      1.0  0.02567  0.69603  0.84016  1.0000
  H   H667      1.0  0.01058  0.73892  0.51839  1.0000
  H   H668      1.0  0.02156  0.73295  0.70739  1.0000
  H   H669      1.0  0.02027  0.70250  0.67203  1.0000
  H   H670      1.0  0.02297  0.74272  0.67386  1.0000
  C   C376      1.0  0.03157  0.74213  0.69200  1.0000
  H   H671      1.0  0.00923  0.68090  0.65949  1.0000
  H   H672      1.0  0.03295  0.55661  0.87271  1.0000
  C   C377      1.0  0.03293  0.56568  0.82014  1.0000
  H   H673      1.0  0.03106  0.74874  0.75419  1.0000
  C   C378      1.0  0.01933  0.51224  0.62401  1.0000
  C   C379      1.0  0.03286  0.66169  0.78277  1.0000
  H   H674      1.0  0.02732  0.52835  0.83947  1.0000
  C   C380      1.0  0.00929  0.67636  0.76659  1.0000
  Fe  Fe51      1.0  0.00411  0.74457  0.88389  1.0000
  H   H675      1.0  0.01422  0.58223  0.80782  1.0000
  C   C381      1.0  0.00480  0.74133  0.49914  1.0000
  H   H676      1.0  0.03418  0.68953  0.62774  1.0000
  C   C382      1.0  0.00599  0.75640  0.95281  1.0000
  Fe  Fe52      1.0  0.00686  0.71498  0.84505  1.0000
  S   S109      1.0  0.00492  0.75907  0.60135  1.0000
  H   H677      1.0  0.00535  0.51219  0.66338  1.0000
  H   H678      1.0  0.06326  0.76075  0.92848  1.0000
  H   H679      1.0  0.03484  0.64508  0.62597  1.0000
  H   H680      1.0  0.03510  0.56364  0.79817  1.0000
  H   H681      1.0  0.03560  0.66005  0.68273  1.0000
  H   H682      1.0  0.03722  0.59562  0.81744  1.0000
  H   H683      1.0  0.04312  0.58025  0.86889  1.0000
  C   C383      1.0  0.04305  0.66052  0.66273  1.0000
  H   H684      1.0  0.04136  0.65220  0.78008  1.0000
  C   C384      1.0  0.03885  0.53498  0.75433  1.0000
  H   H685      1.0  0.17166  0.72291  0.49517  1.0000
  H   H686      1.0  0.03771  0.60695  0.59986  1.0000
  C   C385      1.0  0.03436  0.67156  0.80642  1.0000
  H   H687      1.0  0.05177  0.67876  0.71180  1.0000
  Fe  Fe53      1.0  0.03927  0.63475  0.73276  1.0000
  H   H688      1.0  0.15944  0.73885  0.50641  1.0000
  H   H689      1.0  0.14081  0.56080  0.98951  1.0000
  C   C386      1.0  0.03806  0.53084  0.68108  1.0000
  H   H690      1.0  0.08280  0.75982  0.90651  1.0000
  C   C387      1.0  0.11177  0.56325  0.99155  1.0000
  H   H691      1.0  0.09188  0.52966  0.87663  1.0000
  C   C388      1.0  0.05848  0.75043  0.77160  1.0000
  C   C389      1.0  0.04028  0.69169  0.64824  1.0000
  H   H692      1.0  0.05306  0.74268  0.53553  1.0000
  C   C390      1.0  0.12708  0.55517  0.51005  1.0000
  C   C391      1.0  0.04596  0.74924  0.74660  1.0000
  H   H693      1.0  0.05254  0.73794  0.78498  1.0000
  H   H694      1.0  0.06318  0.67859  0.86385  1.0000
  C   C392      1.0  0.07799  0.74914  0.70366  1.0000
  H   H695      1.0  0.08298  0.51267  0.65545  1.0000
  C   C393      1.0  0.11961  0.67047  0.87463  1.0000
  N   N26       1.0  0.03475  0.51182  0.67112  1.0000
  H   H696      1.0  0.05371  0.67250  0.61075  1.0000
  H   H697      1.0  0.04861  0.70636  0.64808  1.0000
  H   H698      1.0  0.04449  0.73557  0.73857  1.0000
  S   S110      1.0  0.11368  0.67871  0.98238  1.0000
  C   C394      1.0  0.08093  0.75347  0.61934  1.0000
  C   C395      1.0  0.11375  0.56485  0.50394  1.0000
  H   H699      1.0  0.04426  0.53055  0.86636  1.0000
  H   H700      1.0  0.06967  0.70727  0.61170  1.0000
  C   C396      1.0  0.06413  0.67841  0.62641  1.0000
  H   H701      1.0  0.08156  0.69397  0.59224  1.0000
  H   H702      1.0  0.07582  0.74832  0.68149  1.0000
  H   H703      1.0  0.06974  0.73622  0.71426  1.0000
  N   N27       1.0  0.05360  0.67977  0.65294  1.0000
  C   C397      1.0  0.04325  0.54681  0.65965  1.0000
  C   C398      1.0  0.09423  0.62735  0.84828  1.0000
  H   H704      1.0  0.07367  0.75105  0.76592  1.0000
  H   H705      1.0  0.04924  0.53370  0.69647  1.0000
  H   H706      1.0  0.09341  0.75005  0.70699  1.0000
  H   H707      1.0  0.07332  0.66892  0.62897  1.0000
  H   H708      1.0  0.05352  0.65241  0.66623  1.0000
  H   H709      1.0  0.11921  0.71707  0.97358  1.0000
  H   H710      1.0  0.04710  0.51864  0.83664  1.0000
  C   C399      1.0  0.04273  0.53057  0.84406  1.0000
  H   H711      1.0  0.11417  0.61227  0.58907  1.0000
  H   H712      1.0  0.09075  0.70141  0.62419  1.0000
  C   C400      1.0  0.07721  0.69647  0.61325  1.0000
  C   C401      1.0  0.16655  0.72850  0.51362  1.0000
  H   H713      1.0  0.14214  0.70506  0.51619  1.0000
  H   H714      1.0  0.10320  0.64993  0.60323  1.0000
  C   C402      1.0  0.08890  0.64054  0.60255  1.0000
  H   H715      1.0  0.06387  0.53028  0.95965  1.0000
  S   S111      1.0  0.04303  0.61553  0.76608  1.0000
  S   S112      1.0  0.11983  0.58634  0.97910  1.0000
  H   H716      1.0  0.07646  0.74268  0.52037  1.0000
  S   S113      1.0  0.05439  0.61627  0.91139  1.0000
  H   H717      1.0  0.07551  0.52818  0.67666  1.0000
  H   H718      1.0  0.12218  0.70295  0.58754  1.0000
  C   C403      1.0  0.07126  0.51400  0.66976  1.0000
  C   C404      1.0  0.11537  0.68744  0.55211  1.0000
  H   H719      1.0  0.09280  0.54944  0.72978  1.0000
  C   C405      1.0  0.06250  0.62349  0.57630  1.0000
  H   H720      1.0  0.17963  0.73509  0.52467  1.0000
  H   H721      1.0  0.06133  0.58611  0.78354  1.0000
  C   C406      1.0  0.14209  0.68992  0.94101  1.0000
  C   C407      1.0  0.04641  0.56707  0.86522  1.0000
  H   H722      1.0  0.05669  0.55993  0.90411  1.0000
  H   H723      1.0  0.12766  0.54147  0.92972  1.0000
  S   S114      1.0  0.07070  0.64988  0.72814  1.0000
  H   H724      1.0  0.08576  0.74756  0.95201  1.0000
  H   H725      1.0  0.08277  0.59885  0.60969  1.0000
  S   S115      1.0  0.07039  0.63995  0.97901  1.0000
  H   H726      1.0  0.11521  0.56571  0.59765  1.0000
  H   H727      1.0  0.07067  0.73671  0.55550  1.0000
  H   H728      1.0  0.12198  0.56231  0.92259  1.0000
  C   C408      1.0  0.09659  0.53886  0.92505  1.0000
  C   C409      1.0  0.05584  0.54814  0.82966  1.0000
  S   S116      1.0  0.10535  0.62901  0.94468  1.0000
  H   H729      1.0  0.14224  0.67581  0.94024  1.0000
  H   H730      1.0  0.06273  0.66867  0.93801  1.0000
  H   H731      1.0  0.09495  0.54066  0.94715  1.0000
  H   H732      1.0  0.09676  0.71041  0.90235  1.0000
  H   H733      1.0  0.08405  0.58249  0.65486  1.0000
  H   H734      1.0  0.05731  0.57559  0.57362  1.0000
  C   C410      1.0  0.15710  0.72827  0.57325  1.0000
  H   H735      1.0  0.11044  0.72709  0.86264  1.0000
  C   C411      1.0  0.06114  0.69131  0.70135  1.0000
  H   H736      1.0  0.05355  0.70211  0.70050  1.0000
  H   H737      1.0  0.07367  0.69624  0.71433  1.0000
  Fe  Fe54      1.0  0.10276  0.60730  0.97829  1.0000
  C   C412      1.0  0.08089  0.63576  0.57739  1.0000
  C   C413      1.0  0.13024  0.70045  0.56929  1.0000
  C   C414      1.0  0.15567  0.72198  0.92584  1.0000
  C   C415      1.0  0.08360  0.63111  0.82659  1.0000
  H   H738      1.0  0.12398  0.71138  0.85271  1.0000
  H   H739      1.0  0.14515  0.61036  0.56579  1.0000
  C   C416      1.0  0.08641  0.54839  0.59503  1.0000
  C   C417      1.0  0.06864  0.68795  0.67294  1.0000
  H   H740      1.0  0.07863  0.67921  0.67570  1.0000
  H   H741      1.0  0.07780  0.70157  0.66529  1.0000
  H   H742      1.0  0.08840  0.54748  0.91495  1.0000
  H   H743      1.0  0.14257  0.74088  0.94471  1.0000
  H   H744      1.0  0.10733  0.56323  0.56401  1.0000
  N   N28       1.0  0.14200  0.71796  0.55475  1.0000
  H   H745      1.0  0.14224  0.74481  0.59674  1.0000
  H   H746      1.0  0.04382  0.66937  0.82195  1.0000
  C   C418      1.0  0.05545  0.62625  0.85744  1.0000
  H   H747      1.0  0.12571  0.60708  0.54359  1.0000
  S   S117      1.0  0.07057  0.59729  0.97945  1.0000
  H   H748      1.0  0.10675  0.59662  0.64189  1.0000
  H   H749      1.0  0.07268  0.55894  0.87638  1.0000
  S   S118      1.0  0.09471  0.63585  0.79386  1.0000
  Fe  Fe55      1.0  0.07196  0.62928  0.69724  1.0000
  H   H750      1.0  0.11474  0.69936  0.90596  1.0000
  H   H751      1.0  0.11105  0.74499  0.56155  1.0000
  C   C419      1.0  0.08065  0.69710  0.83375  1.0000
  C   C420      1.0  0.08282  0.67312  0.90300  1.0000
  C   C421      1.0  0.06882  0.74597  0.53854  1.0000
  H   H752      1.0  0.08590  0.59529  0.79166  1.0000
  S   S119      1.0  0.10535  0.63042  0.51276  1.0000
  H   H753      1.0  0.13998  0.69258  0.57730  1.0000
  C   C422      1.0  0.08546  0.62298  0.87445  1.0000
  C   C423      1.0  0.08609  0.58546  0.61069  1.0000
  H   H754      1.0  0.09869  0.72202  0.55553  1.0000
  H   H755      1.0  0.05498  0.51801  0.63585  1.0000
  H   H756      1.0  0.12539  0.59651  0.60412  1.0000
  C   C424      1.0  0.08758  0.53741  0.51714  1.0000
  C   C425      1.0  0.10265  0.56559  0.58500  1.0000
  H   H757      1.0  0.04315  0.73605  0.68564  1.0000
  C   C426      1.0  0.11698  0.59874  0.58644  1.0000
  C   C427      1.0  0.12085  0.53692  0.51978  1.0000
  H   H758      1.0  0.05143  0.55935  0.66946  1.0000
  H   H759      1.0  0.07102  0.54905  0.83466  1.0000
  H   H760      1.0  0.14242  0.56185  0.50733  1.0000
  H   H761      1.0  0.05296  0.54502  0.64285  1.0000
  C   C428      1.0  0.14245  0.72673  0.94349  1.0000
  H   H762      1.0  0.12690  0.66419  0.85906  1.0000
  Fe  Fe56      1.0  0.07468  0.62918  0.75913  1.0000
  C   C429      1.0  0.04727  0.55275  0.74356  1.0000
  H   H763      1.0  0.10914  0.68413  0.84262  1.0000
  C   C430      1.0  0.08819  0.58742  0.56071  1.0000
  C   C431      1.0  0.11237  0.73082  0.56300  1.0000
  H   H764      1.0  0.08597  0.74227  0.61225  1.0000
  H   H765      1.0  0.09259  0.66357  0.85435  1.0000
  C   C432      1.0  0.11824  0.54768  0.91755  1.0000
  S   S120      1.0  0.17268  0.73881  0.90533  1.0000
  H   H766      1.0  0.16725  0.72009  0.57841  1.0000
  S   S121      1.0  0.08921  0.63954  0.65787  1.0000
  H   H767      1.0  0.12255  0.67960  0.53879  1.0000
  H   H768      1.0  0.09407  0.70833  0.83036  1.0000
  C   C433      1.0  0.05198  0.61640  0.60057  1.0000
  H   H769      1.0  0.07432  0.65973  0.89563  1.0000
  C   C434      1.0  0.09390  0.55598  0.50783  1.0000
  C   C435      1.0  0.10114  0.52781  0.52306  1.0000
  H   H770      1.0  0.11328  0.72758  0.58479  1.0000
  H   H771      1.0  0.08345  0.56340  0.50371  1.0000
  C   C436      1.0  0.07778  0.54542  0.73690  1.0000
  C   C437      1.0  0.06773  0.57491  0.55694  1.0000
  C   C438      1.0  0.12924  0.69479  0.95916  1.0000
  C   C439      1.0  0.09524  0.58395  0.63821  1.0000
  H   H772      1.0  0.06209  0.57969  0.53822  1.0000
  C   C440      1.0  0.12928  0.71319  0.95998  1.0000
  N   N29       1.0  0.09210  0.68607  0.87932  1.0000
  H   H773      1.0  0.07156  0.54971  0.59481  1.0000
  H   H774      1.0  0.05187  0.61548  0.64430  1.0000
  C   C441      1.0  0.15254  0.71265  0.53073  1.0000
  H   H775      1.0  0.07700  0.69178  0.93340  1.0000
  C   C442      1.0  0.10285  0.67611  0.86153  1.0000
  Fe  Fe57      1.0  0.07295  0.61989  0.94793  1.0000
  H   H776      1.0  0.09367  0.61974  0.89085  1.0000
  H   H777      1.0  0.05687  0.68263  0.91184  1.0000
  H   H778      1.0  0.16095  0.70312  0.53735  1.0000
  H   H779      1.0  0.13126  0.72505  0.88030  1.0000
  H   H780      1.0  0.12367  0.72488  0.52477  1.0000
  H   H781      1.0  0.08137  0.68552  0.82107  1.0000
  H   H782      1.0  0.13363  0.58778  0.55584  1.0000
  H   H783      1.0  0.08711  0.60171  0.56002  1.0000
  C   C443      1.0  0.10530  0.70292  0.89058  1.0000
  C   C444      1.0  0.06115  0.75234  0.61929  1.0000
  H   H784      1.0  0.13892  0.74404  0.53994  1.0000
  H   H785      1.0  0.12181  0.54730  0.89558  1.0000
  C   C445      1.0  0.05998  0.62124  0.62578  1.0000
  Fe  Fe58      1.0  0.10285  0.64799  0.97779  1.0000
  H   H786      1.0  0.07689  0.57128  0.78832  1.0000
  S   S122      1.0  0.04010  0.61544  0.69980  1.0000
  H   H787      1.0  0.10110  0.57200  0.63990  1.0000
  S   S123      1.0  0.04472  0.73276  0.60716  1.0000
  Fe  Fe59      1.0  0.07339  0.62139  0.50835  1.0000
  C   C446      1.0  0.12979  0.72979  0.54448  1.0000
  C   C447      1.0  0.13096  0.60087  0.56136  1.0000
  H   H788      1.0  0.08923  0.54373  0.61569  1.0000
  C   C448      1.0  0.06914  0.67973  0.92237  1.0000
  C   C449      1.0  0.06761  0.58153  0.82632  1.0000
  C   C450      1.0  0.06425  0.63077  0.83132  1.0000
  H   H789      1.0  0.13069  0.68238  0.88182  1.0000
  H   H790      1.0  0.16247  0.74055  0.61221  1.0000
  H   H791      1.0  0.08088  0.58086  0.83674  1.0000
  H   H792      1.0  0.08887  0.64171  0.55887  1.0000
  H   H793      1.0  0.10484  0.67724  0.56573  1.0000
  N   N30       1.0  0.09817  0.58378  0.58584  1.0000
  H   H794      1.0  0.07344  0.57163  0.72662  1.0000
  Fe  Fe60      1.0  0.04730  0.59761  0.73278  1.0000
  H   H795      1.0  0.07175  0.57530  0.61180  1.0000
  H   H796      1.0  0.14070  0.72254  0.61313  1.0000
  C   C451      1.0  0.06915  0.52743  0.74673  1.0000
  H   H797      1.0  0.05546  0.54576  0.80749  1.0000
  H   H798      1.0  0.08677  0.53700  0.58173  1.0000
  H   H799      1.0  0.16612  0.74116  0.56298  1.0000
  C   C452      1.0  0.07299  0.58341  0.79565  1.0000
  S   S124      1.0  0.05262  0.61636  0.54500  1.0000
  H   H800      1.0  0.07104  0.70144  0.87407  1.0000
  C   C453      1.0  0.07851  0.63326  0.62681  1.0000
  C   C454      1.0  0.06602  0.62234  0.87907  1.0000
  C   C455      1.0  0.04978  0.52239  0.75607  1.0000
  H   H801      1.0  0.04044  0.62592  0.86090  1.0000
  C   C456      1.0  0.07613  0.69070  0.86390  1.0000
  H   H802      1.0  0.06865  0.70219  0.82618  1.0000
  H   H803      1.0  0.09393  0.67005  0.91609  1.0000
  H   H804      1.0  0.13145  0.52975  0.52452  1.0000
  C   C457      1.0  0.15531  0.70351  0.92445  1.0000
  H   H805      1.0  0.07175  0.58082  0.88776  1.0000
  N   N31       1.0  0.05071  0.56558  0.83540  1.0000
  C   C458      1.0  0.06293  0.56668  0.88424  1.0000
  H   H806      1.0  0.06517  0.59454  0.83254  1.0000
  H   H807      1.0  0.10921  0.62764  0.84474  1.0000
  H   H808      1.0  0.06787  0.56067  0.55364  1.0000
  H   H809      1.0  0.16548  0.69975  0.91078  1.0000
  H   H810      1.0  0.09677  0.58630  0.54205  1.0000
  C   C459      1.0  0.11819  0.71728  0.87009  1.0000
  H   H811      1.0  0.07231  0.53060  0.52013  1.0000
  S   S125      1.0  0.07937  0.60998  0.72778  1.0000
  C   C460      1.0  0.14976  0.73412  0.60022  1.0000
  H   H812      1.0  0.10710  0.69465  0.53948  1.0000
  H   H813      1.0  0.11447  0.65998  0.89138  1.0000
  C   C461      1.0  0.06685  0.55804  0.73523  1.0000
  H   H814      1.0  0.05607  0.63411  0.81493  1.0000
  C   C462      1.0  0.09278  0.51728  0.88863  1.0000
  S   S126      1.0  0.08263  0.51140  0.74567  1.0000
  N   N32       1.0  0.08854  0.51906  0.91851  1.0000
  C   C463      1.0  0.06046  0.51583  0.95405  1.0000
  H   H815      1.0  0.06029  0.52253  0.91135  1.0000
  H   H816      1.0  0.10788  0.51649  0.88506  1.0000
  C   C464      1.0  0.06698  0.51400  0.92449  1.0000
  H   H817      1.0  0.11413  0.51161  0.93017  1.0000
  H   H818      1.0  0.09821  0.51143  0.95756  1.0000
  Fe  Fe61      1.0  0.30508  0.95867  0.19386  1.0000
  S   S127      1.0  0.31691  0.93439  0.19557  1.0000
  S   S128      1.0  0.29764  0.97169  0.23158  1.0000
  Fe  Fe62      1.0  0.30762  0.96157  0.13200  1.0000
  S   S129      1.0  0.32020  0.93791  0.12954  1.0000
  S   S130      1.0  0.30051  0.97606  0.09465  1.0000
  Fe  Fe63      1.0  0.29715  0.92427  0.16152  1.0000
  S   S131      1.0  0.28003  0.89454  0.15707  1.0000
  C   C465      1.0  0.32522  0.95346  0.03511  1.0000
  S   S132      1.0  0.28365  0.94740  0.16227  1.0000
  H   H819      1.0  0.04683  0.77165  0.29573  1.0000
  Fe  Fe64      1.0  0.17154  0.83219  0.15689  1.0000
  S   S133      1.0  0.18569  0.80951  0.15674  1.0000
  S   S134      1.0  0.18816  0.86201  0.16177  1.0000
  Fe  Fe65      1.0  0.13069  0.80502  0.15467  1.0000
  S   S135      1.0  0.14231  0.78068  0.15501  1.0000
  S   S136      1.0  0.09840  0.80173  0.15538  1.0000
  Fe  Fe66      1.0  0.16178  0.79499  0.18688  1.0000
  S   S137      1.0  0.16859  0.78081  0.22481  1.0000
  Fe  Fe67      1.0  0.16463  0.79781  0.12484  1.0000
  S   S138      1.0  0.17366  0.78558  0.08727  1.0000
  S   S139      1.0  0.14862  0.81824  0.18883  1.0000
  S   S140      1.0  0.15204  0.82159  0.12269  1.0000
  Fe  Fe68      1.0  0.16252  0.79954  0.37768  1.0000
  S   S141      1.0  0.19090  0.79278  0.37591  1.0000
  S   S142      1.0  0.14767  0.80601  0.34036  1.0000
  Fe  Fe69      1.0  0.15896  0.79520  0.43977  1.0000
  S   S143      1.0  0.18715  0.78825  0.44200  1.0000
  C   C466      1.0  0.18401  0.84502  0.04962  1.0000
  Fe  Fe70      1.0  0.19831  0.81146  0.41087  1.0000
  S   S144      1.0  0.22782  0.83162  0.41619  1.0000
  Fe  Fe71      1.0  0.17651  0.77047  0.40728  1.0000
  S   S145      1.0  0.17069  0.81953  0.41079  1.0000
  Fe  Fe72      1.0  0.29962  0.98018  0.41146  1.0000
  C   C467      1.0  0.08808  0.76739  0.13364  1.0000
  Fe  Fe73      1.0  0.27714  0.93909  0.41177  1.0000
  S   S146      1.0  0.30459  0.93074  0.41043  1.0000
  S   S147      1.0  0.24732  0.91864  0.41021  1.0000
  Fe  Fe74      1.0  0.31463  0.95199  0.44129  1.0000
  C   C468      1.0  0.08707  0.79414  0.47834  1.0000
  Fe  Fe75      1.0  0.31514  0.95393  0.37918  1.0000
  H   H820      1.0  0.15913  0.83705  0.00155  1.0000
  S   S148      1.0  0.28644  0.95897  0.44485  1.0000
  S   S149      1.0  0.28707  0.96126  0.37870  1.0000
  S   S150      1.0  0.14768  0.77614  0.40674  1.0000
  C   C469      1.0  0.19470  0.86399  0.23924  1.0000
  H   H821      1.0  0.23625  0.85806  0.21085  1.0000
  N   N33       1.0  0.19996  0.83941  0.00411  1.0000
  H   H822      1.0  0.20082  0.87000  0.21889  1.0000
  C   C470      1.0  0.24086  0.88534  0.34003  1.0000
  H   H823      1.0  0.09466  0.80789  0.48510  1.0000
  H   H824      1.0  0.22941  0.81978  0.99703  1.0000
  H   H825      1.0  0.32047  0.90505  0.34103  1.0000
  H   H826      1.0  0.26536  0.87636  0.32687  1.0000
  H   H827      1.0  0.10321  0.76796  0.13361  1.0000
  H   H828      1.0  0.26752  0.89345  0.28273  1.0000
  H   H829      1.0  0.07985  0.78912  0.27939  1.0000
  C   C471      1.0  0.23298  0.85579  0.41392  1.0000
  C   C472      1.0  0.25206  0.86649  0.41699  1.0000
  C   C473      1.0  0.25671  0.88573  0.41594  1.0000
  C   C474      1.0  0.24228  0.89448  0.41189  1.0000
  C   C475      1.0  0.22320  0.88377  0.40881  1.0000
  C   C476      1.0  0.21857  0.86454  0.40968  1.0000
  H   H830      1.0  0.26331  0.85985  0.42031  1.0000
  H   H831      1.0  0.27144  0.89376  0.41839  1.0000
  H   H832      1.0  0.21193  0.89042  0.40563  1.0000
  H   H833      1.0  0.20384  0.85652  0.40727  1.0000
  C   C477      1.0  0.16263  0.78801  0.25669  1.0000
  H   H834      1.0  0.10443  0.80417  0.25098  1.0000
  C   C478      1.0  0.16776  0.78969  0.30524  1.0000
  C   C479      1.0  0.15356  0.79885  0.30839  1.0000
  C   C480      1.0  0.14387  0.80254  0.28560  1.0000
  C   C481      1.0  0.14841  0.79717  0.25980  1.0000
  H   H835      1.0  0.13286  0.80963  0.28792  1.0000
  H   H836      1.0  0.14074  0.79990  0.24243  1.0000
  H   H837      1.0  0.26169  0.94839  0.07398  1.0000
  C   C482      1.0  0.09680  0.80282  0.23167  1.0000
  C   C483      1.0  0.16807  0.78058  0.03339  1.0000
  C   C484      1.0  0.16169  0.78711  0.05711  1.0000
  C   C485      1.0  0.14622  0.79487  0.05612  1.0000
  C   C486      1.0  0.13774  0.79671  0.03123  1.0000
  S   S151      1.0  0.14054  0.79638  0.47743  1.0000
  H   H838      1.0  0.17980  0.77427  0.03407  1.0000
  H   H839      1.0  0.14094  0.79966  0.07439  1.0000
  H   H840      1.0  0.12607  0.80307  0.03046  1.0000
  C   C487      1.0  0.08202  0.78214  0.14290  1.0000
  C   C488      1.0  0.06230  0.78123  0.14280  1.0000
  C   C489      1.0  0.04878  0.76584  0.13338  1.0000
  C   C490      1.0  0.19050  0.83376  0.48226  1.0000
  H   H841      1.0  0.29295  0.96744  0.99736  1.0000
  H   H842      1.0  0.13050  0.76376  0.35281  1.0000
  H   H843      1.0  0.05746  0.79258  0.14975  1.0000
  H   H844      1.0  0.32920  0.00488  0.26127  1.0000
  H   H845      1.0  0.28659  0.93394  0.33133  1.0000
  C   C491      1.0  0.21372  0.87081  0.16006  1.0000
  C   C492      1.0  0.22205  0.88931  0.16510  1.0000
  C   C493      1.0  0.24230  0.89681  0.16427  1.0000
  C   C494      1.0  0.25446  0.88585  0.15839  1.0000
  C   C495      1.0  0.24613  0.86735  0.15334  1.0000
  C   C496      1.0  0.22588  0.85985  0.15416  1.0000
  H   H846      1.0  0.21277  0.89791  0.16966  1.0000
  H   H847      1.0  0.24848  0.91106  0.16823  1.0000
  H   H848      1.0  0.25541  0.85875  0.14879  1.0000
  H   H849      1.0  0.21971  0.84561  0.15022  1.0000
  C   C497      1.0  0.30675  0.96887  0.06295  1.0000
  H   H850      1.0  0.30309  0.89359  0.06965  1.0000
  S   S152      1.0  0.33164  0.94744  0.47729  1.0000
  C   C498      1.0  0.31507  0.95615  0.01230  1.0000
  C   C499      1.0  0.30096  0.96549  0.01476  1.0000
  C   C500      1.0  0.29696  0.97201  0.03997  1.0000
  C   C501      1.0  0.21974  0.85103  0.01062  1.0000
  H   H851      1.0  0.24796  0.86651  0.99329  1.0000
  H   H852      1.0  0.08716  0.76886  0.27586  1.0000
  H   H853      1.0  0.28589  0.97907  0.04185  1.0000
  C   C502      1.0  0.30863  0.96727  0.26138  1.0000
  H   H854      1.0  0.21860  0.86292  0.02228  1.0000
  H   H855      1.0  0.20895  0.80554  0.01725  1.0000
  N   N34       1.0  0.06879  0.77380  0.24416  1.0000
  C   C503      1.0  0.31050  0.96873  0.31043  1.0000
  C   C504      1.0  0.30279  0.97299  0.28612  1.0000
  S   S153      1.0  0.32753  0.97548  0.16368  1.0000
  H   H856      1.0  0.07273  0.79410  0.47081  1.0000
  H   H857      1.0  0.30604  0.97338  0.32927  1.0000
  H   H858      1.0  0.29203  0.98045  0.28656  1.0000
  H   H859      1.0  0.19797  0.87552  0.25323  1.0000
  H   H860      1.0  0.23110  0.90208  0.10898  1.0000
  C   C505      1.0  0.22476  0.85846  0.25285  1.0000
  C   C506      1.0  0.19351  0.84075  0.27519  1.0000
  C   C507      1.0  0.20460  0.83122  0.29433  1.0000
  H   H861      1.0  0.22609  0.86903  0.26827  1.0000
  H   H862      1.0  0.18958  0.85125  0.28760  1.0000
  H   H863      1.0  0.17955  0.83054  0.27150  1.0000
  H   H864      1.0  0.16830  0.84794  0.22077  1.0000
  H   H865      1.0  0.21684  0.84123  0.30328  1.0000
  H   H866      1.0  0.20980  0.82062  0.28436  1.0000
  H   H867      1.0  0.18338  0.77732  0.27715  1.0000
  H   H868      1.0  0.17546  0.78695  0.32256  1.0000
  H   H869      1.0  0.17782  0.85717  0.48216  1.0000
  C   C508      1.0  0.08660  0.78269  0.22640  1.0000
  H   H870      1.0  0.16778  0.87005  0.23002  1.0000
  H   H871      1.0  0.30327  0.91688  0.07013  1.0000
  H   H872      1.0  0.19867  0.83782  0.46238  1.0000
  H   H873      1.0  0.09581  0.79162  0.46065  1.0000
  C   C509      1.0  0.32278  0.95788  0.26098  1.0000
  C   C510      1.0  0.26288  0.88852  0.33666  1.0000
  H   H874      1.0  0.30293  0.91229  0.36049  1.0000
  H   H875      1.0  0.32888  0.95755  0.07786  1.0000
  C   C511      1.0  0.32372  0.95833  0.31023  1.0000
  H   H876      1.0  0.29979  0.90351  0.10137  1.0000
  H   H877      1.0  0.17583  0.83723  0.06778  1.0000
  C   C512      1.0  0.24311  0.90250  0.06702  1.0000
  H   H878      1.0  0.26346  0.93097  0.03803  1.0000
  H   H879      1.0  0.22707  0.84328  0.02413  1.0000
  H   H880      1.0  0.23229  0.84883  0.26143  1.0000
  H   H881      1.0  0.21595  0.88687  0.08721  1.0000
  C   C513      1.0  0.17257  0.85799  0.23663  1.0000
  C   C514      1.0  0.05331  0.78360  0.24147  1.0000
  H   H882      1.0  0.24082  0.93345  0.09271  1.0000
  H   H883      1.0  0.06496  0.76603  0.31516  1.0000
  C   C515      1.0  0.18908  0.83138  0.03032  1.0000
  C   C516      1.0  0.22152  0.86947  0.48208  1.0000
  C   C517      1.0  0.33017  0.95328  0.28538  1.0000
  H   H884      1.0  0.28028  0.92051  0.00214  1.0000
  H   H885      1.0  0.08324  0.78225  0.20462  1.0000
  H   H886      1.0  0.26024  0.94767  0.11010  1.0000
  H   H887      1.0  0.28680  0.93208  0.04804  1.0000
  S   S154      1.0  0.33158  0.95064  0.34067  1.0000
  H   H888      1.0  0.21126  0.86897  0.46569  1.0000
  H   H889      1.0  0.16754  0.77544  0.49036  1.0000
  H   H890      1.0  0.08679  0.81152  0.23133  1.0000
  H   H891      1.0  0.22629  0.83356  0.47902  1.0000
  C   C518      1.0  0.14467  0.79078  0.00729  1.0000
  H   H892      1.0  0.03709  0.79577  0.21385  1.0000
  H   H893      1.0  0.19736  0.82377  0.04237  1.0000
  C   C519      1.0  0.15949  0.78225  0.00868  1.0000
  H   H894      1.0  0.04189  0.77600  0.20118  1.0000
  H   H895      1.0  0.03951  0.77555  0.25197  1.0000
  C   C520      1.0  0.23124  0.89265  0.09248  1.0000
  H   H896      1.0  0.25239  0.87267  0.23240  1.0000
  H   H897      1.0  0.16459  0.85249  0.25610  1.0000
  C   C521      1.0  0.23696  0.86771  0.22731  1.0000
  H   H898      1.0  0.23273  0.87984  0.21976  1.0000
  N   N35       1.0  0.20371  0.84926  0.24861  1.0000
  H   H899      1.0  0.29278  0.92098  0.26734  1.0000
  C   C522      1.0  0.17225  0.78427  0.27949  1.0000
  H   H900      1.0  0.19472  0.82437  0.31170  1.0000
  H   H901      1.0  0.20430  0.84187  0.20627  1.0000
  H   H902      1.0  0.28293  0.93125  0.09537  1.0000
  H   H903      1.0  0.29647  0.89426  0.30509  1.0000
  H   H904      1.0  0.28035  0.93562  0.28374  1.0000
  C   C523      1.0  0.26711  0.90616  0.29293  1.0000
  H   H905      1.0  0.25178  0.90618  0.29279  1.0000
  H   H906      1.0  0.23450  0.87194  0.35106  1.0000
  C   C524      1.0  0.20089  0.83530  0.22706  1.0000
  H   H907      1.0  0.22645  0.82550  0.23708  1.0000
  H   H908      1.0  0.26815  0.88926  0.09657  1.0000
  C   C525      1.0  0.27844  0.92242  0.27404  1.0000
  H   H909      1.0  0.23725  0.89567  0.35286  1.0000
  C   C526      1.0  0.17326  0.84206  0.48235  1.0000
  H   H910      1.0  0.23633  0.88103  0.10011  1.0000
  C   C527      1.0  0.21167  0.82052  0.22985  1.0000
  H   H911      1.0  0.18534  0.82766  0.22631  1.0000
  N   N36       1.0  0.27424  0.90585  0.32134  1.0000
  C   C528      1.0  0.29504  0.90528  0.31859  1.0000
  H   H912      1.0  0.30439  0.91824  0.30881  1.0000
  H   H913      1.0  0.26782  0.88804  0.35775  1.0000
  H   H914      1.0  0.09755  0.77493  0.22851  1.0000
  H   H915      1.0  0.27038  0.92296  0.25535  1.0000
  N   N37       1.0  0.26430  0.91137  0.07068  1.0000
  H   H916      1.0  0.20324  0.80877  0.24309  1.0000
  H   H917      1.0  0.21365  0.81543  0.20941  1.0000
  C   C529      1.0  0.26729  0.92408  0.09386  1.0000
  H   H918      1.0  0.26307  0.91637  0.11373  1.0000
  H   H919      1.0  0.24122  0.89216  0.05126  1.0000
  H   H920      1.0  0.23583  0.91265  0.05922  1.0000
  C   C530      1.0  0.27405  0.89668  0.07693  1.0000
  H   H921      1.0  0.24301  0.92059  0.32499  1.0000
  C   C531      1.0  0.05872  0.76502  0.29478  1.0000
  C   C532      1.0  0.30467  0.90251  0.34526  1.0000
  H   H922      1.0  0.10802  0.80836  0.21521  1.0000
  H   H923      1.0  0.23371  0.88467  0.32043  1.0000
  H   H924      1.0  0.27071  0.88585  0.06184  1.0000
  C   C533      1.0  0.07472  0.77472  0.27330  1.0000
  H   H925      1.0  0.27416  0.91966  0.35904  1.0000
  C   C534      1.0  0.27352  0.92242  0.33679  1.0000
  H   H926      1.0  0.29914  0.88832  0.35393  1.0000
  C   C535      1.0  0.25604  0.93017  0.33250  1.0000
  H   H927      1.0  0.26037  0.94274  0.31900  1.0000
  H   H928      1.0  0.19708  0.85473  0.05710  1.0000
  C   C536      1.0  0.25675  0.93911  0.09219  1.0000
  C   C537      1.0  0.27548  0.91105  0.02029  1.0000
  H   H929      1.0  0.05743  0.79674  0.25191  1.0000
  H   H930      1.0  0.25153  0.93464  0.35226  1.0000
  H   H931      1.0  0.16524  0.83825  0.46360  1.0000
  H   H932      1.0  0.06083  0.79742  0.20069  1.0000
  C   C538      1.0  0.27266  0.92223  0.04479  1.0000
  C   C539      1.0  0.32102  0.95972  0.06040  1.0000
  H   H933      1.0  0.17452  0.85256  0.04034  1.0000
  C   C540      1.0  0.29623  0.90320  0.07962  1.0000
  H   H934      1.0  0.19023  0.86386  0.99971  1.0000
  C   C541      1.0  0.04828  0.78828  0.21249  1.0000
  H   H935      1.0  0.28703  0.90424  0.02353  1.0000
  H   H936      1.0  0.17539  0.82107  0.02619  1.0000
  H   H937      1.0  0.32786  0.95394  0.24197  1.0000
  H   H938      1.0  0.26192  0.90090  0.01529  1.0000
  C   C542      1.0  0.21394  0.81203  0.99686  1.0000
  H   H939      1.0  0.33155  0.00381  0.00646  1.0000
  H   H940      1.0  0.32266  0.00891  0.21976  1.0000
  H   H941      1.0  0.03369  0.76541  0.13352  1.0000
  H   H942      1.0  0.30011  0.99687  0.47702  1.0000
  S   S155      1.0  0.32829  0.97417  0.40984  1.0000
  H   H943      1.0  0.23381  0.86460  0.47459  1.0000
  H   H944      1.0  0.31998  0.00678  0.36391  1.0000
  H   H945      1.0  0.18418  0.81873  0.48165  1.0000
  H   H946      1.0  0.22745  0.88409  0.48654  1.0000
  H   H947      1.0  0.32961  0.99186  0.47412  1.0000
  S   S156      1.0  0.30069  0.00995  0.41549  1.0000
  H   H948      1.0  0.33334  0.00875  0.44738  1.0000
  H   H949      1.0  0.29997  0.00058  0.99395  1.0000
  C   C543      1.0  0.29996  0.00922  0.48808  1.0000
  H   H950      1.0  0.33617  0.94625  0.03329  1.0000
  H   H951      1.0  0.07899  0.76588  0.49083  1.0000
  Fe  Fe76      1.0  0.31115  0.95088  0.69373  1.0000
  S   S157      1.0  0.32388  0.92727  0.69672  1.0000
  S   S158      1.0  0.30164  0.96400  0.73005  1.0000
  Fe  Fe77      1.0  0.31495  0.95295  0.63172  1.0000
  C   C544      1.0  0.05487  0.76700  0.62823  1.0000
  S   S159      1.0  0.30612  0.96616  0.59441  1.0000
  Fe  Fe78      1.0  0.30500  0.91618  0.66231  1.0000
  S   S160      1.0  0.28752  0.88635  0.66071  1.0000
  H   H952      1.0  0.22175  0.79622  0.72381  1.0000
  S   S161      1.0  0.29078  0.93876  0.66156  1.0000
  H   H953      1.0  0.32404  0.00007  0.51992  1.0000
  Fe  Fe79      1.0  0.17769  0.83113  0.65077  1.0000
  S   S162      1.0  0.19010  0.80736  0.65422  1.0000
  S   S163      1.0  0.19617  0.86067  0.64926  1.0000
  Fe  Fe80      1.0  0.13592  0.80576  0.65133  1.0000
  S   S164      1.0  0.14574  0.78044  0.65560  1.0000
  S   S165      1.0  0.10395  0.80353  0.64971  1.0000
  Fe  Fe81      1.0  0.16599  0.79598  0.68570  1.0000
  S   S166      1.0  0.17264  0.78347  0.72513  1.0000
  Fe  Fe82      1.0  0.16842  0.79462  0.62378  1.0000
  S   S167      1.0  0.17578  0.77975  0.58792  1.0000
  S   S168      1.0  0.15460  0.82044  0.68391  1.0000
  S   S169      1.0  0.15765  0.81933  0.61784  1.0000
  Fe  Fe83      1.0  0.15625  0.79620  0.87631  1.0000
  S   S170      1.0  0.18499  0.79014  0.87441  1.0000
  S   S171      1.0  0.14090  0.80222  0.83924  1.0000
  Fe  Fe84      1.0  0.15343  0.79281  0.93850  1.0000
  S   S172      1.0  0.18201  0.78663  0.94061  1.0000
  S   S173      1.0  0.33390  0.96774  0.66387  1.0000
  Fe  Fe85      1.0  0.19232  0.80939  0.90860  1.0000
  S   S174      1.0  0.22165  0.83036  0.91118  1.0000
  Fe  Fe86      1.0  0.17141  0.76813  0.90662  1.0000
  S   S175      1.0  0.16430  0.81677  0.90867  1.0000
  Fe  Fe87      1.0  0.28961  0.97742  0.90806  1.0000
  H   H954      1.0  0.31780  0.93510  0.74924  1.0000
  Fe  Fe88      1.0  0.26556  0.93685  0.91629  1.0000
  S   S176      1.0  0.29220  0.92741  0.91818  1.0000
  S   S177      1.0  0.23566  0.91632  0.91888  1.0000
  Fe  Fe89      1.0  0.30359  0.95117  0.94432  1.0000
  N   N38       1.0  0.20374  0.83835  0.50564  1.0000
  Fe  Fe90      1.0  0.30335  0.94738  0.88298  1.0000
  H   H955      1.0  0.10824  0.82436  0.90956  1.0000
  S   S178      1.0  0.27609  0.95952  0.94507  1.0000
  S   S179      1.0  0.27601  0.95568  0.87934  1.0000
  H   H956      1.0  0.21948  0.83431  0.55441  1.0000
  H   H957      1.0  0.20250  0.84546  0.56808  1.0000
  H   H958      1.0  0.20370  0.80207  0.49408  1.0000
  C   C545      1.0  0.29672  0.89267  0.58495  1.0000
  H   H959      1.0  0.14482  0.80367  0.73949  1.0000
  C   C546      1.0  0.28591  0.90745  0.58683  1.0000
  H   H960      1.0  0.13276  0.81089  0.78436  1.0000
  C   C547      1.0  0.26730  0.91506  0.78174  1.0000
  C   C548      1.0  0.05368  0.77772  0.52031  1.0000
  C   C549      1.0  0.06894  0.78939  0.89481  1.0000
  C   C550      1.0  0.10939  0.81455  0.89399  1.0000
  H   H961      1.0  0.22890  0.80525  0.49825  1.0000
  H   H962      1.0  0.19564  0.86479  0.73772  1.0000
  C   C551      1.0  0.22511  0.85416  0.91368  1.0000
  C   C552      1.0  0.24393  0.86554  0.91619  1.0000
  C   C553      1.0  0.24737  0.88455  0.91802  1.0000
  C   C554      1.0  0.23198  0.89241  0.91739  1.0000
  C   C555      1.0  0.21312  0.88097  0.91533  1.0000
  C   C556      1.0  0.20968  0.86196  0.91336  1.0000
  H   H963      1.0  0.25596  0.85963  0.91660  1.0000
  H   H964      1.0  0.26193  0.89309  0.91986  1.0000
  H   H965      1.0  0.20111  0.88691  0.91487  1.0000
  H   H966      1.0  0.19512  0.85338  0.91144  1.0000
  C   C557      1.0  0.16283  0.78818  0.75648  1.0000
  C   C558      1.0  0.14969  0.79866  0.75792  1.0000
  C   C559      1.0  0.14281  0.80269  0.78337  1.0000
  C   C560      1.0  0.14912  0.79638  0.80752  1.0000
  C   C561      1.0  0.16201  0.78567  0.80600  1.0000
  C   C562      1.0  0.16883  0.78161  0.78061  1.0000
  H   H967      1.0  0.16663  0.78035  0.82435  1.0000
  H   H968      1.0  0.04200  0.76897  0.56257  1.0000
  C   C563      1.0  0.32944  0.95386  0.55850  1.0000
  H   H969      1.0  0.09127  0.79879  0.95510  1.0000
  C   C564      1.0  0.17069  0.77687  0.53347  1.0000
  C   C565      1.0  0.16442  0.78275  0.55781  1.0000
  C   C566      1.0  0.14968  0.79144  0.55752  1.0000
  C   C567      1.0  0.14213  0.79522  0.53281  1.0000
  H   H970      1.0  0.19163  0.83807  0.80734  1.0000
  H   H971      1.0  0.18199  0.77003  0.53355  1.0000
  H   H972      1.0  0.14429  0.79551  0.57625  1.0000
  H   H973      1.0  0.13140  0.80268  0.53262  1.0000
  C   C568      1.0  0.08793  0.78375  0.63752  1.0000
  C   C569      1.0  0.06820  0.78264  0.63718  1.0000
  H   H974      1.0  0.18508  0.81565  0.53014  1.0000
  C   C570      1.0  0.07967  0.79789  0.94036  1.0000
  H   H975      1.0  0.28073  0.91133  0.77623  1.0000
  H   H976      1.0  0.27101  0.92813  0.79214  1.0000
  H   H977      1.0  0.06318  0.79393  0.64405  1.0000
  H   H978      1.0  0.32389  0.00646  0.87417  1.0000
  C   C571      1.0  0.05998  0.79066  0.95611  1.0000
  C   C572      1.0  0.22150  0.86739  0.65299  1.0000
  C   C573      1.0  0.23097  0.88597  0.65554  1.0000
  C   C574      1.0  0.25111  0.89194  0.65836  1.0000
  C   C575      1.0  0.26205  0.87938  0.65834  1.0000
  C   C576      1.0  0.25256  0.86078  0.65585  1.0000
  C   C577      1.0  0.23238  0.85479  0.65324  1.0000
  H   H979      1.0  0.22268  0.89583  0.65542  1.0000
  H   H980      1.0  0.25814  0.90627  0.66039  1.0000
  H   H981      1.0  0.26090  0.85096  0.65577  1.0000
  H   H982      1.0  0.22532  0.84046  0.65117  1.0000
  C   C578      1.0  0.31415  0.96165  0.56203  1.0000
  H   H983      1.0  0.10110  0.81644  0.87613  1.0000
  C   C579      1.0  0.21617  0.80963  0.50542  1.0000
  H   H984      1.0  0.19713  0.85599  0.96879  1.0000
  C   C580      1.0  0.31010  0.96163  0.51321  1.0000
  C   C581      1.0  0.30465  0.96569  0.53930  1.0000
  H   H985      1.0  0.22204  0.86183  0.52425  1.0000
  H   H986      1.0  0.23198  0.87706  0.74626  1.0000
  H   H987      1.0  0.16709  0.83044  0.96923  1.0000
  H   H988      1.0  0.29284  0.97177  0.54195  1.0000
  C   C582      1.0  0.30563  0.95618  0.76276  1.0000
  C   C583      1.0  0.31403  0.94185  0.76645  1.0000
  H   H989      1.0  0.10950  0.76993  0.62818  1.0000
  C   C584      1.0  0.31280  0.94480  0.81533  1.0000
  C   C585      1.0  0.30427  0.95905  0.81179  1.0000
  C   C586      1.0  0.30074  0.96476  0.78552  1.0000
  H   H990      1.0  0.10073  0.77890  0.50471  1.0000
  H   H991      1.0  0.06395  0.78562  0.75341  1.0000
  H   H992      1.0  0.30068  0.96591  0.82918  1.0000
  H   H993      1.0  0.29432  0.97593  0.78284  1.0000
  S   S180      1.0  0.14222  0.77306  0.90621  1.0000
  H   H994      1.0  0.18299  0.85594  0.70883  1.0000
  H   H995      1.0  0.24964  0.93733  0.82458  1.0000
  H   H996      1.0  0.19724  0.81822  0.79574  1.0000
  C   C587      1.0  0.19247  0.83040  0.53161  1.0000
  H   H997      1.0  0.20659  0.82914  0.96558  1.0000
  C   C588      1.0  0.24490  0.88144  0.58441  1.0000
  C   C589      1.0  0.27601  0.91845  0.51250  1.0000
  H   H998      1.0  0.08589  0.81616  0.57226  1.0000
  C   C590      1.0  0.33502  0.94994  0.53229  1.0000
  C   C591      1.0  0.08562  0.77896  0.50054  1.0000
  S   S181      1.0  0.31778  0.97029  0.90914  1.0000
  C   C592      1.0  0.07344  0.76628  0.71449  1.0000
  H   H999      1.0  0.32439  0.92526  0.79525  1.0000
  S   S182      1.0  0.13495  0.79443  0.97591  1.0000
  H   H1000     1.0  0.19816  0.82102  0.57203  1.0000
  H   H1001     1.0  0.09295  0.76805  0.54993  1.0000
  H   H1002     1.0  0.24008  0.86645  0.58210  1.0000
  H   H1003     1.0  0.17334  0.84654  0.74123  1.0000
  H   H1004     1.0  0.22348  0.87287  0.71205  1.0000
  H   H1005     1.0  0.24850  0.87832  0.71818  1.0000
  S   S183      1.0  0.32840  0.92972  0.63066  1.0000
  C   C593      1.0  0.07897  0.76725  0.92387  1.0000
  H   H1006     1.0  0.28381  0.90110  0.87125  1.0000
  N   N39       1.0  0.25780  0.89773  0.82828  1.0000
  C   C594      1.0  0.27757  0.89448  0.82851  1.0000
  C   C595      1.0  0.25302  0.89952  0.79893  1.0000
  C   C596      1.0  0.24358  0.88106  0.84163  1.0000
  C   C597      1.0  0.25837  0.91458  0.84381  1.0000
  C   C598      1.0  0.28478  0.89065  0.85666  1.0000
  C   C599      1.0  0.22217  0.88093  0.84302  1.0000
  C   C600      1.0  0.24304  0.92474  0.83746  1.0000
  H   H1007     1.0  0.27816  0.88288  0.81570  1.0000
  H   H1008     1.0  0.28881  0.90655  0.81947  1.0000
  H   H1009     1.0  0.25232  0.88659  0.78866  1.0000
  H   H1010     1.0  0.24453  0.86851  0.83142  1.0000
  H   H1011     1.0  0.24709  0.87911  0.86301  1.0000
  H   H1012     1.0  0.25725  0.91127  0.86610  1.0000
  H   H1013     1.0  0.27268  0.92489  0.84001  1.0000
  C   C601      1.0  0.10348  0.79465  0.90570  1.0000
  H   H1014     1.0  0.23606  0.84847  0.97262  1.0000
  H   H1015     1.0  0.30033  0.89114  0.85440  1.0000
  H   H1016     1.0  0.21638  0.88235  0.82281  1.0000
  H   H1017     1.0  0.21973  0.89143  0.85662  1.0000
  H   H1018     1.0  0.21347  0.86755  0.85227  1.0000
  H   H1019     1.0  0.23816  0.92955  0.85675  1.0000
  H   H1020     1.0  0.22986  0.91663  0.82825  1.0000
  H   H1021     1.0  0.12481  0.81820  0.88680  1.0000
  H   H1022     1.0  0.23819  0.81759  0.71274  1.0000
  H   H1023     1.0  0.23853  0.90155  0.79673  1.0000
  H   H1024     1.0  0.27706  0.87682  0.86529  1.0000
  H   H1025     1.0  0.09060  0.79480  0.57931  1.0000
  N   N40       1.0  0.07460  0.78041  0.52661  1.0000
  C   C602      1.0  0.07163  0.78130  0.86716  1.0000
  N   N41       1.0  0.08277  0.78729  0.91619  1.0000
  H   H1026     1.0  0.07073  0.76677  0.56679  1.0000
  C   C603      1.0  0.03934  0.77681  0.54457  1.0000
  C   C604      1.0  0.16281  0.78028  0.50886  1.0000
  H   H1027     1.0  0.06604  0.79605  0.57628  1.0000
  C   C605      1.0  0.22054  0.83049  0.50046  1.0000
  C   C606      1.0  0.26338  0.92364  0.56827  1.0000
  H   H1028     1.0  0.20214  0.83714  0.70404  1.0000
  H   H1029     1.0  0.06963  0.80402  0.89093  1.0000
  C   C607      1.0  0.25612  0.92566  0.59746  1.0000
  H   H1030     1.0  0.23576  0.84620  0.70977  1.0000
  H   H1031     1.0  0.21310  0.81175  0.70345  1.0000
  H   H1032     1.0  0.18094  0.82803  0.77738  1.0000
  H   H1033     1.0  0.26488  0.88045  0.55127  1.0000
  H   H1034     1.0  0.30249  0.00063  0.95844  1.0000
  H   H1035     1.0  0.27366  0.93720  0.56240  1.0000
  H   H1036     1.0  0.25090  0.92223  0.55500  1.0000
  C   C608      1.0  0.08108  0.80142  0.56799  1.0000
  C   C609      1.0  0.09430  0.76914  0.62837  1.0000
  H   H1037     1.0  0.08586  0.78812  0.85687  1.0000
  H   H1038     1.0  0.24576  0.84954  0.74228  1.0000
  S   S184      1.0  0.31738  0.93719  0.84774  1.0000
  H   H1039     1.0  0.26844  0.93126  0.61052  1.0000
  H   H1040     1.0  0.24673  0.91282  0.60697  1.0000
  H   H1041     1.0  0.24757  0.93575  0.59705  1.0000
  H   H1042     1.0  0.18640  0.82380  0.73005  1.0000
  H   H1043     1.0  0.09909  0.80391  0.53232  1.0000
  H   H1044     1.0  0.23191  0.88652  0.58637  1.0000
  H   H1045     1.0  0.07755  0.77672  0.69739  1.0000
  H   H1046     1.0  0.07068  0.80223  0.70711  1.0000
  H   H1047     1.0  0.26075  0.91742  0.76234  1.0000
  H   H1048     1.0  0.29183  0.90225  0.53253  1.0000
  H   H1049     1.0  0.24809  0.89244  0.54380  1.0000
  C   C610      1.0  0.20394  0.83312  0.55784  1.0000
  C   C611      1.0  0.25808  0.89066  0.55971  1.0000
  C   C612      1.0  0.09021  0.76259  0.94795  1.0000
  H   H1050     1.0  0.16240  0.85201  0.97210  1.0000
  N   N42       1.0  0.21469  0.83784  0.74353  1.0000
  C   C613      1.0  0.21755  0.81896  0.74627  1.0000
  C   C614      1.0  0.21174  0.84366  0.77192  1.0000
  C   C615      1.0  0.23306  0.85041  0.73054  1.0000
  C   C616      1.0  0.19771  0.83701  0.72594  1.0000
  C   C617      1.0  0.22300  0.81095  0.71982  1.0000
  C   C618      1.0  0.19435  0.83117  0.78875  1.0000
  C   C619      1.0  0.23394  0.87075  0.72691  1.0000
  C   C620      1.0  0.18718  0.85202  0.72917  1.0000
  H   H1051     1.0  0.22892  0.81864  0.76093  1.0000
  H   H1052     1.0  0.20415  0.80887  0.75472  1.0000
  H   H1053     1.0  0.20994  0.85758  0.77207  1.0000
  H   H1054     1.0  0.22485  0.84447  0.78374  1.0000
  H   H1055     1.0  0.03910  0.79069  0.55030  1.0000
  H   H1056     1.0  0.26400  0.90694  0.50638  1.0000
  H   H1057     1.0  0.29830  0.92534  0.54134  1.0000
  H   H1058     1.0  0.06039  0.78340  0.85353  1.0000
  H   H1059     1.0  0.29695  0.92087  0.58846  1.0000
  C   C621      1.0  0.05283  0.78204  0.73787  1.0000
  C   C622      1.0  0.16840  0.84192  0.98289  1.0000
  H   H1060     1.0  0.11354  0.79428  0.92220  1.0000
  H   H1061     1.0  0.28663  0.87880  0.58411  1.0000
  C   C623      1.0  0.21138  0.85869  0.50803  1.0000
  H   H1062     1.0  0.18032  0.83648  0.53533  1.0000
  H   H1063     1.0  0.08079  0.81229  0.93402  1.0000
  C   C624      1.0  0.31773  0.93627  0.79261  1.0000
  H   H1064     1.0  0.30498  0.89266  0.60359  1.0000
  C   C625      1.0  0.08322  0.79921  0.53713  1.0000
  H   H1065     1.0  0.30749  0.89549  0.56763  1.0000
  C   C626      1.0  0.05646  0.79907  0.71834  1.0000
  H   H1066     1.0  0.27095  0.93081  0.51487  1.0000
  H   H1067     1.0  0.17885  0.77336  0.77970  1.0000
  H   H1068     1.0  0.10707  0.78594  0.88981  1.0000
  N   N43       1.0  0.27292  0.90857  0.56382  1.0000
  H   H1069     1.0  0.27801  0.90499  0.60689  1.0000
  H   H1070     1.0  0.05654  0.81110  0.73045  1.0000
  H   H1071     1.0  0.25241  0.88298  0.60361  1.0000
  C   C627      1.0  0.14898  0.79001  0.50833  1.0000
  C   C628      1.0  0.28565  0.91354  0.53814  1.0000
  H   H1072     1.0  0.23304  0.83698  0.51280  1.0000
  C   C629      1.0  0.07728  0.76590  0.54646  1.0000
  H   H1073     1.0  0.19967  0.86472  0.51473  1.0000
  H   H1074     1.0  0.08418  0.77198  0.72990  1.0000
  H   H1075     1.0  0.05213  0.78912  0.50669  1.0000
  H   H1076     1.0  0.21354  0.80552  0.52734  1.0000
  H   H1077     1.0  0.05775  0.77668  0.96504  1.0000
  S   S185      1.0  0.31994  0.94715  0.98136  1.0000
  H   H1078     1.0  0.06972  0.76638  0.86905  1.0000
  H   H1079     1.0  0.05947  0.79957  0.97331  1.0000
  H   H1080     1.0  0.04586  0.77063  0.68414  1.0000
  H   H1081     1.0  0.04478  0.79780  0.70381  1.0000
  H   H1082     1.0  0.03972  0.76630  0.62853  1.0000
  H   H1083     1.0  0.02612  0.76581  0.70809  1.0000
  H   H1084     1.0  0.07719  0.80949  0.52673  1.0000
  S   S186      1.0  0.00398  0.76927  0.78630  1.0000
  H   H1085     1.0  0.05375  0.78270  0.90196  1.0000
  H   H1086     1.0  0.03871  0.78061  0.74895  1.0000
  H   H1087     1.0  0.18665  0.81448  0.98420  1.0000
  C   C630      1.0  0.32520  0.95362  0.50961  1.0000
  H   H1088     1.0  0.04802  0.76551  0.50811  1.0000
  H   H1089     1.0  0.30249  0.96459  0.49598  1.0000
  H   H1090     1.0  0.16275  0.83642  0.49956  1.0000
  S   S187      1.0  0.28876  0.00708  0.90489  1.0000
  C   C631      1.0  0.20125  0.82397  0.98656  1.0000
  H   H1091     1.0  0.21304  0.80081  0.98276  1.0000
  C   C632      1.0  0.23362  0.85909  0.98595  1.0000
  H   H1092     1.0  0.04769  0.79100  0.94335  1.0000
  H   H1093     1.0  0.22851  0.86920  0.97377  1.0000
  C   C633      1.0  0.30400  0.00993  0.97564  1.0000
  H   H1094     1.0  0.27416  0.00962  0.96974  1.0000
  H   H1095     1.0  0.29654  0.00564  0.51002  1.0000
  H   H1096     1.0  0.32524  0.98587  0.96404  1.0000
  H   H1097     1.0  0.10601  0.76662  0.94328  1.0000
  H   H1098     1.0  0.08718  0.76878  0.96699  1.0000
  H   H1099     1.0  0.28698  0.92175  0.49529  1.0000
  C   C634      1.0  0.18968  0.85118  0.98890  1.0000
  H   H1100     1.0  0.02457  0.76931  0.53881  1.0000
  H   H1101     1.0  0.16429  0.77677  0.99079  1.0000
  C   C635      1.0  0.03924  0.76162  0.70210  1.0000
  N   N44       1.0  0.05302  0.76438  0.72500  1.0000
  H   H1102     1.0  0.05795  0.76216  0.78399  1.0000
  H   H1103     1.0  0.52416  0.01802  0.33752  1.0000
  S   S188      1.0  0.41097  0.14394  0.33754  1.0000
  S   S189      1.0  0.42043  0.12014  0.40582  1.0000
  S   S190      1.0  0.42580  0.12606  0.26826  1.0000
  Fe  Fe91      1.0  0.40759  0.11881  0.05003  1.0000
  S   S191      1.0  0.43981  0.12880  0.04393  1.0000
  H   H1104     1.0  0.41847  0.15454  0.49033  1.0000
  Fe  Fe92      1.0  0.40922  0.12103  0.11249  1.0000
  S   S192      1.0  0.44159  0.13118  0.11071  1.0000
  H   H1105     1.0  0.47551  0.07218  0.41632  1.0000
  Fe  Fe93      1.0  0.43754  0.14893  0.07523  1.0000
  S   S193      1.0  0.45407  0.17856  0.06791  1.0000
  Fe  Fe94      1.0  0.44029  0.11004  0.07969  1.0000
  S   S194      1.0  0.45572  0.08820  0.08175  1.0000
  S   S195      1.0  0.40511  0.14017  0.07889  1.0000
  S   S196      1.0  0.40813  0.09857  0.08392  1.0000
  S   S197      1.0  0.39807  0.22855  0.05444  1.0000
  C   C636      1.0  0.62570  0.04146  0.44774  1.0000
  S   S198      1.0  0.48983  0.02947  0.18143  1.0000
  H   H1106     1.0  0.51843  0.05188  0.07265  1.0000
  S   S199      1.0  0.35136  0.06934  0.32906  1.0000
  S   S200      1.0  0.49979  0.05825  0.46258  1.0000
  H   H1107     1.0  0.51827  0.02302  0.29212  1.0000
  C   C637      1.0  0.35849  0.15566  0.26053  1.0000
  H   H1108     1.0  0.34837  0.14300  0.48416  1.0000
  N   N45       1.0  0.34347  0.03403  0.25554  1.0000
  C   C638      1.0  0.53240  0.05260  0.08215  1.0000
  H   H1109     1.0  0.35078  0.21936  0.30497  1.0000
  H   H1110     1.0  0.63781  0.07607  0.46856  1.0000
  H   H1111     1.0  0.39301  0.01634  0.19682  1.0000
  N   N46       1.0  0.54714  0.03042  0.30756  1.0000
  C   C639      1.0  0.39511  0.17392  0.01308  1.0000
  H   H1112     1.0  0.47569  0.20913  0.14441  1.0000
  C   C640      1.0  0.38735  0.19304  0.48284  1.0000
  H   H1113     1.0  0.39099  0.19571  0.20292  1.0000
  H   H1114     1.0  0.47265  0.10315  0.39731  1.0000
  Fe  Fe95      1.0  0.64374  0.05967  0.25850  1.0000
  S   S201      1.0  0.61338  0.04369  0.24796  1.0000
  H   H1115     1.0  0.42754  0.16382  0.45733  1.0000
  S   S202      1.0  0.53459  0.06103  0.21991  1.0000
  C   C641      1.0  0.59315  0.05024  0.23642  1.0000
  C   C642      1.0  0.59086  0.06775  0.23930  1.0000
  C   C643      1.0  0.57308  0.07119  0.23333  1.0000
  C   C644      1.0  0.55763  0.05726  0.22417  1.0000
  C   C645      1.0  0.56053  0.04020  0.21976  1.0000
  C   C646      1.0  0.57801  0.03666  0.22617  1.0000
  H   H1116     1.0  0.60243  0.07836  0.24715  1.0000
  H   H1117     1.0  0.57112  0.08454  0.23651  1.0000
  H   H1118     1.0  0.54930  0.02964  0.21147  1.0000
  H   H1119     1.0  0.41563  0.22447  0.36941  1.0000
  H   H1120     1.0  0.45654  0.05558  0.45397  1.0000
  H   H1121     1.0  0.39765  0.16048  0.00894  1.0000
  C   C647      1.0  0.53960  0.02613  0.33670  1.0000
  C   C648      1.0  0.34314  0.01489  0.26498  1.0000
  C   C649      1.0  0.35709  0.14033  0.44295  1.0000
  S   S203      1.0  0.66167  0.03444  0.49073  1.0000
  C   C650      1.0  0.41118  0.16678  0.26728  1.0000
  C   C651      1.0  0.48363  0.02930  0.34506  1.0000
  H   H1122     1.0  0.34435  0.01405  0.28745  1.0000
  H   H1123     1.0  0.45765  0.04790  0.11279  1.0000
  H   H1124     1.0  0.43316  0.24625  0.43574  1.0000
  Fe  Fe96      1.0  0.40588  0.12273  0.30587  1.0000
  C   C652      1.0  0.53190  0.03428  0.28988  1.0000
  H   H1125     1.0  0.35897  0.17454  0.48201  1.0000
  H   H1126     1.0  0.42844  0.24893  0.11794  1.0000
  N   N47       1.0  0.44587  0.07230  0.42572  1.0000
  N   N48       1.0  0.38880  0.17191  0.22964  1.0000
  H   H1127     1.0  0.40281  0.01651  0.09593  1.0000
  H   H1128     1.0  0.47270  0.09185  0.21426  1.0000
  C   C653      1.0  0.39614  0.11461  0.23314  1.0000
  C   C654      1.0  0.41437  0.21558  0.05954  1.0000
  C   C655      1.0  0.40851  0.19953  0.07601  1.0000
  C   C656      1.0  0.42087  0.18837  0.07918  1.0000
  C   C657      1.0  0.43892  0.19294  0.06530  1.0000
  C   C658      1.0  0.44493  0.20916  0.04918  1.0000
  C   C659      1.0  0.43267  0.22048  0.04630  1.0000
  H   H1129     1.0  0.39440  0.19576  0.08642  1.0000
  H   H1130     1.0  0.41650  0.17637  0.09266  1.0000
  H   H1131     1.0  0.45892  0.21276  0.03845  1.0000
  H   H1132     1.0  0.43714  0.23268  0.03318  1.0000
  C   C660      1.0  0.47224  0.08802  0.05487  1.0000
  C   C661      1.0  0.48073  0.10374  0.03849  1.0000
  C   C662      1.0  0.38023  0.18617  0.21726  1.0000
  C   C663      1.0  0.37831  0.10076  0.46506  1.0000
  C   C664      1.0  0.48982  0.07113  0.02823  1.0000
  C   C665      1.0  0.47695  0.07178  0.04987  1.0000
  H   H1133     1.0  0.47736  0.11638  0.04250  1.0000
  S   S204      1.0  0.48213  0.03085  0.24629  1.0000
  H   H1134     1.0  0.49309  0.05843  0.02429  1.0000
  H   H1135     1.0  0.47044  0.05957  0.06245  1.0000
  C   C666      1.0  0.41593  0.12234  0.23597  1.0000
  C   C667      1.0  0.53764  0.03455  0.07779  1.0000
  C   C668      1.0  0.35570  0.04729  0.45576  1.0000
  H   H1136     1.0  0.36406  0.12895  0.48067  1.0000
  C   C669      1.0  0.42064  0.12539  0.18657  1.0000
  C   C670      1.0  0.42817  0.12759  0.21259  1.0000
  H   H1137     1.0  0.36773  0.17966  0.20485  1.0000
  H   H1138     1.0  0.43016  0.12971  0.16875  1.0000
  H   H1139     1.0  0.44350  0.13363  0.21464  1.0000
  C   C671      1.0  0.40793  0.11356  0.43753  1.0000
  C   C672      1.0  0.41808  0.11739  0.46139  1.0000
  C   C673      1.0  0.41948  0.07951  0.01807  1.0000
  H   H1140     1.0  0.40794  0.18131  0.02412  1.0000
  C   C674      1.0  0.47727  0.22721  0.10751  1.0000
  C   C675      1.0  0.38805  0.10493  0.43945  1.0000
  H   H1141     1.0  0.43349  0.12390  0.46011  1.0000
  S   S205      1.0  0.40166  0.09948  0.33669  1.0000
  H   H1142     1.0  0.45911  0.19929  0.11863  1.0000
  H   H1143     1.0  0.38015  0.10156  0.42122  1.0000
  C   C676      1.0  0.38165  0.22410  0.30426  1.0000
  C   C677      1.0  0.36253  0.21343  0.30873  1.0000
  C   C678      1.0  0.35829  0.19523  0.31850  1.0000
  C   C679      1.0  0.37303  0.18706  0.32373  1.0000
  C   C680      1.0  0.39238  0.19757  0.31914  1.0000
  C   C681      1.0  0.39670  0.21611  0.30939  1.0000
  H   H1144     1.0  0.57968  0.03774  0.33954  1.0000
  C   C682      1.0  0.41339  0.25848  0.41308  1.0000
  H   H1145     1.0  0.40394  0.19150  0.32339  1.0000
  H   H1146     1.0  0.41157  0.22419  0.30609  1.0000
  H   H1147     1.0  0.36435  0.14955  0.22011  1.0000
  C   C683      1.0  0.39617  0.15680  0.46201  1.0000
  H   H1148     1.0  0.52481  0.03321  0.13441  1.0000
  C   C684      1.0  0.56521  0.04621  0.30450  1.0000
  H   H1149     1.0  0.37473  0.18288  0.04032  1.0000
  H   H1150     1.0  0.48799  0.23466  0.16887  1.0000
  N   N49       1.0  0.40631  0.24456  0.39204  1.0000
  H   H1151     1.0  0.36287  0.09438  0.46637  1.0000
  H   H1152     1.0  0.41223  0.19232  0.24634  1.0000
  C   C685      1.0  0.61973  0.04363  0.39941  1.0000
  C   C686      1.0  0.54127  0.04248  0.35510  1.0000
  C   C687      1.0  0.44483  0.22858  0.12404  1.0000
  H   H1153     1.0  0.58794  0.03517  0.43285  1.0000
  H   H1154     1.0  0.64484  0.07257  0.42000  1.0000
  H   H1155     1.0  0.58800  0.06830  0.02876  1.0000
  H   H1156     1.0  0.40653  0.07888  0.18465  1.0000
  C   C688      1.0  0.40091  0.17956  0.25313  1.0000
  H   H1157     1.0  0.60701  0.03179  0.39623  1.0000
  H   H1158     1.0  0.42828  0.02242  0.08454  1.0000
  S   S206      1.0  0.55272  0.06915  0.48998  1.0000
  H   H1159     1.0  0.42924  0.08566  0.40060  1.0000
  C   C689      1.0  0.58640  0.06137  0.41830  1.0000
  C   C690      1.0  0.36486  0.06734  0.25857  1.0000
  H   H1160     1.0  0.37814  0.07516  0.26828  1.0000
  C   C691      1.0  0.36203  0.04672  0.26468  1.0000
  H   H1161     1.0  0.34458  0.12813  0.44102  1.0000
  H   H1162     1.0  0.62215  0.04821  0.35540  1.0000
  H   H1163     1.0  0.52425  0.02319  0.08212  1.0000
  H   H1164     1.0  0.38585  0.20856  0.24574  1.0000
  H   H1165     1.0  0.48417  0.20143  0.11393  1.0000
  H   H1166     1.0  0.59514  0.05248  0.45625  1.0000
  H   H1167     1.0  0.38193  0.20394  0.00744  1.0000
  H   H1168     1.0  0.37353  0.01447  0.25757  1.0000
  C   C692      1.0  0.43098  0.23944  0.13403  1.0000
  H   H1169     1.0  0.48042  0.02546  0.30237  1.0000
  H   H1170     1.0  0.47463  0.22420  0.08578  1.0000
  C   C693      1.0  0.42045  0.25148  0.43944  1.0000
  H   H1171     1.0  0.43242  0.05492  0.46112  1.0000
  H   H1172     1.0  0.59320  0.07618  0.42012  1.0000
  H   H1173     1.0  0.44803  0.25608  0.39053  1.0000
  H   H1174     1.0  0.54069  0.03475  0.05548  1.0000
  H   H1175     1.0  0.53462  0.02200  0.16004  1.0000
  N   N50       1.0  0.55431  0.03123  0.09310  1.0000
  H   H1176     1.0  0.54745  0.01729  0.34705  1.0000
  C   C694      1.0  0.48247  0.01926  0.32155  1.0000
  C   C695      1.0  0.37321  0.15460  0.23773  1.0000
  Fe  Fe97      1.0  0.37910  0.14022  0.33685  1.0000
  H   H1177     1.0  0.38097  0.16304  0.05207  1.0000
  C   C696      1.0  0.56361  0.01957  0.07614  1.0000
  C   C697      1.0  0.44109  0.24609  0.37556  1.0000
  H   H1178     1.0  0.48249  0.04315  0.34356  1.0000
  H   H1179     1.0  0.37325  0.10654  0.20513  1.0000
  H   H1180     1.0  0.54338  0.06433  0.07184  1.0000
  H   H1181     1.0  0.63246  0.03796  0.39877  1.0000
  H   H1182     1.0  0.41521  0.17912  0.20414  1.0000
  C   C698      1.0  0.48645  0.02171  0.37038  1.0000
  N   N51       1.0  0.33752  0.01966  0.48728  1.0000
  C   C699      1.0  0.49396  0.10317  0.01716  1.0000
  S   S207      1.0  0.39059  0.11524  0.15158  1.0000
  H   H1183     1.0  0.35722  0.03570  0.21507  1.0000
  H   H1184     1.0  0.58514  0.04076  0.13050  1.0000
  C   C700      1.0  0.44295  0.05538  0.44386  1.0000
  H   H1185     1.0  0.39508  0.14239  0.45752  1.0000
  C   C701      1.0  0.43722  0.03695  0.42984  1.0000
  S   S208      1.0  0.66605  0.08017  0.23188  1.0000
  H   H1186     1.0  0.47049  0.10510  0.47013  1.0000
  H   H1187     1.0  0.48082  0.08974  0.37313  1.0000
  C   C702      1.0  0.57483  0.04594  0.00387  1.0000
  H   H1188     1.0  0.62005  0.02913  0.01693  1.0000
  C   C703      1.0  0.46822  0.09034  0.38630  1.0000
  H   H1189     1.0  0.53068  0.05547  0.10374  1.0000
  H   H1190     1.0  0.44062  0.25335  0.35582  1.0000
  S   S209      1.0  0.43407  0.02300  0.20411  1.0000
  C   C704      1.0  0.52604  0.05188  0.29476  1.0000
  H   H1191     1.0  0.63755  0.06626  0.37279  1.0000
  H   H1192     1.0  0.59433  0.05664  0.31870  1.0000
  C   C705      1.0  0.46957  0.09326  0.45722  1.0000
  H   H1193     1.0  0.56298  0.05899  0.31200  1.0000
  H   H1194     1.0  0.56935  0.04943  0.28265  1.0000
  C   C706      1.0  0.59307  0.02406  0.99685  1.0000
  C   C707      1.0  0.62289  0.05646  0.37368  1.0000
  H   H1195     1.0  0.42259  0.22559  0.40345  1.0000
  C   C708      1.0  0.59671  0.04957  0.43453  1.0000
  H   H1196     1.0  0.54869  0.04382  0.14687  1.0000
  H   H1197     1.0  0.38831  0.17254  0.17047  1.0000
  C   C709      1.0  0.42085  0.23425  0.38561  1.0000
  H   H1198     1.0  0.42271  0.16410  0.25399  1.0000
  H   H1199     1.0  0.60102  0.01746  0.45899  1.0000
  H   H1200     1.0  0.33979  0.03023  0.33068  1.0000
  H   H1201     1.0  0.53833  0.06436  0.29173  1.0000
  H   H1202     1.0  0.51854  0.05128  0.31486  1.0000
  H   H1203     1.0  0.51546  0.05319  0.27949  1.0000
  H   H1204     1.0  0.56358  0.05840  0.10904  1.0000
  H   H1205     1.0  0.59679  0.04129  0.09696  1.0000
  S   S210      1.0  0.47278  0.01639  0.47629  1.0000
  N   N52       1.0  0.45301  0.07523  0.16732  1.0000
  C   C710      1.0  0.44714  0.06122  0.14597  1.0000
  C   C711      1.0  0.43510  0.07447  0.18464  1.0000
  C   C712      1.0  0.46799  0.07010  0.18424  1.0000
  C   C713      1.0  0.46128  0.09365  0.15286  1.0000
  C   C714      1.0  0.46379  0.05664  0.12966  1.0000
  C   C715      1.0  0.41830  0.07872  0.16959  1.0000
  C   C716      1.0  0.47022  0.07695  0.21335  1.0000
  C   C717      1.0  0.46721  0.11037  0.17056  1.0000
  H   H1206     1.0  0.43793  0.04803  0.15532  1.0000
  H   H1207     1.0  0.43812  0.06566  0.13072  1.0000
  H   H1208     1.0  0.43818  0.08394  0.20149  1.0000
  H   H1209     1.0  0.42940  0.06066  0.19491  1.0000
  H   H1210     1.0  0.46461  0.05499  0.18701  1.0000
  H   H1211     1.0  0.48253  0.07461  0.17359  1.0000
  H   H1212     1.0  0.47450  0.09388  0.14043  1.0000
  H   H1213     1.0  0.45145  0.09647  0.13742  1.0000
  H   H1214     1.0  0.47444  0.06889  0.12027  1.0000
  H   H1215     1.0  0.47139  0.04878  0.14228  1.0000
  H   H1216     1.0  0.38173  0.20473  0.47695  1.0000
  H   H1217     1.0  0.42267  0.09235  0.15889  1.0000
  H   H1218     1.0  0.41198  0.06813  0.15509  1.0000
  H   H1219     1.0  0.44952  0.10122  0.43133  1.0000
  H   H1220     1.0  0.45748  0.06977  0.22674  1.0000
  H   H1221     1.0  0.36501  0.16406  0.27733  1.0000
  H   H1222     1.0  0.48295  0.07365  0.22206  1.0000
  H   H1223     1.0  0.48221  0.11247  0.17726  1.0000
  H   H1224     1.0  0.45729  0.10976  0.18832  1.0000
  H   H1225     1.0  0.46657  0.12272  0.15842  1.0000
  N   N53       1.0  0.46547  0.23952  0.11737  1.0000
  C   C718      1.0  0.45009  0.08869  0.44319  1.0000
  S   S211      1.0  0.62392  0.06275  0.04436  1.0000
  C   C719      1.0  0.47465  0.25019  0.14093  1.0000
  C   C720      1.0  0.58309  0.04332  0.31835  1.0000
  H   H1226     1.0  0.62423  0.04651  0.46836  1.0000
  Fe  Fe98      1.0  0.46414  0.01980  0.21092  1.0000
  H   H1227     1.0  0.42322  0.13734  0.99489  1.0000
  H   H1228     1.0  0.41837  0.17346  0.28530  1.0000
  C   C721      1.0  0.54729  0.02092  0.11986  1.0000
  S   S212      1.0  0.38521  0.24733  0.29323  1.0000
  C   C722      1.0  0.58932  0.05583  0.02015  1.0000
  H   H1229     1.0  0.57391  0.05647  0.07662  1.0000
  S   S213      1.0  0.66916  0.04636  0.06448  1.0000
  C   C723      1.0  0.36184  0.14214  0.47326  1.0000
  H   H1230     1.0  0.61200  0.06411  0.37194  1.0000
  H   H1231     1.0  0.55411  0.04451  0.36770  1.0000
  C   C724      1.0  0.47368  0.20833  0.12236  1.0000
  C   C725      1.0  0.38792  0.23108  0.40315  1.0000
  H   H1232     1.0  0.52865  0.03911  0.36987  1.0000
  H   H1233     1.0  0.39228  0.18378  0.26926  1.0000
  C   C726      1.0  0.60754  0.03392  0.01320  1.0000
  C   C727      1.0  0.35381  0.03708  0.48376  1.0000
  C   C728      1.0  0.60572  0.04987  0.02471  1.0000
  H   H1234     1.0  0.43401  0.19153  0.99632  1.0000
  H   H1235     1.0  0.64150  0.04363  0.44353  1.0000
  C   C729      1.0  0.37795  0.21616  0.38385  1.0000
  C   C730      1.0  0.40214  0.16733  0.20842  1.0000
  H   H1236     1.0  0.54134  0.05550  0.34458  1.0000
  H   H1237     1.0  0.57099  0.02743  0.05750  1.0000
  C   C731      1.0  0.47481  0.23947  0.16797  1.0000
  H   H1238     1.0  0.37934  0.22109  0.36239  1.0000
  H   H1239     1.0  0.40615  0.07020  0.02800  1.0000
  H   H1240     1.0  0.45322  0.10231  0.99765  1.0000
  H   H1241     1.0  0.53662  0.03487  0.26807  1.0000
  H   H1242     1.0  0.40201  0.19596  0.47318  1.0000
  H   H1243     1.0  0.35282  0.07215  0.26717  1.0000
  H   H1244     1.0  0.62469  0.07991  0.41048  1.0000
  H   H1245     1.0  0.37266  0.17746  0.45089  1.0000
  H   H1246     1.0  0.41956  0.17783  0.48075  1.0000
  H   H1247     1.0  0.48212  0.09725  0.44246  1.0000
  H   H1248     1.0  0.39077  0.22354  0.42154  1.0000
  H   H1249     1.0  0.37935  0.14314  0.24309  1.0000
  H   H1250     1.0  0.37488  0.04367  0.25505  1.0000
  H   H1251     1.0  0.43856  0.22134  0.10590  1.0000
  S   S214      1.0  0.52073  0.03811  0.00698  1.0000
  C   C732      1.0  0.46507  0.25300  0.09433  1.0000
  H   H1252     1.0  0.40207  0.24592  0.34855  1.0000
  C   C733      1.0  0.37765  0.17016  0.03359  1.0000
  H   H1253     1.0  0.40710  0.21008  0.00532  1.0000
  C   C734      1.0  0.55216  0.01391  0.29678  1.0000
  H   H1254     1.0  0.61513  0.08086  0.46075  1.0000
  H   H1255     1.0  0.36442  0.16097  0.02563  1.0000
  C   C735      1.0  0.56941  0.04908  0.09672  1.0000
  H   H1256     1.0  0.43168  0.07545  0.02683  1.0000
  H   H1257     1.0  0.35551  0.03820  0.43867  1.0000
  H   H1258     1.0  0.40090  0.15373  0.27482  1.0000
  H   H1259     1.0  0.36340  0.19118  0.25352  1.0000
  S   S215      1.0  0.48849  0.03564  0.39871  1.0000
  H   H1260     1.0  0.42907  0.03717  0.41132  1.0000
  C   C736      1.0  0.37339  0.19873  0.23689  1.0000
  Fe  Fe99      1.0  0.40310  0.12020  0.36829  1.0000
  H   H1261     1.0  0.38382  0.20416  0.38549  1.0000
  C   C737      1.0  0.62985  0.08138  0.45284  1.0000
  H   H1262     1.0  0.40474  0.15899  0.16705  1.0000
  N   N54       1.0  0.61767  0.05180  0.42659  1.0000
  S   S216      1.0  0.36579  0.16411  0.33730  1.0000
  Fe  Fe100     1.0  0.50834  0.03637  0.21754  1.0000
  H   H1263     1.0  0.55928  0.01711  0.27604  1.0000
  C   C738      1.0  0.40829  0.11345  0.48698  1.0000
  H   H1264     1.0  0.45066  0.23711  0.37218  1.0000
  C   C739      1.0  0.41645  0.16383  0.47354  1.0000
  H   H1265     1.0  0.45642  0.09093  0.37271  1.0000
  C   C740      1.0  0.40081  0.11782  0.18376  1.0000
  C   C741      1.0  0.39337  0.16168  0.18078  1.0000
  S   S217      1.0  0.38792  0.11040  0.01512  1.0000
  S   S218      1.0  0.65250  0.07392  0.29726  1.0000
  H   H1266     1.0  0.44377  0.21756  0.13972  1.0000
  H   H1267     1.0  0.35216  0.14183  0.27024  1.0000
  Fe  Fe101     1.0  0.65329  0.05911  0.03467  1.0000
  H   H1268     1.0  0.50066  0.11537  0.00464  1.0000
  H   H1269     1.0  0.42652  0.06285  0.39294  1.0000
  H   H1270     1.0  0.36555  0.20701  0.22537  1.0000
  H   H1271     1.0  0.40918  0.07503  0.44510  1.0000
  H   H1272     1.0  0.40472  0.05187  0.43415  1.0000
  C   C742      1.0  0.38861  0.11242  0.20715  1.0000
  H   H1273     1.0  0.38151  0.14879  0.18263  1.0000
  C   C743      1.0  0.58807  0.04781  0.11012  1.0000
  H   H1274     1.0  0.57133  0.05860  0.42688  1.0000
  C   C744      1.0  0.53846  0.03088  0.14117  1.0000
  H   H1275     1.0  0.36913  0.13815  0.43014  1.0000
  H   H1276     1.0  0.38662  0.11031  0.25095  1.0000
  H   H1277     1.0  0.46535  0.01916  0.08915  1.0000
  H   H1278     1.0  0.58538  0.05786  0.39675  1.0000
  H   H1279     1.0  0.49368  0.25591  0.07360  1.0000
  H   H1280     1.0  0.59733  0.06187  0.11296  1.0000
  H   H1281     1.0  0.46183  0.22789  0.17229  1.0000
  H   H1282     1.0  0.39710  0.06855  0.41446  1.0000
  S   S219      1.0  0.37431  0.12026  0.30339  1.0000
  H   H1283     1.0  0.55918  0.01666  0.12950  1.0000
  H   H1284     1.0  0.45894  0.06121  0.39268  1.0000
  C   C745      1.0  0.40878  0.06649  0.42730  1.0000
  H   H1285     1.0  0.39649  0.16386  0.44176  1.0000
  S   S220      1.0  0.37126  0.11758  0.36980  1.0000
  S   S221      1.0  0.66286  0.04096  0.26401  1.0000
  H   H1286     1.0  0.42523  0.04619  0.00128  1.0000
  Fe  Fe102     1.0  0.37012  0.09800  0.33627  1.0000
  C   C746      1.0  0.62956  0.07151  0.42604  1.0000
  Fe  Fe103     1.0  0.49433  0.03110  0.44323  1.0000
  H   H1287     1.0  0.41664  0.22971  0.13955  1.0000
  C   C747      1.0  0.46242  0.07323  0.40572  1.0000
  H   H1288     1.0  0.43874  0.08686  0.45975  1.0000
  H   H1289     1.0  0.63778  0.09603  0.44903  1.0000
  H   H1290     1.0  0.42767  0.02637  0.44401  1.0000
  C   C748      1.0  0.40313  0.25458  0.36642  1.0000
  C   C749      1.0  0.42804  0.07197  0.41032  1.0000
  C   C750      1.0  0.49838  0.08682  0.01182  1.0000
  H   H1291     1.0  0.36702  0.07099  0.23649  1.0000
  H   H1292     1.0  0.34417  0.05425  0.45344  1.0000
  H   H1293     1.0  0.43255  0.02209  0.27538  1.0000
  H   H1294     1.0  0.34107  0.04601  0.99562  1.0000
  H   H1295     1.0  0.58967  0.03425  0.30651  1.0000
  H   H1296     1.0  0.57504  0.01551  0.08731  1.0000
  H   H1297     1.0  0.34239  0.05014  0.21894  1.0000
  H   H1298     1.0  0.57972  0.02316  0.22349  1.0000
  H   H1299     1.0  0.40761  0.15583  0.21583  1.0000
  H   H1300     1.0  0.37718  0.23801  0.41076  1.0000
  Fe  Fe104     1.0  0.49220  0.01866  0.99902  1.0000
  C   C751      1.0  0.34329  0.03622  0.22505  1.0000
  H   H1301     1.0  0.49302  0.23413  0.10822  1.0000
  H   H1302     1.0  0.40883  0.24100  0.45095  1.0000
  H   H1303     1.0  0.45027  0.03255  0.42436  1.0000
  H   H1304     1.0  0.47485  0.24865  0.18499  1.0000
  H   H1305     1.0  0.36323  0.04482  0.28705  1.0000
  H   H1306     1.0  0.47090  0.08192  0.47094  1.0000
  H   H1307     1.0  0.36805  0.03486  0.48755  1.0000
  Fe  Fe105     1.0  0.52302  0.05021  0.48480  1.0000
  H   H1308     1.0  0.49005  0.25749  0.13571  1.0000
  C   C752      1.0  0.61612  0.02064  0.45053  1.0000
  N   N55       1.0  0.37889  0.15788  0.47961  1.0000
  C   C753      1.0  0.37363  0.17534  0.47318  1.0000
  H   H1309     1.0  0.36214  0.21166  0.38884  1.0000
  H   H1310     1.0  0.56248  0.05088  0.99981  1.0000
  H   H1311     1.0  0.61653  0.01379  0.43118  1.0000
  S   S222      1.0  0.51922  0.02417  0.46317  1.0000
  H   H1312     1.0  0.42054  0.09363  0.02386  1.0000
  H   H1313     1.0  0.34658  0.16065  0.25244  1.0000
  H   H1314     1.0  0.45680  0.24591  0.07732  1.0000
  C   C754      1.0  0.38831  0.10544  0.48889  1.0000
  H   H1315     1.0  0.42137  0.02609  0.11833  1.0000
  H   H1316     1.0  0.35282  0.15225  0.43459  1.0000
  H   H1317     1.0  0.62408  0.01448  0.46531  1.0000
  H   H1318     1.0  0.36962  0.05821  0.45411  1.0000
  H   H1319     1.0  0.43606  0.24691  0.15246  1.0000
  C   C755      1.0  0.41758  0.01660  0.10152  1.0000
  H   H1320     1.0  0.45570  0.07263  0.00069  1.0000
  S   S223      1.0  0.66152  0.04547  0.99828  1.0000
  H   H1321     1.0  0.34334  0.18739  0.32213  1.0000
  H   H1322     1.0  0.37162  0.25094  0.36881  1.0000
  C   C756      1.0  0.33914  0.05308  0.35485  1.0000
  Fe  Fe106     1.0  0.41132  0.25860  0.04538  1.0000
  C   C757      1.0  0.39432  0.20369  0.99355  1.0000
  H   H1323     1.0  0.61941  0.07248  0.86719  1.0000
  S   S224      1.0  0.40203  0.15052  0.82281  1.0000
  S   S225      1.0  0.41549  0.14669  0.89789  1.0000
  S   S226      1.0  0.42250  0.12545  0.76730  1.0000
  Fe  Fe107     1.0  0.39160  0.11420  0.55707  1.0000
  S   S227      1.0  0.41664  0.13947  0.55245  1.0000
  H   H1324     1.0  0.39832  0.25043  0.68663  1.0000
  Fe  Fe108     1.0  0.39477  0.11145  0.61933  1.0000
  S   S228      1.0  0.42024  0.13613  0.61858  1.0000
  H   H1325     1.0  0.63588  0.04852  0.69337  1.0000
  Fe  Fe109     1.0  0.40345  0.14827  0.58976  1.0000
  S   S229      1.0  0.39791  0.17490  0.59992  1.0000
  Fe  Fe110     1.0  0.43041  0.12431  0.58188  1.0000
  S   S230      1.0  0.46059  0.12161  0.57708  1.0000
  S   S231      1.0  0.37723  0.12419  0.59218  1.0000
  S   S232      1.0  0.40601  0.09851  0.58467  1.0000
  S   S233      1.0  0.42434  0.23711  0.50834  1.0000
  S   S234      1.0  0.66123  0.03343  0.55727  1.0000
  H   H1326     1.0  0.39834  0.02508  0.74886  1.0000
  H   H1327     1.0  0.36131  0.12371  0.68987  1.0000
  S   S235      1.0  0.49889  0.02420  0.67227  1.0000
  S   S236      1.0  0.52678  0.04708  0.94071  1.0000
  S   S237      1.0  0.50343  0.03805  0.52103  1.0000
  S   S238      1.0  0.61148  0.02607  0.52684  1.0000
  H   H1328     1.0  0.39524  0.06438  0.62955  1.0000
  Fe  Fe111     1.0  0.51837  0.03455  0.70658  1.0000
  H   H1329     1.0  0.63718  0.05713  0.95529  1.0000
  H   H1330     1.0  0.36415  0.12126  0.73831  1.0000
  H   H1331     1.0  0.54713  0.03683  0.65276  1.0000
  H   H1332     1.0  0.37852  0.21640  0.96501  1.0000
  H   H1333     1.0  0.36034  0.16735  0.52688  1.0000
  C   C758      1.0  0.40677  0.22109  0.85168  1.0000
  S   S239      1.0  0.44476  0.01783  0.69314  1.0000
  C   C759      1.0  0.35201  0.04142  0.94353  1.0000
  H   H1334     1.0  0.59978  0.04055  0.90266  1.0000
  C   C760      1.0  0.42970  0.06045  0.70162  1.0000
  Fe  Fe112     1.0  0.64766  0.07918  0.76832  1.0000
  S   S240      1.0  0.62108  0.08941  0.76337  1.0000
  S   S241      1.0  0.64633  0.04972  0.77531  1.0000
  S   S242      1.0  0.54244  0.06118  0.70208  1.0000
  C   C761      1.0  0.59946  0.08006  0.74637  1.0000
  C   C762      1.0  0.58927  0.09222  0.73756  1.0000
  C   C763      1.0  0.57190  0.08602  0.72436  1.0000
  C   C764      1.0  0.56402  0.06744  0.72018  1.0000
  C   C765      1.0  0.57400  0.05501  0.72914  1.0000
  C   C766      1.0  0.59180  0.06134  0.74213  1.0000
  H   H1335     1.0  0.59491  0.10664  0.74087  1.0000
  H   H1336     1.0  0.56444  0.09575  0.71747  1.0000
  H   H1337     1.0  0.56815  0.04062  0.72582  1.0000
  H   H1338     1.0  0.59944  0.05177  0.74907  1.0000
  H   H1339     1.0  0.66579  0.04168  0.61000  1.0000
  H   H1340     1.0  0.41615  0.22421  0.63346  1.0000
  H   H1341     1.0  0.47835  0.09841  0.96240  1.0000
  H   H1342     1.0  0.36831  0.14080  0.64529  1.0000
  H   H1343     1.0  0.51293  0.07973  0.77565  1.0000
  H   H1344     1.0  0.42920  0.07444  0.51625  1.0000
  H   H1345     1.0  0.37415  0.18366  0.95435  1.0000
  C   C767      1.0  0.46881  0.10737  0.95900  1.0000
  C   C768      1.0  0.43413  0.07863  0.94183  1.0000
  H   H1346     1.0  0.64909  0.07946  0.61313  1.0000
  H   H1347     1.0  0.60173  0.03838  0.62276  1.0000
  H   H1348     1.0  0.38977  0.22280  0.88965  1.0000
  C   C769      1.0  0.42515  0.07736  0.63780  1.0000
  S   S243      1.0  0.49330  0.02899  0.73729  1.0000
  H   H1349     1.0  0.35216  0.04689  0.49932  1.0000
  H   H1350     1.0  0.57828  0.07962  0.93613  1.0000
  Fe  Fe113     1.0  0.53166  0.02622  0.97087  1.0000
  H   H1351     1.0  0.53811  0.03792  0.55301  1.0000
  H   H1352     1.0  0.46190  0.09145  0.62137  1.0000
  H   H1353     1.0  0.59285  0.07476  0.96221  1.0000
  C   C770      1.0  0.41631  0.21950  0.53310  1.0000
  C   C771      1.0  0.40314  0.22075  0.55390  1.0000
  C   C772      1.0  0.39741  0.20687  0.57431  1.0000
  C   C773      1.0  0.40461  0.19164  0.57365  1.0000
  C   C774      1.0  0.41760  0.19029  0.55269  1.0000
  C   C775      1.0  0.42345  0.20423  0.53238  1.0000
  H   H1354     1.0  0.39726  0.23231  0.55412  1.0000
  H   H1355     1.0  0.38730  0.20788  0.59051  1.0000
  H   H1356     1.0  0.42349  0.17873  0.55245  1.0000
  H   H1357     1.0  0.43376  0.20334  0.51637  1.0000
  C   C776      1.0  0.45995  0.10308  0.55662  1.0000
  C   C777      1.0  0.44377  0.09601  0.54140  1.0000
  C   C778      1.0  0.44205  0.08008  0.52735  1.0000
  C   C779      1.0  0.45680  0.07143  0.52768  1.0000
  C   C780      1.0  0.47353  0.07897  0.54170  1.0000
  C   C781      1.0  0.47503  0.09475  0.55639  1.0000
  H   H1358     1.0  0.43249  0.10277  0.54048  1.0000
  C   C782      1.0  0.38818  0.15149  0.71896  1.0000
  H   H1359     1.0  0.48500  0.07235  0.54185  1.0000
  H   H1360     1.0  0.48767  0.10030  0.56792  1.0000
  C   C783      1.0  0.41203  0.11579  0.73761  1.0000
  H   H1361     1.0  0.43080  0.04260  0.96604  1.0000
  H   H1362     1.0  0.45592  0.11305  0.67122  1.0000
  H   H1363     1.0  0.40666  0.18085  0.88600  1.0000
  C   C784      1.0  0.41278  0.11571  0.68823  1.0000
  C   C785      1.0  0.42174  0.12166  0.71241  1.0000
  H   H1364     1.0  0.61195  0.08842  0.91844  1.0000
  H   H1365     1.0  0.42036  0.12045  0.66908  1.0000
  H   H1366     1.0  0.43597  0.13130  0.71159  1.0000
  C   C786      1.0  0.40862  0.13509  0.92972  1.0000
  C   C787      1.0  0.39102  0.12157  0.93386  1.0000
  C   C788      1.0  0.38495  0.11389  0.96011  1.0000
  H   H1367     1.0  0.34317  0.15938  0.71527  1.0000
  H   H1368     1.0  0.57308  0.04170  0.64744  1.0000
  C   C789      1.0  0.42043  0.14031  0.95172  1.0000
  C   C790      1.0  0.63073  0.09470  0.63215  1.0000
  H   H1369     1.0  0.35064  0.03133  0.85252  1.0000
  H   H1370     1.0  0.40830  0.06502  0.98208  1.0000
  H   H1371     1.0  0.43414  0.15066  0.94858  1.0000
  C   C791      1.0  0.37085  0.22055  0.77722  1.0000
  C   C792      1.0  0.35149  0.21015  0.77976  1.0000
  H   H1372     1.0  0.66105  0.11461  0.70019  1.0000
  C   C793      1.0  0.36077  0.18303  0.79457  1.0000
  C   C794      1.0  0.38029  0.19317  0.79127  1.0000
  C   C795      1.0  0.38533  0.21194  0.78275  1.0000
  H   H1373     1.0  0.44070  0.05510  0.60572  1.0000
  C   C796      1.0  0.60770  0.04250  0.92182  1.0000
  H   H1374     1.0  0.39141  0.18651  0.79502  1.0000
  H   H1375     1.0  0.40037  0.21965  0.78031  1.0000
  C   C797      1.0  0.42522  0.23828  0.62809  1.0000
  C   C798      1.0  0.63454  0.10082  0.68116  1.0000
  C   C799      1.0  0.62816  0.05924  0.69219  1.0000
  C   C800      1.0  0.65668  0.10880  0.68026  1.0000
  H   H1376     1.0  0.64934  0.07322  0.66163  1.0000
  H   H1377     1.0  0.62891  0.11288  0.67814  1.0000
  H   H1378     1.0  0.62949  0.09597  0.70239  1.0000
  C   C801      1.0  0.44687  0.24043  0.63223  1.0000
  H   H1379     1.0  0.44836  0.23624  0.65377  1.0000
  C   C802      1.0  0.38473  0.23916  0.68875  1.0000
  H   H1380     1.0  0.40083  0.21389  0.95032  1.0000
  H   H1381     1.0  0.64009  0.08401  0.98188  1.0000
  C   C803      1.0  0.35246  0.25001  0.63295  1.0000
  H   H1382     1.0  0.59295  0.01648  0.60788  1.0000
  H   H1383     1.0  0.39672  0.19713  0.90054  1.0000
  H   H1384     1.0  0.35474  0.04562  0.92159  1.0000
  H   H1385     1.0  0.39530  0.16670  0.51532  1.0000
  H   H1386     1.0  0.53681  0.05785  0.56953  1.0000
  H   H1387     1.0  0.39033  0.15042  0.76354  1.0000
  H   H1388     1.0  0.55179  0.04024  0.83864  1.0000
  H   H1389     1.0  0.37135  0.15560  0.55057  1.0000
  C   C804      1.0  0.44730  0.05837  0.64920  1.0000
  N   N56       1.0  0.61823  0.06236  0.92469  1.0000
  C   C805      1.0  0.63586  0.08433  0.96042  1.0000
  C   C806      1.0  0.56567  0.08286  0.81807  1.0000
  H   H1390     1.0  0.45403  0.25529  0.63090  1.0000
  H   H1391     1.0  0.38524  0.01613  0.78085  1.0000
  C   C807      1.0  0.44957  0.10076  0.97594  1.0000
  H   H1392     1.0  0.36789  0.01639  0.52292  1.0000
  H   H1393     1.0  0.52453  0.07252  0.81842  1.0000
  C   C808      1.0  0.60141  0.05756  0.51396  1.0000
  H   H1394     1.0  0.50985  0.05236  0.80568  1.0000
  H   H1395     1.0  0.53846  0.08377  0.77101  1.0000
  C   C809      1.0  0.64983  0.09371  0.61810  1.0000
  H   H1396     1.0  0.39644  0.16095  0.70245  1.0000
  H   H1397     1.0  0.35388  0.24653  0.58939  1.0000
  C   C810      1.0  0.39556  0.16004  0.74578  1.0000
  H   H1398     1.0  0.62469  0.05059  0.87021  1.0000
  C   C811      1.0  0.42471  0.19873  0.84278  1.0000
  H   H1399     1.0  0.52179  0.03032  0.78550  1.0000
  H   H1400     1.0  0.43535  0.04630  0.65632  1.0000
  Fe  Fe114     1.0  0.47970  0.04314  0.49649  1.0000
  H   H1401     1.0  0.41798  0.23208  0.84022  1.0000
  H   H1402     1.0  0.61589  0.06506  0.51872  1.0000
  Fe  Fe115     1.0  0.51276  0.05677  0.97631  1.0000
  H   H1403     1.0  0.45223  0.08480  0.69357  1.0000
  H   H1404     1.0  0.43707  0.22186  0.81315  1.0000
  H   H1405     1.0  0.41115  0.16966  0.96665  1.0000
  H   H1406     1.0  0.54966  0.04988  0.61026  1.0000
  C   C812      1.0  0.37488  0.17603  0.97377  1.0000
  H   H1407     1.0  0.50439  0.25414  0.62705  1.0000
  C   C813      1.0  0.54593  0.03859  0.59597  1.0000
  S   S244      1.0  0.38221  0.09649  0.65903  1.0000
  N   N57       1.0  0.36430  0.25412  0.65792  1.0000
  H   H1408     1.0  0.35506  0.05420  0.95469  1.0000
  H   H1409     1.0  0.40789  0.18792  0.94678  1.0000
  H   H1410     1.0  0.57685  0.09383  0.80649  1.0000
  C   C814      1.0  0.57691  0.02889  0.51020  1.0000
  H   H1411     1.0  0.44148  0.19272  0.96133  1.0000
  Fe  Fe116     1.0  0.39806  0.13426  0.86252  1.0000
  C   C815      1.0  0.52435  0.06251  0.80265  1.0000
  C   C816      1.0  0.37513  0.14678  0.66397  1.0000
  H   H1412     1.0  0.35296  0.01811  0.70782  1.0000
  H   H1413     1.0  0.48141  0.01689  0.79762  1.0000
  H   H1414     1.0  0.36650  0.19248  0.71207  1.0000
  H   H1415     1.0  0.57800  0.08861  0.66264  1.0000
  H   H1416     1.0  0.61453  0.05838  0.96842  1.0000
  H   H1417     1.0  0.62605  0.09321  0.95927  1.0000
  C   C817      1.0  0.44283  0.20571  0.89667  1.0000
  N   N58       1.0  0.43776  0.08152  0.97151  1.0000
  H   H1418     1.0  0.37652  0.24006  0.70777  1.0000
  H   H1419     1.0  0.40664  0.24395  0.87753  1.0000
  C   C818      1.0  0.54544  0.04788  0.56778  1.0000
  C   C819      1.0  0.35062  0.25524  0.68125  1.0000
  S   S245      1.0  0.48383  0.02596  0.89553  1.0000
  H   H1420     1.0  0.38799  0.19288  0.50525  1.0000
  H   H1421     1.0  0.64333  0.07086  0.86107  1.0000
  H   H1422     1.0  0.44110  0.11069  0.97201  1.0000
  H   H1423     1.0  0.44073  0.22956  0.87334  1.0000
  C   C820      1.0  0.36335  0.24690  0.60683  1.0000
  H   H1424     1.0  0.64934  0.09050  0.94793  1.0000
  S   S246      1.0  0.55942  0.01811  0.97035  1.0000
  S   S247      1.0  0.48358  0.03811  0.97012  1.0000
  C   C821      1.0  0.39643  0.23112  0.87121  1.0000
  H   H1425     1.0  0.45386  0.21859  0.83809  1.0000
  C   C822      1.0  0.48871  0.25308  0.62664  1.0000
  H   H1426     1.0  0.53082  0.03062  0.60192  1.0000
  C   C823      1.0  0.56919  0.05735  0.50031  1.0000
  C   C824      1.0  0.62028  0.02907  0.92260  1.0000
  C   C825      1.0  0.36815  0.18040  0.70131  1.0000
  H   H1427     1.0  0.37801  0.16174  0.66132  1.0000
  C   C826      1.0  0.36155  0.13842  0.68879  1.0000
  H   H1428     1.0  0.66157  0.11982  0.66414  1.0000
  C   C827      1.0  0.48665  0.01296  0.81653  1.0000
  H   H1429     1.0  0.35803  0.25800  0.70060  1.0000
  H   H1430     1.0  0.43132  0.20663  0.61296  1.0000
  C   C828      1.0  0.63489  0.06872  0.90407  1.0000
  H   H1431     1.0  0.48581  0.22980  0.60203  1.0000
  H   H1432     1.0  0.56003  0.05556  0.55952  1.0000
  H   H1433     1.0  0.51709  0.05385  0.85715  1.0000
  H   H1434     1.0  0.66265  0.09927  0.63011  1.0000
  S   S248      1.0  0.35296  0.15955  0.80556  1.0000
  H   H1435     1.0  0.37166  0.14681  0.98466  1.0000
  C   C829      1.0  0.44875  0.06846  0.98128  1.0000
  H   H1436     1.0  0.40809  0.04832  0.63864  1.0000
  H   H1437     1.0  0.41622  0.11681  0.50517  1.0000
  H   H1438     1.0  0.42481  0.06419  0.72166  1.0000
  H   H1439     1.0  0.39172  0.17294  0.74876  1.0000
  H   H1440     1.0  0.62753  0.02911  0.94207  1.0000
  H   H1441     1.0  0.36238  0.03363  0.94874  1.0000
  Fe  Fe117     1.0  0.40190  0.12436  0.80330  1.0000
  C   C830      1.0  0.54958  0.02518  0.78735  1.0000
  H   H1442     1.0  0.42466  0.06464  0.93902  1.0000
  H   H1443     1.0  0.35924  0.13853  0.75831  1.0000
  H   H1444     1.0  0.45977  0.05765  0.66159  1.0000
  H   H1445     1.0  0.40950  0.09014  0.93546  1.0000
  H   H1446     1.0  0.59636  0.03759  0.93833  1.0000
  H   H1447     1.0  0.66464  0.09847  0.67767  1.0000
  H   H1448     1.0  0.65987  0.02597  0.65542  1.0000
  H   H1449     1.0  0.44082  0.05323  0.70559  1.0000
  C   C831      1.0  0.37260  0.23830  0.66347  1.0000
  H   H1450     1.0  0.58300  0.04106  0.57023  1.0000
  H   H1451     1.0  0.54191  0.06736  0.85994  1.0000
  H   H1452     1.0  0.37669  0.01545  0.70981  1.0000
  H   H1453     1.0  0.54616  0.01559  0.77059  1.0000
  H   H1454     1.0  0.47675  0.12118  0.96528  1.0000
  C   C832      1.0  0.60459  0.08064  0.66569  1.0000
  H   H1455     1.0  0.40041  0.06190  0.66417  1.0000
  H   H1456     1.0  0.61078  0.01499  0.92071  1.0000
  H   H1457     1.0  0.42884  0.07822  0.61561  1.0000
  C   C833      1.0  0.45814  0.11094  0.64936  1.0000
  H   H1458     1.0  0.42130  0.09017  0.64199  1.0000
  N   N59       1.0  0.41568  0.20740  0.86472  1.0000
  C   C834      1.0  0.40070  0.19245  0.88065  1.0000
  H   H1459     1.0  0.46648  0.10862  0.93699  1.0000
  C   C835      1.0  0.38177  0.18411  0.86631  1.0000
  H   H1460     1.0  0.38185  0.15430  0.95073  1.0000
  S   S249      1.0  0.37576  0.24397  0.76630  1.0000
  C   C836      1.0  0.39642  0.11964  0.98230  1.0000
  C   C837      1.0  0.44667  0.21008  0.61858  1.0000
  C   C838      1.0  0.43061  0.21723  0.88373  1.0000
  H   H1461     1.0  0.44781  0.07932  0.93007  1.0000
  C   C839      1.0  0.57998  0.03848  0.59252  1.0000
  H   H1462     1.0  0.41379  0.19233  0.82815  1.0000
  H   H1463     1.0  0.59732  0.10628  0.67432  1.0000
  H   H1464     1.0  0.58175  0.05217  0.60097  1.0000
  H   H1465     1.0  0.38439  0.23455  0.86071  1.0000
  H   H1466     1.0  0.42981  0.18725  0.85134  1.0000
  H   H1467     1.0  0.46265  0.22805  0.57037  1.0000
  C   C840      1.0  0.59381  0.09519  0.65980  1.0000
  H   H1468     1.0  0.38390  0.18309  0.69754  1.0000
  H   H1469     1.0  0.38679  0.14276  0.51299  1.0000
  C   C841      1.0  0.40634  0.06191  0.64316  1.0000
  H   H1470     1.0  0.63258  0.06800  0.70960  1.0000
  Fe  Fe118     1.0  0.49789  0.02675  0.93640  1.0000
  H   H1471     1.0  0.57180  0.07963  0.83737  1.0000
  C   C842      1.0  0.63343  0.06994  0.66456  1.0000
  H   H1472     1.0  0.35408  0.14249  0.52889  1.0000
  H   H1473     1.0  0.53311  0.04545  0.87703  1.0000
  H   H1474     1.0  0.37264  0.17238  0.87905  1.0000
  H   H1475     1.0  0.43925  0.22918  0.57769  1.0000
  C   C843      1.0  0.39375  0.10313  0.73850  1.0000
  C   C844      1.0  0.58759  0.07078  0.94184  1.0000
  S   S250      1.0  0.40153  0.10921  0.84313  1.0000
  H   H1476     1.0  0.35912  0.16705  0.74091  1.0000
  C   C845      1.0  0.53816  0.04360  0.83368  1.0000
  H   H1477     1.0  0.60059  0.07583  0.68714  1.0000
  Fe  Fe119     1.0  0.36992  0.14047  0.82156  1.0000
  C   C846      1.0  0.39422  0.10356  0.68904  1.0000
  H   H1478     1.0  0.41160  0.16329  0.74519  1.0000
  S   S251      1.0  0.51405  0.08591  0.98414  1.0000
  H   H1479     1.0  0.34670  0.13863  0.68353  1.0000
  H   H1480     1.0  0.62772  0.06014  0.64860  1.0000
  H   H1481     1.0  0.34016  0.21649  0.77538  1.0000
  S   S252      1.0  0.37524  0.10226  0.52047  1.0000
  H   H1482     1.0  0.38188  0.11733  0.91698  1.0000
  C   C847      1.0  0.43852  0.07803  0.68375  1.0000
  H   H1483     1.0  0.44700  0.18255  0.60911  1.0000
  C   C848      1.0  0.35883  0.16306  0.71935  1.0000
  C   C849      1.0  0.46099  0.25521  0.57424  1.0000
  S   S253      1.0  0.65766  0.07042  0.52379  1.0000
  N   N60       1.0  0.54006  0.05309  0.80589  1.0000
  H   H1484     1.0  0.45477  0.04120  0.61889  1.0000
  N   N61       1.0  0.62629  0.08667  0.66093  1.0000
  H   H1485     1.0  0.55371  0.08892  0.82244  1.0000
  H   H1486     1.0  0.45489  0.19842  0.58101  1.0000
  C   C850      1.0  0.58810  0.06701  0.50613  1.0000
  S   S254      1.0  0.45334  0.05086  0.51124  1.0000
  H   H1487     1.0  0.39307  0.13903  0.71703  1.0000
  H   H1488     1.0  0.37068  0.08735  0.71514  1.0000
  H   H1489     1.0  0.42259  0.24236  0.60710  1.0000
  H   H1490     1.0  0.38641  0.09804  0.75784  1.0000
  H   H1491     1.0  0.47067  0.19802  0.60884  1.0000
  C   C851      1.0  0.59577  0.03847  0.51596  1.0000
  H   H1492     1.0  0.45285  0.25721  0.55618  1.0000
  S   S255      1.0  0.36559  0.12561  0.86297  1.0000
  C   C852      1.0  0.38491  0.09700  0.71428  1.0000
  H   H1493     1.0  0.64659  0.06236  0.90878  1.0000
  H   H1494     1.0  0.63066  0.10929  0.63112  1.0000
  H   H1495     1.0  0.36230  0.17725  0.98655  1.0000
  Fe  Fe120     1.0  0.64323  0.04031  0.52473  1.0000
  H   H1496     1.0  0.59641  0.10103  0.63867  1.0000
  N   N62       1.0  0.45652  0.23020  0.61324  1.0000
  H   H1497     1.0  0.59810  0.06880  0.65319  1.0000
  H   H1498     1.0  0.36680  0.23361  0.60782  1.0000
  H   H1499     1.0  0.59720  0.07049  0.90053  1.0000
  H   H1500     1.0  0.47924  0.22463  0.63706  1.0000
  H   H1501     1.0  0.64168  0.08366  0.90500  1.0000
  C   C853      1.0  0.45435  0.23489  0.58376  1.0000
  C   C854      1.0  0.45558  0.19679  0.60334  1.0000
  H   H1502     1.0  0.47288  0.08996  0.65292  1.0000
  C   C855      1.0  0.60426  0.07358  0.92019  1.0000
  H   H1503     1.0  0.44905  0.25547  0.90423  1.0000
  H   H1504     1.0  0.41113  0.08848  0.98023  1.0000
  H   H1505     1.0  0.54010  0.04497  0.76402  1.0000
  S   S256      1.0  0.36986  0.11497  0.79980  1.0000
  C   C856      1.0  0.47760  0.23356  0.61940  1.0000
  H   H1506     1.0  0.59241  0.08178  0.50459  1.0000
  H   H1507     1.0  0.39673  0.21497  0.83578  1.0000
  C   C857      1.0  0.41861  0.07824  0.98690  1.0000
  H   H1508     1.0  0.37318  0.19402  0.86347  1.0000
  H   H1509     1.0  0.63124  0.03174  0.90551  1.0000
  H   H1510     1.0  0.56527  0.03209  0.78522  1.0000
  H   H1511     1.0  0.44632  0.20628  0.64069  1.0000
  N   N63       1.0  0.36664  0.14684  0.71584  1.0000
  H   H1512     1.0  0.56262  0.07070  0.77905  1.0000
  C   C858      1.0  0.37132  0.15587  0.96671  1.0000
  N   N64       1.0  0.44222  0.07599  0.65375  1.0000
  H   H1513     1.0  0.44670  0.11444  0.63769  1.0000
  C   C859      1.0  0.42448  0.09191  0.92741  1.0000
  C   C860      1.0  0.62608  0.06459  0.95270  1.0000
  H   H1514     1.0  0.65222  0.10179  0.59846  1.0000
  H   H1515     1.0  0.61931  0.08759  0.61842  1.0000
  C   C861      1.0  0.36596  0.15531  0.52968  1.0000
  C   C862      1.0  0.53236  0.05344  0.85801  1.0000
  C   C863      1.0  0.56001  0.06595  0.80072  1.0000
  C   C864      1.0  0.38275  0.15568  0.50924  1.0000
  H   H1516     1.0  0.57123  0.05871  0.80403  1.0000
  H   H1517     1.0  0.47665  0.25957  0.56834  1.0000
  H   H1518     1.0  0.42904  0.08714  0.68683  1.0000
  H   H1519     1.0  0.46618  0.06475  0.61164  1.0000
  Fe  Fe121     1.0  0.36906  0.10101  0.84108  1.0000
  H   H1520     1.0  0.57814  0.05655  0.94305  1.0000
  H   H1521     1.0  0.41712  0.05087  0.69293  1.0000
  C   C865      1.0  0.34652  0.19165  0.78843  1.0000
  H   H1522     1.0  0.38233  0.23684  0.64625  1.0000
  H   H1523     1.0  0.36079  0.22523  0.66543  1.0000
  C   C866      1.0  0.35725  0.13264  0.73796  1.0000
  H   H1524     1.0  0.38442  0.17871  0.84647  1.0000
  H   H1525     1.0  0.42365  0.22267  0.90076  1.0000
  H   H1526     1.0  0.38902  0.14317  0.66497  1.0000
  S   S257      1.0  0.35802  0.06996  0.84739  1.0000
  C   C867      1.0  0.45943  0.09150  0.64379  1.0000
  C   C868      1.0  0.45248  0.05497  0.61956  1.0000
  H   H1527     1.0  0.47197  0.12093  0.64220  1.0000
  C   C869      1.0  0.52471  0.07292  0.77514  1.0000
  H   H1528     1.0  0.52192  0.06368  0.75800  1.0000
  H   H1529     1.0  0.52692  0.03028  0.83397  1.0000
  C   C870      1.0  0.59644  0.03139  0.60401  1.0000
  H   H1530     1.0  0.40170  0.23094  0.97391  1.0000
  C   C871      1.0  0.62996  0.06532  0.87412  1.0000
  C   C872      1.0  0.53715  0.03869  0.78493  1.0000
  H   H1531     1.0  0.38912  0.22635  0.69097  1.0000
  H   H1532     1.0  0.61252  0.05200  0.69446  1.0000
  H   H1533     1.0  0.45246  0.21406  0.91138  1.0000
  H   H1534     1.0  0.47425  0.03040  0.84046  1.0000
  H   H1535     1.0  0.37115  0.10368  0.96326  1.0000
  H   H1536     1.0  0.43379  0.19330  0.90798  1.0000
  C   C873      1.0  0.44172  0.21160  0.82564  1.0000
  H   H1537     1.0  0.44753  0.20335  0.81121  1.0000
  N   N65       1.0  0.55952  0.02669  0.59825  1.0000
  H   H1538     1.0  0.45231  0.20171  0.88133  1.0000
  C   C874      1.0  0.39369  0.21678  0.96915  1.0000
  H   H1539     1.0  0.42344  0.08890  0.90554  1.0000
  C   C875      1.0  0.41428  0.13275  0.97798  1.0000
  H   H1540     1.0  0.36099  0.17987  0.68164  1.0000
  H   H1541     1.0  0.46112  0.06879  0.96690  1.0000
  H   H1542     1.0  0.43294  0.10640  0.92833  1.0000
  C   C876      1.0  0.41022  0.18386  0.96797  1.0000
  H   H1543     1.0  0.60899  0.03509  0.58910  1.0000
  C   C877      1.0  0.55620  0.01767  0.62642  1.0000
  H   H1544     1.0  0.42026  0.24744  0.64184  1.0000
  H   H1545     1.0  0.48419  0.25610  0.64732  1.0000
  H   H1546     1.0  0.54614  0.01660  0.80649  1.0000
  H   H1547     1.0  0.44652  0.04006  0.99225  1.0000
  C   C878      1.0  0.48261  0.02060  0.84086  1.0000
  C   C879      1.0  0.48926  0.01568  0.86569  1.0000
  H   H1548     1.0  0.55528  0.01837  0.55678  1.0000
  S   S258      1.0  0.43107  0.25580  0.77591  1.0000
  H   H1549     1.0  0.33965  0.24179  0.68534  1.0000
  Fe  Fe122     1.0  0.66956  0.05998  0.80516  1.0000
  H   H1550     1.0  0.57245  0.01411  0.51189  1.0000
  C   C880      1.0  0.56361  0.03829  0.50267  1.0000
  C   C881      1.0  0.43688  0.04825  0.98526  1.0000
  H   H1551     1.0  0.35674  0.15091  0.95839  1.0000
  S   S259      1.0  0.66948  0.08936  0.80037  1.0000
  H   H1552     1.0  0.35835  0.01314  0.75525  1.0000
  H   H1553     1.0  0.35197  0.01946  0.99013  1.0000
  C   C882      1.0  0.55936  0.03073  0.65008  1.0000
  C   C883      1.0  0.43041  0.19533  0.97564  1.0000
  Fe  Fe123     1.0  0.47449  0.01514  0.70397  1.0000
  H   H1554     1.0  0.59456  0.01178  0.98777  1.0000
  C   C884      1.0  0.66863  0.04001  0.65310  1.0000
  S   S260      1.0  0.66921  0.04470  0.84564  1.0000
  H   H1555     1.0  0.40791  0.01278  0.66867  1.0000
  C   C885      1.0  0.33828  0.05296  0.86334  1.0000
  C   C886      1.0  0.33857  0.03462  0.86267  1.0000
  C   C887      1.0  0.57672  0.03007  0.99213  1.0000
  H   H1556     1.0  0.54898  0.03072  0.49903  1.0000
  H   H1557     1.0  0.43185  0.21019  0.97395  1.0000
  H   H1558     1.0  0.37664  0.25818  0.60196  1.0000
  H   H1559     1.0  0.55981  0.02288  0.66934  1.0000
  N   N66       1.0  0.39361  0.18438  0.98705  1.0000
  C   C888      1.0  0.39505  0.01368  0.76452  1.0000
  H   H1560     1.0  0.40903  0.01413  0.77374  1.0000
  Fe  Fe124     1.0  0.49818  0.01235  0.49859  1.0000
  C   C889      1.0  0.33670  0.01212  0.51613  1.0000
  H   H1561     1.0  0.33983  0.23776  0.63691  1.0000
  C   C890      1.0  0.55391  0.01220  0.57766  1.0000
  H   H1562     1.0  0.46133  0.01158  0.63317  1.0000
  H   H1563     1.0  0.49499  0.01097  0.56648  1.0000
  Fe  Fe125     1.0  0.44895  0.29116  0.31313  1.0000
  S   S261      1.0  0.41932  0.29492  0.31181  1.0000
  S   S262      1.0  0.46382  0.29296  0.35308  1.0000
  Fe  Fe126     1.0  0.44996  0.28467  0.25193  1.0000
  S   S263      1.0  0.42032  0.28791  0.24736  1.0000
  S   S264      1.0  0.46702  0.27921  0.21549  1.0000
  Fe  Fe127     1.0  0.43075  0.31202  0.27353  1.0000
  S   S265      1.0  0.42642  0.34027  0.26684  1.0000
  Fe  Fe128     1.0  0.41293  0.27032  0.28611  1.0000
  S   S266      1.0  0.46081  0.30955  0.27629  1.0000
  H   H1564     1.0  0.51461  0.48493  0.35246  1.0000
  Fe  Fe129     1.0  0.44079  0.29165  0.06322  1.0000
  C   C891      1.0  0.40305  0.34716  0.00582  1.0000
  S   S267      1.0  0.46498  0.30299  0.09135  1.0000
  Fe  Fe130     1.0  0.42863  0.28947  0.00313  1.0000
  H   H1565     1.0  0.35435  0.33908  0.22661  1.0000
  H   H1566     1.0  0.38120  0.42931  0.35752  1.0000
  Fe  Fe131     1.0  0.40119  0.29433  0.04863  1.0000
  S   S268      1.0  0.38054  0.31129  0.05274  1.0000
  C   C892      1.0  0.34897  0.37845  0.01662  1.0000
  S   S269      1.0  0.43096  0.31042  0.03471  1.0000
  C   C893      1.0  0.35925  0.39667  0.06505  1.0000
  H   H1567     1.0  0.42945  0.45755  0.14149  1.0000
  S   S270      1.0  0.37138  0.38534  0.16626  1.0000
  S   S271      1.0  0.36442  0.33378  0.17082  1.0000
  H   H1568     1.0  0.54661  0.49302  0.10746  1.0000
  S   S272      1.0  0.37345  0.44340  0.40823  1.0000
  S   S273      1.0  0.35434  0.39115  0.41703  1.0000
  Fe  Fe132     1.0  0.49904  0.43820  0.23147  1.0000
  S   S274      1.0  0.47160  0.44657  0.23194  1.0000
  S   S275      1.0  0.49831  0.40817  0.23089  1.0000
  Fe  Fe133     1.0  0.52457  0.47848  0.23189  1.0000
  S   S276      1.0  0.49857  0.48909  0.23263  1.0000
  H   H1569     1.0  0.46582  0.42797  0.01693  1.0000
  Fe  Fe134     1.0  0.48573  0.46599  0.26318  1.0000
  S   S277      1.0  0.46936  0.47084  0.30070  1.0000
  Fe  Fe135     1.0  0.48749  0.46850  0.20125  1.0000
  S   S278      1.0  0.47291  0.47657  0.16488  1.0000
  S   S279      1.0  0.51245  0.45646  0.26464  1.0000
  S   S280      1.0  0.51430  0.45909  0.19852  1.0000
  Fe  Fe136     1.0  0.49444  0.47265  0.01232  1.0000
  S   S281      1.0  0.49591  0.45416  0.04858  1.0000
  Fe  Fe137     1.0  0.49634  0.46618  0.44979  1.0000
  S   S282      1.0  0.50102  0.45116  0.41256  1.0000
  C   C894      1.0  0.34808  0.32892  0.24348  1.0000
  H   H1570     1.0  0.35115  0.40649  0.33148  1.0000
  C   C895      1.0  0.40704  0.39873  0.02827  1.0000
  H   H1571     1.0  0.39327  0.40484  0.38254  1.0000
  C   C896      1.0  0.47855  0.46941  0.13283  1.0000
  C   C897      1.0  0.47182  0.47629  0.10953  1.0000
  C   C898      1.0  0.47683  0.47149  0.08359  1.0000
  C   C899      1.0  0.48848  0.45968  0.08082  1.0000
  C   C900      1.0  0.49460  0.45227  0.10418  1.0000
  C   C901      1.0  0.48970  0.45716  0.13012  1.0000
  H   H1572     1.0  0.46298  0.48559  0.11149  1.0000
  H   H1573     1.0  0.47156  0.47687  0.06581  1.0000
  H   H1574     1.0  0.50344  0.44296  0.10219  1.0000
  H   H1575     1.0  0.49462  0.45147  0.14793  1.0000
  C   C902      1.0  0.47665  0.46389  0.33207  1.0000
  C   C903      1.0  0.48813  0.45184  0.33341  1.0000
  C   C904      1.0  0.49495  0.44753  0.35842  1.0000
  C   C905      1.0  0.49035  0.45525  0.38224  1.0000
  C   C906      1.0  0.47815  0.46666  0.38108  1.0000
  C   C907      1.0  0.47128  0.47094  0.35605  1.0000
  H   H1576     1.0  0.49186  0.44589  0.31522  1.0000
  H   H1577     1.0  0.50424  0.43856  0.35923  1.0000
  H   H1578     1.0  0.47419  0.47238  0.39938  1.0000
  C   C908      1.0  0.35228  0.39740  0.01699  1.0000
  C   C909      1.0  0.39084  0.44991  0.43303  1.0000
  C   C910      1.0  0.40890  0.46204  0.42528  1.0000
  H   H1579     1.0  0.41367  0.42225  0.28475  1.0000
  H   H1580     1.0  0.43760  0.45545  0.02387  1.0000
  H   H1581     1.0  0.41893  0.40560  0.33822  1.0000
  Fe  Fe138     1.0  0.34965  0.39105  0.19583  1.0000
  H   H1582     1.0  0.41194  0.46712  0.40442  1.0000
  H   H1583     1.0  0.37290  0.43461  0.46644  1.0000
  H   H1584     1.0  0.34850  0.35404  0.04036  1.0000
  H   H1585     1.0  0.40188  0.26486  0.41937  1.0000
  C   C911      1.0  0.53740  0.50824  0.13808  1.0000
  H   H1586     1.0  0.42665  0.39790  0.06185  1.0000
  C   C912      1.0  0.41449  0.43125  0.03988  1.0000
  H   H1587     1.0  0.40314  0.40005  0.07256  1.0000
  C   C913      1.0  0.41890  0.43668  0.36845  1.0000
  C   C914      1.0  0.37716  0.31748  0.23814  1.0000
  S   S283      1.0  0.47629  0.45180  0.48436  1.0000
  C   C915      1.0  0.37010  0.32783  0.13827  1.0000
  C   C916      1.0  0.37034  0.33969  0.11594  1.0000
  C   C917      1.0  0.37371  0.33455  0.08969  1.0000
  C   C918      1.0  0.37748  0.31778  0.08581  1.0000
  C   C919      1.0  0.37829  0.30630  0.10822  1.0000
  C   C920      1.0  0.37439  0.31125  0.13449  1.0000
  C   C921      1.0  0.35315  0.39678  0.26451  1.0000
  H   H1588     1.0  0.40149  0.46362  0.32128  1.0000
  H   H1589     1.0  0.38106  0.29327  0.10523  1.0000
  H   H1590     1.0  0.37427  0.30206  0.15173  1.0000
  C   C922      1.0  0.44605  0.35906  0.25523  1.0000
  C   C923      1.0  0.46333  0.35653  0.24465  1.0000
  C   C924      1.0  0.47900  0.37172  0.23675  1.0000
  C   C925      1.0  0.47761  0.38961  0.23927  1.0000
  C   C926      1.0  0.46015  0.39216  0.24923  1.0000
  C   C927      1.0  0.44442  0.37693  0.25708  1.0000
  H   H1591     1.0  0.46472  0.34290  0.24260  1.0000
  H   H1592     1.0  0.49240  0.36960  0.22896  1.0000
  H   H1593     1.0  0.45888  0.40584  0.25132  1.0000
  H   H1594     1.0  0.43111  0.37905  0.26513  1.0000
  C   C928      1.0  0.45330  0.29954  0.38254  1.0000
  C   C929      1.0  0.46043  0.29673  0.40800  1.0000
  C   C930      1.0  0.45237  0.30182  0.43184  1.0000
  C   C931      1.0  0.43754  0.31035  0.43029  1.0000
  C   C932      1.0  0.43049  0.31327  0.40482  1.0000
  C   C933      1.0  0.43809  0.30759  0.38111  1.0000
  S   S284      1.0  0.39812  0.27428  0.01601  1.0000
  H   H1595     1.0  0.45803  0.29966  0.45134  1.0000
  H   H1596     1.0  0.41908  0.31993  0.40346  1.0000
  H   H1597     1.0  0.43250  0.30991  0.36174  1.0000
  C   C934      1.0  0.46500  0.28821  0.18252  1.0000
  C   C935      1.0  0.44724  0.28487  0.16984  1.0000
  C   C936      1.0  0.44679  0.28925  0.14177  1.0000
  C   C937      1.0  0.46409  0.29736  0.12657  1.0000
  C   C938      1.0  0.48160  0.30134  0.13966  1.0000
  C   C939      1.0  0.48208  0.29653  0.16725  1.0000
  C   C940      1.0  0.40064  0.45045  0.47973  1.0000
  H   H1598     1.0  0.43316  0.28624  0.13191  1.0000
  H   H1599     1.0  0.49500  0.30770  0.12819  1.0000
  H   H1600     1.0  0.49586  0.29894  0.17669  1.0000
  H   H1601     1.0  0.36798  0.29995  0.20399  1.0000
  C   C941      1.0  0.40475  0.43162  0.19754  1.0000
  H   H1602     1.0  0.39977  0.34611  0.46938  1.0000
  Fe  Fe139     1.0  0.35280  0.39145  0.13365  1.0000
  H   H1603     1.0  0.55156  0.48195  0.29082  1.0000
  C   C942      1.0  0.40553  0.41012  0.33989  1.0000
  H   H1604     1.0  0.42520  0.45178  0.36771  1.0000
  H   H1605     1.0  0.55736  0.49219  0.05952  1.0000
  S   S285      1.0  0.44195  0.27210  0.03025  1.0000
  H   H1606     1.0  0.37845  0.45821  0.33908  1.0000
  H   H1607     1.0  0.36655  0.34222  0.47039  1.0000
  C   C943      1.0  0.38534  0.26208  0.36728  1.0000
  H   H1608     1.0  0.36115  0.28958  0.30948  1.0000
  Fe  Fe140     1.0  0.35122  0.35717  0.16730  1.0000
  C   C944      1.0  0.35604  0.37776  0.06455  1.0000
  C   C945      1.0  0.35500  0.30886  0.27993  1.0000
  S   S286      1.0  0.42832  0.31843  0.45948  1.0000
  H   H1609     1.0  0.39534  0.38526  0.36596  1.0000
  H   H1610     1.0  0.50313  0.50733  0.09598  1.0000
  H   H1611     1.0  0.41371  0.41218  0.22353  1.0000
  H   H1612     1.0  0.40782  0.43393  0.38547  1.0000
  H   H1613     1.0  0.39107  0.31787  0.24757  1.0000
  H   H1614     1.0  0.36784  0.35280  0.11888  1.0000
  H   H1615     1.0  0.45179  0.40569  0.02970  1.0000
  C   C946      1.0  0.38519  0.37752  0.47648  1.0000
  C   C947      1.0  0.42422  0.43969  0.31914  1.0000
  H   H1616     1.0  0.55583  0.50918  0.47579  1.0000
  H   H1617     1.0  0.42196  0.45982  0.04995  1.0000
  N   N67       1.0  0.43462  0.34367  0.15202  1.0000
  C   C948      1.0  0.42082  0.32680  0.16546  1.0000
  C   C949      1.0  0.42738  0.34661  0.12430  1.0000
  C   C950      1.0  0.43565  0.36026  0.16825  1.0000
  C   C951      1.0  0.45449  0.34085  0.15007  1.0000
  C   C952      1.0  0.42454  0.32238  0.19515  1.0000
  C   C953      1.0  0.43003  0.33323  0.10269  1.0000
  C   C954      1.0  0.41609  0.36405  0.17506  1.0000
  C   C955      1.0  0.47056  0.35659  0.13592  1.0000
  H   H1618     1.0  0.40568  0.32765  0.16507  1.0000
  H   H1619     1.0  0.42093  0.31449  0.15410  1.0000
  H   H1620     1.0  0.43417  0.36070  0.11572  1.0000
  H   H1621     1.0  0.41165  0.34549  0.12569  1.0000
  H   H1622     1.0  0.44294  0.35950  0.18767  1.0000
  H   H1623     1.0  0.44491  0.37278  0.15719  1.0000
  H   H1624     1.0  0.45968  0.33888  0.17065  1.0000
  H   H1625     1.0  0.45433  0.32795  0.14024  1.0000
  H   H1626     1.0  0.43823  0.31856  0.19705  1.0000
  H   H1627     1.0  0.42431  0.33362  0.20863  1.0000
  H   H1628     1.0  0.41269  0.31038  0.20275  1.0000
  H   H1629     1.0  0.44550  0.33526  0.09672  1.0000
  H   H1630     1.0  0.42341  0.31876  0.10940  1.0000
  H   H1631     1.0  0.42273  0.33576  0.08406  1.0000
  H   H1632     1.0  0.40650  0.35310  0.18855  1.0000
  H   H1633     1.0  0.40841  0.36594  0.15655  1.0000
  H   H1634     1.0  0.41873  0.37687  0.18617  1.0000
  H   H1635     1.0  0.47797  0.36635  0.15098  1.0000
  H   H1636     1.0  0.46529  0.36427  0.11991  1.0000
  H   H1637     1.0  0.48134  0.35085  0.12550  1.0000
  H   H1638     1.0  0.39825  0.40580  0.32069  1.0000
  H   H1639     1.0  0.43750  0.43498  0.31978  1.0000
  C   C956      1.0  0.39132  0.43565  0.34007  1.0000
  S   S287      1.0  0.35990  0.40786  0.23215  1.0000
  H   H1640     1.0  0.53457  0.50393  0.28550  1.0000
  H   H1641     1.0  0.44094  0.43443  0.99400  1.0000
  H   H1642     1.0  0.38350  0.43000  0.32190  1.0000
  H   H1643     1.0  0.46218  0.48007  0.35523  1.0000
  H   H1644     1.0  0.43113  0.35726  0.48141  1.0000
  C   C957      1.0  0.35095  0.36870  0.04046  1.0000
  S   S288      1.0  0.52077  0.47771  0.47717  1.0000
  H   H1645     1.0  0.34028  0.33579  0.25764  1.0000
  H   H1646     1.0  0.39360  0.36780  0.26637  1.0000
  H   H1647     1.0  0.49321  0.27382  0.09685  1.0000
  C   C958      1.0  0.45148  0.42004  0.02596  1.0000
  C   C959      1.0  0.52572  0.49814  0.35440  1.0000
  C   C960      1.0  0.42235  0.45175  0.03174  1.0000
  C   C961      1.0  0.42294  0.46806  0.44450  1.0000
  H   H1648     1.0  0.39100  0.39477  0.02766  1.0000
  H   H1649     1.0  0.49790  0.50241  0.32408  1.0000
  C   C962      1.0  0.53192  0.49691  0.30587  1.0000
  H   H1650     1.0  0.42240  0.42890  0.05791  1.0000
  H   H1651     1.0  0.53906  0.49448  0.36000  1.0000
  H   H1652     1.0  0.38144  0.32754  0.22061  1.0000
  N   N68       1.0  0.41551  0.41829  0.01780  1.0000
  H   H1653     1.0  0.44707  0.43083  0.36143  1.0000
  C   C963      1.0  0.39188  0.39846  0.36266  1.0000
  S   S289      1.0  0.48554  0.49113  0.44851  1.0000
  H   H1654     1.0  0.53963  0.48170  0.03645  1.0000
  H   H1655     1.0  0.41326  0.45619  0.01672  1.0000
  H   H1656     1.0  0.37880  0.29568  0.28211  1.0000
  N   N69       1.0  0.36382  0.32330  0.25790  1.0000
  C   C964      1.0  0.37547  0.33986  0.27190  1.0000
  H   H1657     1.0  0.36005  0.42116  0.04131  1.0000
  C   C965      1.0  0.38557  0.35686  0.25342  1.0000
  H   H1658     1.0  0.42964  0.41364  0.38257  1.0000
  S   S290      1.0  0.36562  0.40818  0.09521  1.0000
  C   C966      1.0  0.36940  0.30116  0.29571  1.0000
  H   H1659     1.0  0.34333  0.32743  0.99364  1.0000
  C   C967      1.0  0.54862  0.48819  0.30994  1.0000
  H   H1660     1.0  0.37155  0.37231  0.46586  1.0000
  H   H1661     1.0  0.38718  0.33661  0.28336  1.0000
  S   S291      1.0  0.48446  0.49771  0.01629  1.0000
  C   C968      1.0  0.41870  0.46261  0.47188  1.0000
  H   H1662     1.0  0.47219  0.29051  0.40933  1.0000
  H   H1663     1.0  0.38907  0.42303  0.00331  1.0000
  C   C969      1.0  0.38305  0.34188  0.99310  1.0000
  H   H1664     1.0  0.45743  0.26305  0.10082  1.0000
  H   H1665     1.0  0.40439  0.44202  0.28659  1.0000
  H   H1666     1.0  0.37528  0.36256  0.24239  1.0000
  H   H1667     1.0  0.33670  0.35438  0.29554  1.0000
  H   H1668     1.0  0.37843  0.31137  0.30879  1.0000
  H   H1669     1.0  0.53957  0.49801  0.15338  1.0000
  C   C970      1.0  0.34996  0.39845  0.31371  1.0000
  H   H1670     1.0  0.37245  0.33502  0.00975  1.0000
  S   S292      1.0  0.33863  0.36780  0.34873  1.0000
  H   H1671     1.0  0.42935  0.45469  0.32156  1.0000
  S   S293      1.0  0.55520  0.49750  0.23326  1.0000
  C   C971      1.0  0.43519  0.42844  0.37717  1.0000
  N   N70       1.0  0.52888  0.50927  0.32781  1.0000
  N   N71       1.0  0.47871  0.36247  0.33323  1.0000
  C   C972      1.0  0.47743  0.37865  0.31553  1.0000
  C   C973      1.0  0.46139  0.34678  0.32777  1.0000
  C   C974      1.0  0.49717  0.35795  0.32484  1.0000
  C   C975      1.0  0.47895  0.36788  0.36237  1.0000
  C   C976      1.0  0.49503  0.39575  0.31490  1.0000
  C   C977      1.0  0.44148  0.34934  0.33590  1.0000
  C   C978      1.0  0.49840  0.33843  0.33188  1.0000
  C   C979      1.0  0.47780  0.35282  0.38459  1.0000
  H   H1672     1.0  0.47532  0.37471  0.29414  1.0000
  H   H1673     1.0  0.46471  0.38337  0.32173  1.0000
  H   H1674     1.0  0.46191  0.33382  0.33811  1.0000
  H   H1675     1.0  0.46132  0.34392  0.30576  1.0000
  H   H1676     1.0  0.49980  0.35980  0.30234  1.0000
  H   H1677     1.0  0.50987  0.36753  0.33370  1.0000
  H   H1678     1.0  0.49245  0.37874  0.36589  1.0000
  H   H1679     1.0  0.46734  0.37452  0.36715  1.0000
  H   H1680     1.0  0.49220  0.40638  0.30089  1.0000
  H   H1681     1.0  0.49743  0.40177  0.33506  1.0000
  H   H1682     1.0  0.50843  0.39301  0.30674  1.0000
  H   H1683     1.0  0.44008  0.35151  0.35791  1.0000
  H   H1684     1.0  0.43820  0.36049  0.32366  1.0000
  H   H1685     1.0  0.43011  0.33669  0.33168  1.0000
  H   H1686     1.0  0.49503  0.33416  0.35353  1.0000
  H   H1687     1.0  0.51338  0.33778  0.32721  1.0000
  H   H1688     1.0  0.48888  0.32828  0.31917  1.0000
  H   H1689     1.0  0.49248  0.35223  0.38991  1.0000
  H   H1690     1.0  0.46925  0.33913  0.37929  1.0000
  H   H1691     1.0  0.47025  0.35578  0.40317  1.0000
  C   C980      1.0  0.42762  0.48300  0.18058  1.0000
  H   H1692     1.0  0.41492  0.46434  0.21412  1.0000
  H   H1693     1.0  0.43760  0.49279  0.19332  1.0000
  H   H1694     1.0  0.38721  0.39242  0.47826  1.0000
  H   H1695     1.0  0.40562  0.37883  0.06157  1.0000
  H   H1696     1.0  0.41451  0.48781  0.17865  1.0000
  H   H1697     1.0  0.43909  0.44437  0.16338  1.0000
  H   H1698     1.0  0.52136  0.48791  0.11202  1.0000
  H   H1699     1.0  0.34442  0.29692  0.27211  1.0000
  H   H1700     1.0  0.45029  0.42645  0.04544  1.0000
  C   C981      1.0  0.35487  0.40712  0.28773  1.0000
  C   C982      1.0  0.42288  0.46371  0.19455  1.0000
  H   H1701     1.0  0.38852  0.46114  0.18219  1.0000
  C   C983      1.0  0.35755  0.40651  0.04112  1.0000
  C   C984      1.0  0.48491  0.26446  0.08206  1.0000
  H   H1702     1.0  0.43698  0.46162  0.20026  1.0000
  H   H1703     1.0  0.43506  0.48387  0.16037  1.0000
  H   H1704     1.0  0.42972  0.42484  0.12880  1.0000
  H   H1705     1.0  0.42537  0.26999  0.40449  1.0000
  H   H1706     1.0  0.39532  0.43449  0.21421  1.0000
  H   H1707     1.0  0.39913  0.46276  0.14870  1.0000
  C   C985      1.0  0.41730  0.42908  0.13754  1.0000
  H   H1708     1.0  0.39965  0.46265  0.35813  1.0000
  C   C986      1.0  0.39456  0.45341  0.16706  1.0000
  H   H1709     1.0  0.43054  0.42125  0.19570  1.0000
  H   H1710     1.0  0.36628  0.34426  0.28739  1.0000
  H   H1711     1.0  0.51519  0.49419  0.05882  1.0000
  H   H1712     1.0  0.39923  0.42881  0.04766  1.0000
  N   N72       1.0  0.41165  0.44814  0.17827  1.0000
  H   H1713     1.0  0.36908  0.43035  0.17811  1.0000
  H   H1714     1.0  0.40819  0.41673  0.14872  1.0000
  Fe  Fe141     1.0  0.50889  0.50189  0.47808  1.0000
  H   H1715     1.0  0.43671  0.47760  0.43836  1.0000
  C   C987      1.0  0.53075  0.50161  0.06053  1.0000
  C   C988      1.0  0.37700  0.43781  0.15958  1.0000
  C   C989      1.0  0.53476  0.49954  0.11019  1.0000
  H   H1716     1.0  0.51849  0.48555  0.30402  1.0000
  C   C990      1.0  0.42066  0.42481  0.21091  1.0000
  H   H1717     1.0  0.39543  0.41975  0.18769  1.0000
  H   H1718     1.0  0.38079  0.42804  0.14597  1.0000
  H   H1719     1.0  0.42900  0.43486  0.22478  1.0000
  C   C991      1.0  0.38685  0.44382  0.46026  1.0000
  C   C992      1.0  0.39317  0.45628  0.33956  1.0000
  C   C993      1.0  0.42504  0.44532  0.15567  1.0000
  H   H1720     1.0  0.36666  0.44371  0.14880  1.0000
  C   C994      1.0  0.36970  0.29843  0.22618  1.0000
  C   C995      1.0  0.41111  0.39386  0.05773  1.0000
  Fe  Fe142     1.0  0.34795  0.41827  0.41469  1.0000
  H   H1721     1.0  0.44155  0.43514  0.39569  1.0000
  H   H1722     1.0  0.40182  0.35391  0.02513  1.0000
  H   H1723     1.0  0.50425  0.50751  0.37858  1.0000
  H   H1724     1.0  0.42882  0.44455  0.27554  1.0000
  H   H1725     1.0  0.41182  0.38920  0.01489  1.0000
  H   H1726     1.0  0.40923  0.43293  0.12056  1.0000
  H   H1727     1.0  0.39635  0.35412  0.23885  1.0000
  H   H1728     1.0  0.37655  0.39565  0.35714  1.0000
  C   C996      1.0  0.41704  0.43676  0.29004  1.0000
  H   H1729     1.0  0.34636  0.31427  0.29503  1.0000
  H   H1730     1.0  0.38045  0.29059  0.22889  1.0000
  N   N73       1.0  0.40998  0.43051  0.34192  1.0000
  H   H1731     1.0  0.35584  0.28979  0.23520  1.0000
  C   C997      1.0  0.40333  0.42208  0.99513  1.0000
  H   H1732     1.0  0.39759  0.37588  0.46391  1.0000
  H   H1733     1.0  0.53550  0.47498  0.07141  1.0000
  S   S294      1.0  0.41105  0.27716  0.07968  1.0000
  C   C998      1.0  0.54164  0.48695  0.05716  1.0000
  S   S295      1.0  0.44205  0.26568  0.28926  1.0000
  Fe  Fe143     1.0  0.46689  0.47738  0.48507  1.0000
  C   C999      1.0  0.34364  0.37937  0.31658  1.0000
  H   H1734     1.0  0.48244  0.27329  0.06492  1.0000
  H   H1735     1.0  0.35971  0.42186  0.28558  1.0000
  H   H1736     1.0  0.56219  0.49835  0.31492  1.0000
  H   H1737     1.0  0.37331  0.34352  0.07237  1.0000
  H   H1738     1.0  0.43398  0.27811  0.18135  1.0000
  H   H1739     1.0  0.35768  0.37010  0.08268  1.0000
  C   C1000     1.0  0.43579  0.42124  0.00606  1.0000
  H   H1740     1.0  0.40819  0.33514  0.01106  1.0000
  H   H1741     1.0  0.37235  0.31220  0.48519  1.0000
  H   H1742     1.0  0.54464  0.47697  0.32585  1.0000
  H   H1743     1.0  0.37229  0.30621  0.99651  1.0000
  H   H1744     1.0  0.35087  0.40507  0.99874  1.0000
  H   H1745     1.0  0.42521  0.26309  0.45297  1.0000
  C   C1001     1.0  0.51951  0.50712  0.37943  1.0000
  H   H1746     1.0  0.34751  0.31149  0.48295  1.0000
  H   H1747     1.0  0.34511  0.36968  0.24984  1.0000
  C   C1002     1.0  0.34653  0.37775  0.26747  1.0000
  C   C1003     1.0  0.34191  0.36910  0.29338  1.0000
  H   H1748     1.0  0.52019  0.49861  0.39796  1.0000
  H   H1749     1.0  0.38575  0.27150  0.38399  1.0000
  H   H1750     1.0  0.46812  0.26143  0.14514  1.0000
  H   H1751     1.0  0.41589  0.26648  0.36110  1.0000
  H   H1752     1.0  0.33835  0.30751  0.21387  1.0000
  H   H1753     1.0  0.38520  0.26993  0.34792  1.0000
  C   C1004     1.0  0.40065  0.34499  0.49187  1.0000
  C   C1005     1.0  0.36549  0.33831  0.49246  1.0000
  Fe  Fe144     1.0  0.43821  0.27685  0.80773  1.0000
  S   S296      1.0  0.41077  0.28513  0.80419  1.0000
  S   S297      1.0  0.44622  0.26661  0.84847  1.0000
  Fe  Fe145     1.0  0.44496  0.27856  0.74530  1.0000
  S   S298      1.0  0.41799  0.28667  0.73849  1.0000
  H   H1754     1.0  0.37465  0.28103  0.63920  1.0000
  Fe  Fe146     1.0  0.42776  0.30591  0.77216  1.0000
  S   S299      1.0  0.42565  0.33520  0.76652  1.0000
  H   H1755     1.0  0.38490  0.32797  0.53732  1.0000
  S   S300      1.0  0.45567  0.29876  0.77755  1.0000
  Fe  Fe147     1.0  0.34180  0.38120  0.63443  1.0000
  Fe  Fe148     1.0  0.43789  0.29569  0.55746  1.0000
  H   H1756     1.0  0.37107  0.37039  0.51610  1.0000
  S   S301      1.0  0.45953  0.30660  0.58919  1.0000
  C   C1006     1.0  0.53046  0.49528  0.61486  1.0000
  S   S302      1.0  0.40081  0.27703  0.50305  1.0000
  H   H1757     1.0  0.40966  0.34005  0.90743  1.0000
  Fe  Fe149     1.0  0.39593  0.28619  0.54467  1.0000
  S   S303      1.0  0.36613  0.28627  0.55917  1.0000
  H   H1758     1.0  0.43891  0.42721  0.63275  1.0000
  S   S304      1.0  0.41958  0.31231  0.53958  1.0000
  S   S305      1.0  0.44709  0.28810  0.51634  1.0000
  H   H1759     1.0  0.36502  0.32757  0.84104  1.0000
  S   S306      1.0  0.36232  0.37637  0.66513  1.0000
  S   S307      1.0  0.36191  0.32701  0.66707  1.0000
  H   H1760     1.0  0.39252  0.26909  0.64037  1.0000
  S   S308      1.0  0.39137  0.42988  0.89560  1.0000
  S   S309      1.0  0.36202  0.38249  0.91330  1.0000
  Fe  Fe150     1.0  0.49940  0.43435  0.73878  1.0000
  S   S310      1.0  0.47178  0.44235  0.73768  1.0000
  S   S311      1.0  0.49911  0.40468  0.74749  1.0000
  Fe  Fe151     1.0  0.52458  0.47496  0.73078  1.0000
  S   S312      1.0  0.49823  0.48496  0.72943  1.0000
  C   C1007     1.0  0.34680  0.31068  0.62109  1.0000
  Fe  Fe152     1.0  0.48664  0.46476  0.76449  1.0000
  S   S313      1.0  0.47186  0.47199  0.80209  1.0000
  Fe  Fe153     1.0  0.48668  0.46143  0.70269  1.0000
  S   S314      1.0  0.47173  0.46596  0.66440  1.0000
  S   S315      1.0  0.51367  0.45593  0.76733  1.0000
  S   S316      1.0  0.51371  0.45224  0.70209  1.0000
  Fe  Fe154     1.0  0.49922  0.46612  0.51180  1.0000
  S   S317      1.0  0.50638  0.45205  0.54959  1.0000
  Fe  Fe155     1.0  0.50172  0.47956  0.95084  1.0000
  S   S318      1.0  0.51257  0.46881  0.91334  1.0000
  H   H1761     1.0  0.53254  0.50357  0.77789  1.0000
  H   H1762     1.0  0.52852  0.50124  0.63463  1.0000
  C   C1008     1.0  0.38401  0.36846  0.50518  1.0000
  H   H1763     1.0  0.34740  0.31011  0.80548  1.0000
  C   C1009     1.0  0.48189  0.46232  0.63279  1.0000
  C   C1010     1.0  0.49407  0.45094  0.63065  1.0000
  C   C1011     1.0  0.50142  0.44784  0.60503  1.0000
  C   C1012     1.0  0.49667  0.45609  0.58138  1.0000
  C   C1013     1.0  0.48451  0.46748  0.58356  1.0000
  C   C1014     1.0  0.47714  0.47056  0.60915  1.0000
  H   H1764     1.0  0.49758  0.44428  0.64868  1.0000
  H   H1765     1.0  0.51077  0.43896  0.60355  1.0000
  H   H1766     1.0  0.42665  0.43956  0.65321  1.0000
  H   H1767     1.0  0.37953  0.35492  0.98794  1.0000
  C   C1015     1.0  0.48213  0.47004  0.83368  1.0000
  C   C1016     1.0  0.49606  0.46056  0.83641  1.0000
  C   C1017     1.0  0.50487  0.45990  0.86117  1.0000
  C   C1018     1.0  0.49966  0.46849  0.88363  1.0000
  C   C1019     1.0  0.48500  0.47721  0.88148  1.0000
  C   C1020     1.0  0.47625  0.47797  0.85650  1.0000
  H   H1768     1.0  0.50006  0.45363  0.81955  1.0000
  H   H1769     1.0  0.51592  0.45282  0.86288  1.0000
  H   H1770     1.0  0.48069  0.48368  0.89882  1.0000
  H   H1771     1.0  0.46516  0.48500  0.85478  1.0000
  C   C1021     1.0  0.40344  0.44566  0.91890  1.0000
  C   C1022     1.0  0.42365  0.45224  0.91652  1.0000
  C   C1023     1.0  0.43380  0.46468  0.93479  1.0000
  C   C1024     1.0  0.33945  0.26969  0.67731  1.0000
  S   S319      1.0  0.43262  0.30200  0.95997  1.0000
  C   C1025     1.0  0.38209  0.31141  0.97832  1.0000
  H   H1772     1.0  0.43154  0.44779  0.90043  1.0000
  H   H1773     1.0  0.44940  0.46964  0.93271  1.0000
  Fe  Fe156     1.0  0.42124  0.26376  0.52276  1.0000
  C   C1026     1.0  0.37296  0.31215  0.76506  1.0000
  C   C1027     1.0  0.54832  0.50774  0.59892  1.0000
  C   C1028     1.0  0.35230  0.38498  0.81469  1.0000
  C   C1029     1.0  0.34452  0.32343  0.75344  1.0000
  H   H1774     1.0  0.39013  0.34654  0.77172  1.0000
  S   S320      1.0  0.41372  0.27015  0.56526  1.0000
  H   H1775     1.0  0.38657  0.31534  0.77613  1.0000
  H   H1776     1.0  0.39565  0.46980  0.97294  1.0000
  C   C1030     1.0  0.36352  0.31796  0.63515  1.0000
  H   H1777     1.0  0.42972  0.27620  0.67695  1.0000
  H   H1778     1.0  0.35298  0.41576  0.54276  1.0000
  C   C1031     1.0  0.36557  0.29956  0.58731  1.0000
  C   C1032     1.0  0.38246  0.30761  0.60063  1.0000
  C   C1033     1.0  0.38140  0.31666  0.62470  1.0000
  C   C1034     1.0  0.46265  0.35190  0.63006  1.0000
  C   C1035     1.0  0.42094  0.35651  0.49913  1.0000
  H   H1779     1.0  0.39622  0.30624  0.59304  1.0000
  H   H1780     1.0  0.39435  0.32234  0.63548  1.0000
  C   C1036     1.0  0.44605  0.35478  0.76373  1.0000
  C   C1037     1.0  0.46471  0.35365  0.76853  1.0000
  C   C1038     1.0  0.48069  0.36923  0.76443  1.0000
  C   C1039     1.0  0.47827  0.38609  0.75528  1.0000
  C   C1040     1.0  0.45953  0.38734  0.75114  1.0000
  C   C1041     1.0  0.44352  0.37178  0.75545  1.0000
  H   H1781     1.0  0.46693  0.34074  0.77514  1.0000
  H   H1782     1.0  0.49510  0.36810  0.76777  1.0000
  H   H1783     1.0  0.45744  0.40019  0.74400  1.0000
  H   H1784     1.0  0.42915  0.37284  0.75167  1.0000
  C   C1042     1.0  0.44142  0.27605  0.87942  1.0000
  C   C1043     1.0  0.44402  0.26755  0.90425  1.0000
  C   C1044     1.0  0.44072  0.27493  0.92919  1.0000
  C   C1045     1.0  0.43521  0.29112  0.92946  1.0000
  C   C1046     1.0  0.43245  0.29951  0.90465  1.0000
  C   C1047     1.0  0.43534  0.29192  0.87976  1.0000
  Fe  Fe157     1.0  0.40457  0.26499  0.77108  1.0000
  H   H1785     1.0  0.44314  0.26850  0.94814  1.0000
  H   H1786     1.0  0.42834  0.31211  0.90464  1.0000
  H   H1787     1.0  0.43340  0.29865  0.86082  1.0000
  C   C1048     1.0  0.46077  0.28336  0.67595  1.0000
  C   C1049     1.0  0.47770  0.29082  0.65997  1.0000
  C   C1050     1.0  0.47690  0.29757  0.63341  1.0000
  C   C1051     1.0  0.45913  0.29633  0.62193  1.0000
  C   C1052     1.0  0.44196  0.28853  0.63760  1.0000
  C   C1053     1.0  0.44282  0.28225  0.66478  1.0000
  H   H1788     1.0  0.41278  0.41951  0.63808  1.0000
  H   H1789     1.0  0.49021  0.30376  0.62163  1.0000
  H   H1790     1.0  0.42818  0.28782  0.62898  1.0000
  C   C1054     1.0  0.34619  0.38970  0.56486  1.0000
  C   C1055     1.0  0.42365  0.33078  0.68066  1.0000
  Fe  Fe158     1.0  0.46818  0.48875  0.97886  1.0000
  H   H1791     1.0  0.53787  0.48319  0.83327  1.0000
  H   H1792     1.0  0.38210  0.32141  0.81895  1.0000
  C   C1056     1.0  0.34778  0.40109  0.54142  1.0000
  C   C1057     1.0  0.38835  0.28278  0.67689  1.0000
  H   H1793     1.0  0.39234  0.34581  0.57609  1.0000
  C   C1058     1.0  0.33977  0.37078  0.56280  1.0000
  H   H1794     1.0  0.47070  0.38197  0.65780  1.0000
  N   N74       1.0  0.38338  0.34852  0.50643  1.0000
  H   H1795     1.0  0.38970  0.36625  0.73344  1.0000
  H   H1796     1.0  0.53796  0.50561  0.53075  1.0000
  H   H1797     1.0  0.43999  0.42456  0.53432  1.0000
  C   C1059     1.0  0.38017  0.27164  0.65223  1.0000
  C   C1060     1.0  0.40349  0.46479  0.95731  1.0000
  H   H1798     1.0  0.54655  0.47934  0.52601  1.0000
  H   H1799     1.0  0.45080  0.35835  0.63270  1.0000
  H   H1800     1.0  0.45259  0.31640  0.69628  1.0000
  N   N75       1.0  0.38123  0.33015  0.96867  1.0000
  H   H1801     1.0  0.41142  0.33593  0.95527  1.0000
  H   H1802     1.0  0.40380  0.29001  0.67220  1.0000
  H   H1803     1.0  0.51392  0.50226  0.84753  1.0000
  H   H1804     1.0  0.40521  0.46654  0.58206  1.0000
  H   H1805     1.0  0.34270  0.30581  0.97905  1.0000
  C   C1061     1.0  0.39340  0.35373  0.55647  1.0000
  H   H1806     1.0  0.34355  0.40246  0.49828  1.0000
  H   H1807     1.0  0.36482  0.35631  0.72784  1.0000
  H   H1808     1.0  0.34885  0.28308  0.66936  1.0000
  C   C1062     1.0  0.38138  0.34129  0.53566  1.0000
  N   N76       1.0  0.43422  0.41468  0.82797  1.0000
  C   C1063     1.0  0.44817  0.40393  0.82024  1.0000
  C   C1064     1.0  0.41545  0.40142  0.83843  1.0000
  C   C1065     1.0  0.44188  0.42768  0.84986  1.0000
  C   C1066     1.0  0.43142  0.42566  0.80321  1.0000
  C   C1067     1.0  0.46941  0.41510  0.81415  1.0000
  C   C1068     1.0  0.40349  0.38960  0.81692  1.0000
  C   C1069     1.0  0.44664  0.41892  0.87645  1.0000
  C   C1070     1.0  0.41713  0.43733  0.80693  1.0000
  H   H1809     1.0  0.44825  0.39330  0.83625  1.0000
  H   H1810     1.0  0.44351  0.39621  0.80180  1.0000
  H   H1811     1.0  0.40594  0.40848  0.84918  1.0000
  H   H1812     1.0  0.41816  0.39177  0.85426  1.0000
  H   H1813     1.0  0.45500  0.43838  0.84228  1.0000
  H   H1814     1.0  0.43132  0.43531  0.85559  1.0000
  H   H1815     1.0  0.44533  0.43552  0.79607  1.0000
  H   H1816     1.0  0.42734  0.41703  0.78543  1.0000
  H   H1817     1.0  0.47787  0.40573  0.80747  1.0000
  H   H1818     1.0  0.47099  0.42559  0.79748  1.0000
  H   H1819     1.0  0.47626  0.42158  0.83244  1.0000
  H   H1820     1.0  0.39075  0.37965  0.82726  1.0000
  H   H1821     1.0  0.39785  0.39798  0.80222  1.0000
  H   H1822     1.0  0.41183  0.38164  0.80589  1.0000
  H   H1823     1.0  0.45395  0.42996  0.88979  1.0000
  H   H1824     1.0  0.45668  0.41046  0.87312  1.0000
  H   H1825     1.0  0.43327  0.41072  0.88768  1.0000
  H   H1826     1.0  0.42492  0.45131  0.81278  1.0000
  H   H1827     1.0  0.40530  0.43149  0.82231  1.0000
  H   H1828     1.0  0.41000  0.43835  0.78754  1.0000
  N   N77       1.0  0.42280  0.43579  0.58257  1.0000
  C   C1071     1.0  0.42308  0.44390  0.61013  1.0000
  C   C1072     1.0  0.42248  0.45056  0.56154  1.0000
  C   C1073     1.0  0.44096  0.42962  0.57863  1.0000
  C   C1074     1.0  0.40499  0.41979  0.58207  1.0000
  H   H1829     1.0  0.34563  0.33280  0.80364  1.0000
  S   S321      1.0  0.35186  0.39946  0.59648  1.0000
  C   C1075     1.0  0.45020  0.43124  0.54956  1.0000
  C   C1076     1.0  0.40097  0.41074  0.55467  1.0000
  H   H1830     1.0  0.43495  0.45686  0.61048  1.0000
  H   H1831     1.0  0.40945  0.44757  0.61479  1.0000
  H   H1832     1.0  0.42258  0.44559  0.54069  1.0000
  H   H1833     1.0  0.36009  0.39159  0.83162  1.0000
  H   H1834     1.0  0.45280  0.43770  0.59080  1.0000
  H   H1835     1.0  0.43854  0.41525  0.58642  1.0000
  H   H1836     1.0  0.40573  0.40875  0.59697  1.0000
  H   H1837     1.0  0.39186  0.42379  0.58866  1.0000
  S   S322      1.0  0.35125  0.39582  0.73382  1.0000
  S   S323      1.0  0.43636  0.48663  0.97831  1.0000
  H   H1838     1.0  0.40888  0.35882  0.55024  1.0000
  S   S324      1.0  0.52089  0.48678  0.98619  1.0000
  C   C1077     1.0  0.34781  0.30136  0.59732  1.0000
  H   H1839     1.0  0.56381  0.48236  0.58305  1.0000
  S   S325      1.0  0.49234  0.50526  0.95050  1.0000
  Fe  Fe159     1.0  0.34074  0.37971  0.69699  1.0000
  C   C1078     1.0  0.42550  0.43159  0.63458  1.0000
  C   C1079     1.0  0.55236  0.48411  0.56940  1.0000
  Fe  Fe160     1.0  0.34437  0.34725  0.66601  1.0000
  H   H1840     1.0  0.38771  0.27471  0.69609  1.0000
  Fe  Fe161     1.0  0.42611  0.30194  0.49915  1.0000
  C   C1080     1.0  0.36068  0.31725  0.49440  1.0000
  C   C1081     1.0  0.46447  0.33928  0.65431  1.0000
  H   H1841     1.0  0.45669  0.44578  0.54286  1.0000
  S   S326      1.0  0.47654  0.46266  0.97675  1.0000
  Fe  Fe162     1.0  0.36148  0.41160  0.90714  1.0000
  H   H1842     1.0  0.37179  0.28289  0.96849  1.0000
  H   H1843     1.0  0.53875  0.47421  0.57755  1.0000
  H   H1844     1.0  0.36606  0.33833  0.54356  1.0000
  C   C1082     1.0  0.39791  0.33900  0.94878  1.0000
  H   H1845     1.0  0.47938  0.33785  0.65219  1.0000
  H   H1846     1.0  0.38760  0.39921  0.55718  1.0000
  H   H1847     1.0  0.38133  0.29386  0.67994  1.0000
  H   H1848     1.0  0.49139  0.33927  0.71694  1.0000
  H   H1849     1.0  0.49161  0.29162  0.66833  1.0000
  H   H1850     1.0  0.42635  0.35012  0.51660  1.0000
  H   H1851     1.0  0.33797  0.42647  0.79442  1.0000
  S   S327      1.0  0.55499  0.49483  0.72825  1.0000
  H   H1852     1.0  0.40096  0.35416  0.94848  1.0000
  H   H1853     1.0  0.54995  0.48358  0.78580  1.0000
  S   S328      1.0  0.34102  0.41088  0.94296  1.0000
  H   H1854     1.0  0.38494  0.34015  0.90914  1.0000
  C   C1083     1.0  0.36220  0.32979  0.95647  1.0000
  S   S329      1.0  0.33776  0.40519  0.87747  1.0000
  H   H1855     1.0  0.48706  0.26372  0.61189  1.0000
  H   H1856     1.0  0.39337  0.31883  0.72967  1.0000
  H   H1857     1.0  0.57181  0.48353  0.53396  1.0000
  C   C1084     1.0  0.39559  0.33409  0.91876  1.0000
  C   C1085     1.0  0.35571  0.32441  0.79957  1.0000
  C   C1086     1.0  0.34234  0.39360  0.51625  1.0000
  S   S330      1.0  0.34262  0.36641  0.98689  1.0000
  H   H1858     1.0  0.40614  0.46842  0.54599  1.0000
  C   C1087     1.0  0.55665  0.47722  0.54143  1.0000
  H   H1859     1.0  0.36701  0.40636  0.78527  1.0000
  H   H1860     1.0  0.46226  0.42477  0.54951  1.0000
  C   C1088     1.0  0.33845  0.36808  0.81889  1.0000
  H   H1861     1.0  0.57104  0.50236  0.79145  1.0000
  H   H1862     1.0  0.42474  0.32583  0.65998  1.0000
  H   H1863     1.0  0.51596  0.48981  0.80246  1.0000
  H   H1864     1.0  0.38245  0.34402  0.72038  1.0000
  H   H1865     1.0  0.37981  0.34452  0.81791  1.0000
  H   H1866     1.0  0.34629  0.26147  0.62741  1.0000
  Fe  Fe163     1.0  0.33708  0.37605  0.88596  1.0000
  H   H1867     1.0  0.40989  0.33467  0.68235  1.0000
  C   C1089     1.0  0.37542  0.34543  0.76437  1.0000
  C   C1090     1.0  0.55988  0.49060  0.80119  1.0000
  H   H1868     1.0  0.45769  0.26453  0.58910  1.0000
  H   H1869     1.0  0.52186  0.49174  0.55591  1.0000
  H   H1870     1.0  0.39662  0.31199  0.98585  1.0000
  H   H1871     1.0  0.35252  0.34190  0.50078  1.0000
  H   H1872     1.0  0.48052  0.47375  0.56561  1.0000
  H   H1873     1.0  0.36991  0.35543  0.77590  1.0000
  C   C1091     1.0  0.37181  0.32983  0.82017  1.0000
  N   N78       1.0  0.36231  0.32629  0.76991  1.0000
  H   H1874     1.0  0.56127  0.50697  0.61016  1.0000
  C   C1092     1.0  0.39335  0.45186  0.93949  1.0000
  H   H1875     1.0  0.39721  0.44632  0.50092  1.0000
  H   H1876     1.0  0.55900  0.49970  0.84187  1.0000
  H   H1877     1.0  0.42199  0.37089  0.50300  1.0000
  H   H1878     1.0  0.46777  0.47941  0.61064  1.0000
  C   C1093     1.0  0.42376  0.47109  0.95515  1.0000
  H   H1879     1.0  0.51702  0.49384  0.60389  1.0000
  C   C1094     1.0  0.37810  0.35312  0.73469  1.0000
  C   C1095     1.0  0.34636  0.38479  0.76629  1.0000
  H   H1880     1.0  0.45565  0.33186  0.72281  1.0000
  H   H1881     1.0  0.37774  0.44703  0.94130  1.0000
  C   C1096     1.0  0.40509  0.45863  0.56360  1.0000
  H   H1882     1.0  0.40068  0.33054  0.49559  1.0000
  H   H1883     1.0  0.56746  0.48065  0.80868  1.0000
  H   H1884     1.0  0.36031  0.32283  0.93701  1.0000
  C   C1097     1.0  0.52478  0.50408  0.79757  1.0000
  H   H1885     1.0  0.39623  0.37691  0.51613  1.0000
  H   H1886     1.0  0.34813  0.32593  0.73135  1.0000
  H   H1887     1.0  0.37932  0.29526  0.73357  1.0000
  H   H1888     1.0  0.53229  0.48156  0.61972  1.0000
  S   S331      1.0  0.46297  0.27442  0.70884  1.0000
  C   C1098     1.0  0.48199  0.32754  0.70673  1.0000
  H   H1889     1.0  0.49030  0.36209  0.68085  1.0000
  H   H1890     1.0  0.38746  0.36540  0.56058  1.0000
  C   C1099     1.0  0.47259  0.38070  0.67983  1.0000
  S   S332      1.0  0.48888  0.49105  0.51449  1.0000
  C   C1100     1.0  0.53382  0.50460  0.55285  1.0000
  H   H1891     1.0  0.46019  0.38333  0.69131  1.0000
  C   C1101     1.0  0.39921  0.40816  0.97251  1.0000
  H   H1892     1.0  0.36484  0.29849  0.77417  1.0000
  H   H1893     1.0  0.35729  0.31166  0.51562  1.0000
  H   H1894     1.0  0.39075  0.39432  0.98020  1.0000
  H   H1895     1.0  0.39107  0.44808  0.56250  1.0000
  H   H1896     1.0  0.39164  0.31925  0.91593  1.0000
  H   H1897     1.0  0.39830  0.42021  0.53866  1.0000
  H   H1898     1.0  0.48553  0.39183  0.68463  1.0000
  H   H1899     1.0  0.47700  0.36296  0.71136  1.0000
  N   N79       1.0  0.55068  0.50343  0.56956  1.0000
  H   H1900     1.0  0.36844  0.31142  0.72049  1.0000
  H   H1901     1.0  0.42244  0.31956  0.69609  1.0000
  Fe  Fe164     1.0  0.34020  0.38131  0.94730  1.0000
  H   H1902     1.0  0.48928  0.32528  0.68760  1.0000
  H   H1903     1.0  0.47652  0.36256  0.62540  1.0000
  H   H1904     1.0  0.41263  0.40753  0.96145  1.0000
  H   H1905     1.0  0.45532  0.32533  0.65074  1.0000
  C   C1102     1.0  0.44061  0.34758  0.68589  1.0000
  C   C1103     1.0  0.46164  0.32988  0.70241  1.0000
  H   H1906     1.0  0.43828  0.35167  0.70691  1.0000
  C   C1104     1.0  0.47574  0.36223  0.68905  1.0000
  H   H1907     1.0  0.48053  0.31528  0.72037  1.0000
  C   C1105     1.0  0.37806  0.29632  0.95753  1.0000
  H   H1908     1.0  0.33913  0.36184  0.58041  1.0000
  C   C1106     1.0  0.37884  0.30958  0.73546  1.0000
  H   H1909     1.0  0.55469  0.46225  0.54350  1.0000
  N   N80       1.0  0.46057  0.34502  0.68237  1.0000
  H   H1910     1.0  0.45896  0.34360  0.61190  1.0000
  H   H1911     1.0  0.43585  0.46217  0.56219  1.0000
  H   H1912     1.0  0.39023  0.41265  0.95730  1.0000
  H   H1913     1.0  0.43873  0.35892  0.67264  1.0000
  C   C1107     1.0  0.35628  0.39328  0.78843  1.0000
  H   H1914     1.0  0.36170  0.34397  0.95106  1.0000
  H   H1915     1.0  0.36725  0.29741  0.94271  1.0000
  C   C1108     1.0  0.54871  0.49595  0.82530  1.0000
  H   H1916     1.0  0.41270  0.40490  0.54800  1.0000
  H   H1917     1.0  0.39165  0.29590  0.94659  1.0000
  S   S333      1.0  0.43517  0.47191  0.49673  1.0000
  C   C1109     1.0  0.34396  0.32044  0.97446  1.0000
  H   H1918     1.0  0.53576  0.50972  0.86380  1.0000
  H   H1919     1.0  0.41031  0.43554  0.98467  1.0000
  H   H1920     1.0  0.43612  0.41101  0.99069  1.0000
  H   H1921     1.0  0.50211  0.50988  0.77402  1.0000
  H   H1922     1.0  0.33666  0.33363  0.75850  1.0000
  N   N81       1.0  0.53888  0.51070  0.81943  1.0000
  H   H1923     1.0  0.41411  0.35695  0.99243  1.0000
  Fe  Fe165     1.0  0.60966  0.60377  0.23891  1.0000
  S   S334      1.0  0.63649  0.59444  0.24032  1.0000
  S   S335      1.0  0.57948  0.58473  0.23337  1.0000
  Fe  Fe166     1.0  0.63314  0.64438  0.24274  1.0000
  H   H1924     1.0  0.56234  0.54984  0.30560  1.0000
  S   S336      1.0  0.63176  0.67384  0.24182  1.0000
  Fe  Fe167     1.0  0.65006  0.61860  0.21192  1.0000
  C   C1110     1.0  0.59379  0.54587  0.48850  1.0000
  Fe  Fe168     1.0  0.64487  0.61431  0.27347  1.0000
  C   C1111     1.0  0.64312  0.73524  0.15833  1.0000
  S   S337      1.0  0.62262  0.62665  0.20782  1.0000
  S   S338      1.0  0.61720  0.62242  0.27387  1.0000
  C   C1112     1.0  0.60904  0.57646  0.37519  1.0000
  C   C1113     1.0  0.58356  0.52786  0.48331  1.0000
  C   C1114     1.0  0.54595  0.52583  0.33014  1.0000
  Fe  Fe169     1.0  0.64862  0.62440  0.02776  1.0000
  S   S339      1.0  0.64291  0.64042  0.06318  1.0000
  Fe  Fe170     1.0  0.64938  0.61710  0.46432  1.0000
  S   S340      1.0  0.64263  0.63191  0.42698  1.0000
  C   C1115     1.0  0.56348  0.52308  0.47989  1.0000
  H   H1925     1.0  0.63626  0.70381  0.18400  1.0000
  H   H1926     1.0  0.61142  0.72457  0.16537  1.0000
  C   C1116     1.0  0.56463  0.56122  0.00914  1.0000
  C   C1117     1.0  0.58638  0.59526  0.43673  1.0000
  H   H1927     1.0  0.60843  0.60570  0.40505  1.0000
  H   H1928     1.0  0.65430  0.74748  0.10671  1.0000
  H   H1929     1.0  0.63138  0.64087  0.37421  1.0000
  H   H1930     1.0  0.58367  0.57835  0.35203  1.0000
  C   C1118     1.0  0.55345  0.53633  0.48141  1.0000
  H   H1931     1.0  0.54148  0.53655  0.34125  1.0000
  H   H1932     1.0  0.58516  0.59627  0.39362  1.0000
  N   N82       1.0  0.60074  0.57627  0.40384  1.0000
  C   C1119     1.0  0.51628  0.51900  0.09153  1.0000
  H   H1933     1.0  0.63063  0.67279  0.16807  1.0000
  H   H1934     1.0  0.52265  0.54430  0.06524  1.0000
  S   S341      1.0  0.66121  0.60070  0.03264  1.0000
  H   H1935     1.0  0.62368  0.75628  0.31216  1.0000
  C   C1120     1.0  0.65213  0.69296  0.23538  1.0000
  C   C1121     1.0  0.64951  0.71047  0.23643  1.0000
  H   H1936     1.0  0.63698  0.56073  0.43474  1.0000
  S   S342      1.0  0.52830  0.53108  0.47667  1.0000
  C   C1122     1.0  0.59545  0.59377  0.40845  1.0000
  C   C1123     1.0  0.64127  0.68423  0.15654  1.0000
  H   H1937     1.0  0.63528  0.71193  0.24136  1.0000
  H   H1938     1.0  0.65565  0.68447  0.16414  1.0000
  C   C1124     1.0  0.59945  0.58452  0.35218  1.0000
  H   H1939     1.0  0.55603  0.56469  0.48776  1.0000
  C   C1125     1.0  0.65447  0.61346  0.34225  1.0000
  H   H1940     1.0  0.49768  0.53413  0.07408  1.0000
  H   H1941     1.0  0.62051  0.74882  0.16295  1.0000
  C   C1126     1.0  0.64789  0.62510  0.39444  1.0000
  C   C1127     1.0  0.64011  0.63151  0.37167  1.0000
  C   C1128     1.0  0.64333  0.62567  0.34563  1.0000
  H   H1942     1.0  0.56192  0.57173  0.39262  1.0000
  N   N83       1.0  0.64837  0.71918  0.14651  1.0000
  H   H1943     1.0  0.59121  0.51753  0.48200  1.0000
  H   H1944     1.0  0.63715  0.63056  0.32823  1.0000
  S   S343      1.0  0.66076  0.59269  0.46216  1.0000
  H   H1945     1.0  0.54788  0.53311  0.28538  1.0000
  H   H1946     1.0  0.63702  0.56697  0.16496  1.0000
  C   C1129     1.0  0.65203  0.63540  0.09423  1.0000
  C   C1130     1.0  0.64529  0.64124  0.11827  1.0000
  C   C1131     1.0  0.65117  0.63616  0.14349  1.0000
  H   H1947     1.0  0.62832  0.58846  0.42134  1.0000
  H   H1948     1.0  0.59160  0.52470  0.99626  1.0000
  H   H1949     1.0  0.63506  0.64927  0.11740  1.0000
  H   H1950     1.0  0.64592  0.64076  0.16187  1.0000
  C   C1132     1.0  0.56164  0.52175  0.23286  1.0000
  C   C1133     1.0  0.58096  0.53145  0.23682  1.0000
  C   C1134     1.0  0.58664  0.55069  0.23723  1.0000
  C   C1135     1.0  0.57305  0.56047  0.23359  1.0000
  C   C1136     1.0  0.55376  0.55078  0.22939  1.0000
  C   C1137     1.0  0.54807  0.53155  0.22899  1.0000
  H   H1951     1.0  0.59158  0.52402  0.23981  1.0000
  H   H1952     1.0  0.60152  0.55791  0.24052  1.0000
  H   H1953     1.0  0.54314  0.55822  0.22643  1.0000
  H   H1954     1.0  0.53318  0.52432  0.22579  1.0000
  H   H1955     1.0  0.64548  0.73545  0.18056  1.0000
  H   H1956     1.0  0.51989  0.53909  0.29509  1.0000
  H   H1957     1.0  0.62536  0.56491  0.19776  1.0000
  C   C1138     1.0  0.56395  0.53060  0.99724  1.0000
  H   H1958     1.0  0.66773  0.75549  0.37465  1.0000
  H   H1959     1.0  0.52430  0.51194  0.14536  1.0000
  H   H1960     1.0  0.64422  0.73410  0.07996  1.0000
  C   C1139     1.0  0.50986  0.52511  0.29578  1.0000
  C   C1140     1.0  0.58373  0.55910  0.49015  1.0000
  H   H1961     1.0  0.64252  0.75578  0.28818  1.0000
  H   H1962     1.0  0.63309  0.56034  0.39932  1.0000
  C   C1141     1.0  0.63321  0.74790  0.30535  1.0000
  H   H1963     1.0  0.62048  0.69957  0.15667  1.0000
  H   H1964     1.0  0.63002  0.58154  0.07737  1.0000
  H   H1965     1.0  0.50925  0.52404  0.04911  1.0000
  H   H1966     1.0  0.58233  0.60828  0.43711  1.0000
  H   H1967     1.0  0.61515  0.54615  0.42373  1.0000
  H   H1968     1.0  0.55273  0.54993  0.40841  1.0000
  H   H1969     1.0  0.61900  0.73662  0.13259  1.0000
  H   H1970     1.0  0.60900  0.56245  0.36958  1.0000
  C   C1142     1.0  0.62224  0.73605  0.15438  1.0000
  H   H1971     1.0  0.56523  0.55213  0.37557  1.0000
  H   H1972     1.0  0.64063  0.68089  0.13485  1.0000
  H   H1973     1.0  0.61089  0.57425  0.44459  1.0000
  C   C1143     1.0  0.55674  0.53487  0.30336  1.0000
  H   H1974     1.0  0.63454  0.73628  0.34557  1.0000
  H   H1975     1.0  0.58806  0.54700  0.40451  1.0000
  C   C1144     1.0  0.66511  0.72613  0.23116  1.0000
  C   C1145     1.0  0.63594  0.70215  0.16165  1.0000
  C   C1146     1.0  0.56511  0.55846  0.39546  1.0000
  C   C1147     1.0  0.51145  0.53102  0.06849  1.0000
  H   H1976     1.0  0.60579  0.58200  0.33232  1.0000
  H   H1977     1.0  0.62852  0.71308  0.11349  1.0000
  H   H1978     1.0  0.58040  0.55721  0.43212  1.0000
  C   C1148     1.0  0.64434  0.71747  0.11675  1.0000
  S   S344      1.0  0.66132  0.63751  0.24506  1.0000
  H   H1979     1.0  0.55174  0.53812  0.09931  1.0000
  H   H1980     1.0  0.57302  0.58404  0.44152  1.0000
  H   H1981     1.0  0.60269  0.59959  0.35316  1.0000
  N   N84       1.0  0.60669  0.58202  0.14107  1.0000
  C   C1149     1.0  0.62276  0.58210  0.12049  1.0000
  C   C1150     1.0  0.61486  0.58174  0.16884  1.0000
  C   C1151     1.0  0.60129  0.59960  0.13642  1.0000
  C   C1152     1.0  0.58977  0.56562  0.13693  1.0000
  C   C1153     1.0  0.61850  0.58463  0.09031  1.0000
  C   C1154     1.0  0.62282  0.56539  0.17569  1.0000
  C   C1155     1.0  0.58544  0.60290  0.15562  1.0000
  C   C1156     1.0  0.57524  0.55861  0.16141  1.0000
  H   H1982     1.0  0.63609  0.59304  0.12452  1.0000
  H   H1983     1.0  0.62687  0.56909  0.12213  1.0000
  H   H1984     1.0  0.60419  0.58198  0.18538  1.0000
  H   H1985     1.0  0.62686  0.59438  0.17119  1.0000
  H   H1986     1.0  0.61428  0.61148  0.13767  1.0000
  H   H1987     1.0  0.59596  0.60060  0.11568  1.0000
  H   H1988     1.0  0.58143  0.56838  0.11945  1.0000
  H   H1989     1.0  0.59512  0.55378  0.13141  1.0000
  H   H1990     1.0  0.61895  0.59901  0.08493  1.0000
  C   C1157     1.0  0.55127  0.52843  0.08283  1.0000
  H   H1991     1.0  0.60456  0.57530  0.08471  1.0000
  S   S345      1.0  0.65822  0.60518  0.31025  1.0000
  H   H1992     1.0  0.61264  0.55214  0.17111  1.0000
  N   N85       1.0  0.53375  0.51210  0.08625  1.0000
  H   H1993     1.0  0.57111  0.59336  0.15218  1.0000
  H   H1994     1.0  0.58413  0.61687  0.15107  1.0000
  H   H1995     1.0  0.58884  0.60240  0.17730  1.0000
  H   H1996     1.0  0.56042  0.55362  0.15389  1.0000
  H   H1997     1.0  0.57458  0.56885  0.17635  1.0000
  C   C1158     1.0  0.65349  0.73431  0.09758  1.0000
  C   C1159     1.0  0.58410  0.53493  0.99994  1.0000
  C   C1160     1.0  0.62572  0.55970  0.41958  1.0000
  C   C1161     1.0  0.59463  0.55250  0.00681  1.0000
  S   S346      1.0  0.62478  0.61008  0.00133  1.0000
  C   C1162     1.0  0.64502  0.74438  0.32953  1.0000
  C   C1163     1.0  0.61641  0.57551  0.42310  1.0000
  H   H1998     1.0  0.57806  0.54657  0.17203  1.0000
  C   C1164     1.0  0.55416  0.54381  0.00160  1.0000
  H   H1999     1.0  0.55035  0.53672  0.06414  1.0000
  H   H2000     1.0  0.56973  0.53007  0.29916  1.0000
  C   C1165     1.0  0.66251  0.60730  0.36494  1.0000
  H   H2001     1.0  0.50785  0.52372  0.33885  1.0000
  C   C1166     1.0  0.58399  0.55951  0.40992  1.0000
  C   C1167     1.0  0.56369  0.55436  0.48645  1.0000
  H   H2002     1.0  0.62353  0.73508  0.29824  1.0000
  H   H2003     1.0  0.62450  0.58462  0.37367  1.0000
  C   C1168     1.0  0.57117  0.52469  0.07990  1.0000
  H   H2004     1.0  0.59677  0.59582  0.45292  1.0000
  H   H2005     1.0  0.64947  0.70620  0.10839  1.0000
  H   H2006     1.0  0.58245  0.53668  0.08656  1.0000
  H   H2007     1.0  0.65258  0.74849  0.14996  1.0000
  H   H2008     1.0  0.65834  0.72330  0.36412  1.0000
  H   H2009     1.0  0.64415  0.71878  0.29272  1.0000
  H   H2010     1.0  0.55715  0.57148  0.01270  1.0000
  H   H2011     1.0  0.51239  0.51765  0.27780  1.0000
  H   H2012     1.0  0.66280  0.73943  0.23253  1.0000
  C   C1169     1.0  0.66365  0.62505  0.14475  1.0000
  H   H2013     1.0  0.57468  0.52253  0.05837  1.0000
  H   H2014     1.0  0.63946  0.70889  0.32633  1.0000
  H   H2015     1.0  0.55031  0.52020  0.13802  1.0000
  H   H2016     1.0  0.49509  0.52677  0.29414  1.0000
  C   C1170     1.0  0.58476  0.56556  0.01172  1.0000
  C   C1171     1.0  0.65121  0.71704  0.31192  1.0000
  N   N86       1.0  0.66076  0.73532  0.32325  1.0000
  H   H2017     1.0  0.65511  0.69161  0.29802  1.0000
  H   H2018     1.0  0.66942  0.74590  0.28205  1.0000
  C   C1172     1.0  0.66553  0.62533  0.09545  1.0000
  H   H2019     1.0  0.57254  0.51309  0.09294  1.0000
  H   H2020     1.0  0.55712  0.52213  0.34246  1.0000
  S   S347      1.0  0.62003  0.55770  0.00891  1.0000
  C   C1173     1.0  0.66431  0.70482  0.30486  1.0000
  H   H2021     1.0  0.52913  0.52099  0.38211  1.0000
  H   H2022     1.0  0.59258  0.57900  0.01760  1.0000
  H   H2023     1.0  0.65114  0.75798  0.33795  1.0000
  Fe  Fe171     1.0  0.63847  0.58714  0.00396  1.0000
  C   C1174     1.0  0.65919  0.61305  0.39095  1.0000
  H   H2024     1.0  0.51795  0.52737  0.10975  1.0000
  H   H2025     1.0  0.66539  0.60811  0.40819  1.0000
  C   C1175     1.0  0.51063  0.51472  0.32287  1.0000
  S   S348      1.0  0.52908  0.53944  0.99714  1.0000
  H   H2026     1.0  0.66811  0.73425  0.08977  1.0000
  S   S349      1.0  0.66963  0.61687  0.17603  1.0000
  H   H2027     1.0  0.53458  0.51106  0.04218  1.0000
  C   C1176     1.0  0.66952  0.73241  0.34986  1.0000
  C   C1177     1.0  0.66929  0.72035  0.15127  1.0000
  Fe  Fe172     1.0  0.60843  0.60008  0.74259  1.0000
  S   S350      1.0  0.63389  0.58894  0.74599  1.0000
  S   S351      1.0  0.57763  0.58119  0.74159  1.0000
  Fe  Fe173     1.0  0.63491  0.64024  0.73923  1.0000
  C   C1178     1.0  0.65742  0.73945  0.82424  1.0000
  S   S352      1.0  0.63507  0.67018  0.73378  1.0000
  Fe  Fe174     1.0  0.64812  0.61015  0.71348  1.0000
  C   C1179     1.0  0.66833  0.70312  0.81270  1.0000
  Fe  Fe175     1.0  0.64477  0.61121  0.77499  1.0000
  C   C1180     1.0  0.52473  0.53153  0.85023  1.0000
  S   S353      1.0  0.62198  0.62007  0.70793  1.0000
  S   S354      1.0  0.61839  0.62135  0.77372  1.0000
  C   C1181     1.0  0.59550  0.60340  0.62152  1.0000
  H   H2028     1.0  0.64579  0.73529  0.59161  1.0000
  H   H2029     1.0  0.61589  0.59513  0.64595  1.0000
  Fe  Fe176     1.0  0.64748  0.61494  0.52656  1.0000
  S   S355      1.0  0.64013  0.62868  0.56377  1.0000
  Fe  Fe177     1.0  0.64596  0.62076  0.96609  1.0000
  S   S356      1.0  0.63717  0.63203  0.92701  1.0000
  S   S357      1.0  0.65852  0.59014  0.52834  1.0000
  H   H2030     1.0  0.65102  0.63382  0.66106  1.0000
  H   H2031     1.0  0.60352  0.61810  0.62174  1.0000
  N   N87       1.0  0.58863  0.57378  0.65225  1.0000
  C   C1182     1.0  0.65516  0.68957  0.72639  1.0000
  H   H2032     1.0  0.64923  0.71273  0.78792  1.0000
  H   H2033     1.0  0.60451  0.57697  0.95973  1.0000
  H   H2034     1.0  0.65537  0.75340  0.82313  1.0000
  H   H2035     1.0  0.59286  0.58142  0.84869  1.0000
  H   H2036     1.0  0.62045  0.59061  0.93425  1.0000
  H   H2037     1.0  0.66353  0.73517  0.71198  1.0000
  H   H2038     1.0  0.64710  0.73034  0.66820  1.0000
  H   H2039     1.0  0.56935  0.57992  0.68307  1.0000
  C   C1183     1.0  0.61812  0.56183  0.93403  1.0000
  N   N88       1.0  0.59191  0.57746  0.92033  1.0000
  H   H2040     1.0  0.57540  0.55029  0.82653  1.0000
  H   H2041     1.0  0.57184  0.57798  0.87074  1.0000
  H   H2042     1.0  0.54443  0.55037  0.93045  1.0000
  H   H2043     1.0  0.66232  0.59243  0.86784  1.0000
  C   C1184     1.0  0.65153  0.70647  0.72100  1.0000
  H   H2044     1.0  0.51762  0.53658  0.83334  1.0000
  H   H2045     1.0  0.61836  0.57494  0.61602  1.0000
  H   H2046     1.0  0.62408  0.56169  0.91305  1.0000
  H   H2047     1.0  0.56251  0.58278  0.64958  1.0000
  H   H2048     1.0  0.63674  0.70722  0.72104  1.0000
  H   H2049     1.0  0.66770  0.74921  0.60172  1.0000
  C   C1185     1.0  0.52458  0.52025  0.55854  1.0000
  C   C1186     1.0  0.52818  0.51273  0.84559  1.0000
  S   S358      1.0  0.66196  0.63135  0.74265  1.0000
  H   H2050     1.0  0.55735  0.54467  0.67726  1.0000
  H   H2051     1.0  0.55239  0.57171  0.91292  1.0000
  C   C1187     1.0  0.64222  0.62356  0.89557  1.0000
  C   C1188     1.0  0.63706  0.63100  0.87149  1.0000
  C   C1189     1.0  0.64126  0.62476  0.84612  1.0000
  H   H2052     1.0  0.60049  0.59833  0.60262  1.0000
  H   H2053     1.0  0.54756  0.52189  0.60118  1.0000
  H   H2054     1.0  0.59908  0.60694  0.92040  1.0000
  H   H2055     1.0  0.63045  0.56367  0.94759  1.0000
  H   H2056     1.0  0.65520  0.60363  0.91236  1.0000
  H   H2057     1.0  0.56670  0.53108  0.84962  1.0000
  H   H2058     1.0  0.51510  0.53032  0.86871  1.0000
  C   C1190     1.0  0.64637  0.62108  0.59539  1.0000
  C   C1191     1.0  0.64602  0.63145  0.61823  1.0000
  C   C1192     1.0  0.65098  0.62559  0.64363  1.0000
  H   H2059     1.0  0.56518  0.58547  0.95971  1.0000
  C   C1193     1.0  0.66747  0.74872  0.77669  1.0000
  H   H2060     1.0  0.64203  0.64408  0.61623  1.0000
  C   C1194     1.0  0.66680  0.72245  0.71581  1.0000
  C   C1195     1.0  0.56083  0.51876  0.73259  1.0000
  C   C1196     1.0  0.58024  0.52853  0.73560  1.0000
  C   C1197     1.0  0.58556  0.54753  0.73909  1.0000
  C   C1198     1.0  0.57153  0.55706  0.73920  1.0000
  C   C1199     1.0  0.55207  0.54726  0.73652  1.0000
  C   C1200     1.0  0.54674  0.52824  0.73318  1.0000
  H   H2061     1.0  0.59126  0.52135  0.73529  1.0000
  H   H2062     1.0  0.60056  0.55480  0.74129  1.0000
  H   H2063     1.0  0.54108  0.55446  0.73662  1.0000
  H   H2064     1.0  0.53175  0.52096  0.73077  1.0000
  C   C1201     1.0  0.65058  0.61097  0.84476  1.0000
  H   H2065     1.0  0.61569  0.55036  0.65503  1.0000
  C   C1202     1.0  0.60544  0.56483  0.60923  1.0000
  H   H2066     1.0  0.57987  0.54807  0.92319  1.0000
  H   H2067     1.0  0.63759  0.63083  0.82764  1.0000
  H   H2068     1.0  0.63041  0.74840  0.62131  1.0000
  H   H2069     1.0  0.57530  0.59678  0.91124  1.0000
  H   H2070     1.0  0.65908  0.70181  0.83145  1.0000
  S   S359      1.0  0.65746  0.60362  0.81354  1.0000
  C   C1203     1.0  0.59744  0.56543  0.67493  1.0000
  H   H2071     1.0  0.59851  0.56296  0.88577  1.0000
  C   C1204     1.0  0.65127  0.60959  0.89412  1.0000
  H   H2072     1.0  0.53370  0.53200  0.56871  1.0000
  H   H2073     1.0  0.57436  0.60965  0.95461  1.0000
  H   H2074     1.0  0.58001  0.60267  0.62038  1.0000
  H   H2075     1.0  0.58191  0.51358  0.56837  1.0000
  C   C1205     1.0  0.64058  0.70671  0.62686  1.0000
  H   H2076     1.0  0.65990  0.58602  0.62552  1.0000
  H   H2077     1.0  0.55517  0.55165  0.89660  1.0000
  H   H2078     1.0  0.60882  0.55150  0.60840  1.0000
  H   H2079     1.0  0.63333  0.70253  0.64737  1.0000
  H   H2080     1.0  0.62894  0.70803  0.61329  1.0000
  H   H2081     1.0  0.56139  0.54003  0.54227  1.0000
  H   H2082     1.0  0.59932  0.57428  0.69274  1.0000
  C   C1206     1.0  0.57064  0.53512  0.82793  1.0000
  C   C1207     1.0  0.66439  0.73756  0.85324  1.0000
  C   C1208     1.0  0.62932  0.74016  0.64059  1.0000
  H   H2083     1.0  0.64621  0.75602  0.75168  1.0000
  H   H2084     1.0  0.59817  0.60160  0.66487  1.0000
  H   H2085     1.0  0.55610  0.51715  0.99138  1.0000
  H   H2086     1.0  0.59132  0.57294  0.49454  1.0000
  H   H2087     1.0  0.59074  0.59946  0.86930  1.0000
  C   C1209     1.0  0.65966  0.73458  0.60020  1.0000
  H   H2088     1.0  0.64263  0.72992  0.82336  1.0000
  H   H2089     1.0  0.61731  0.72745  0.64018  1.0000
  H   H2090     1.0  0.58631  0.54378  0.54831  1.0000
  H   H2091     1.0  0.53983  0.55705  0.67541  1.0000
  H   H2092     1.0  0.63398  0.67852  0.61487  1.0000
  H   H2093     1.0  0.63974  0.73232  0.76137  1.0000
  H   H2094     1.0  0.62242  0.55746  0.68808  1.0000
  H   H2095     1.0  0.58934  0.59734  0.96945  1.0000
  C   C1210     1.0  0.56866  0.57389  0.66269  1.0000
  H   H2096     1.0  0.52089  0.52576  0.53889  1.0000
  C   C1211     1.0  0.51048  0.51529  0.79185  1.0000
  H   H2097     1.0  0.62832  0.57402  0.66079  1.0000
  C   C1212     1.0  0.57578  0.56058  0.92854  1.0000
  C   C1213     1.0  0.55306  0.55523  0.66504  1.0000
  C   C1214     1.0  0.58761  0.58436  0.86902  1.0000
  C   C1215     1.0  0.57151  0.53646  0.55648  1.0000
  C   C1216     1.0  0.58680  0.56286  0.62709  1.0000
  H   H2098     1.0  0.60800  0.54835  0.94021  1.0000
  H   H2099     1.0  0.57614  0.56647  0.61365  1.0000
  C   C1217     1.0  0.64876  0.73649  0.64711  1.0000
  C   C1218     1.0  0.57842  0.59664  0.95398  1.0000
  C   C1219     1.0  0.61707  0.56178  0.66878  1.0000
  H   H2100     1.0  0.57340  0.55890  0.95100  1.0000
  C   C1220     1.0  0.65637  0.60937  0.64620  1.0000
  C   C1221     1.0  0.58641  0.59485  0.92512  1.0000
  H   H2101     1.0  0.65933  0.71649  0.56637  1.0000
  C   C1222     1.0  0.55603  0.55867  0.91604  1.0000
  C   C1223     1.0  0.56942  0.51582  0.55739  1.0000
  H   H2102     1.0  0.60333  0.56901  0.58798  1.0000
  H   H2103     1.0  0.56991  0.54176  0.57673  1.0000
  H   H2104     1.0  0.58777  0.55202  0.68233  1.0000
  H   H2105     1.0  0.58069  0.54805  0.63270  1.0000
  H   H2106     1.0  0.54887  0.55003  0.64476  1.0000
  H   H2107     1.0  0.53839  0.54199  0.85393  1.0000
  H   H2108     1.0  0.51788  0.52987  0.78676  1.0000
  H   H2109     1.0  0.54677  0.53938  0.80544  1.0000
  C   C1224     1.0  0.55350  0.52815  0.80946  1.0000
  C   C1225     1.0  0.59865  0.57708  0.89102  1.0000
  C   C1226     1.0  0.60878  0.57759  0.93780  1.0000
  C   C1227     1.0  0.60015  0.59348  0.64720  1.0000
  S   S360      1.0  0.65844  0.59702  0.96714  1.0000
  H   H2110     1.0  0.62998  0.64178  0.87242  1.0000
  H   H2111     1.0  0.61397  0.58543  0.88766  1.0000
  C   C1228     1.0  0.64634  0.74613  0.76869  1.0000
  N   N89       1.0  0.65605  0.72471  0.62774  1.0000
  S   S361      1.0  0.62560  0.60415  0.49546  1.0000
  C   C1229     1.0  0.64701  0.69004  0.61784  1.0000
  S   S362      1.0  0.66328  0.60198  0.67742  1.0000
  H   H2112     1.0  0.57171  0.51262  0.53595  1.0000
  H   H2113     1.0  0.65565  0.69263  0.59844  1.0000
  H   H2114     1.0  0.62541  0.74843  0.65681  1.0000
  C   C1230     1.0  0.65634  0.59886  0.62351  1.0000
  C   C1231     1.0  0.65136  0.60470  0.59822  1.0000
  C   C1232     1.0  0.65534  0.60327  0.86883  1.0000
  H   H2115     1.0  0.65518  0.68522  0.63384  1.0000
  H   H2116     1.0  0.63707  0.74906  0.78533  1.0000
  H   H2117     1.0  0.49964  0.51371  0.80894  1.0000
  H   H2118     1.0  0.51056  0.51488  0.57024  1.0000
  H   H2119     1.0  0.55970  0.52663  0.78905  1.0000
  H   H2120     1.0  0.65103  0.59631  0.58111  1.0000
  H   H2121     1.0  0.58298  0.52989  0.82158  1.0000
  Fe  Fe178     1.0  0.63799  0.58032  0.49505  1.0000
  C   C1233     1.0  0.66484  0.71743  0.79227  1.0000
  Fe  Fe179     1.0  0.50984  0.51139  0.98788  1.0000
  H   H2122     1.0  0.66417  0.68957  0.80344  1.0000
  H   H2123     1.0  0.65257  0.73772  0.86823  1.0000
  H   H2124     1.0  0.65926  0.75019  0.64794  1.0000
  H   H2125     1.0  0.66848  0.72482  0.85728  1.0000
  S   S363      1.0  0.66816  0.63793  0.99224  1.0000
  C   C1234     1.0  0.66995  0.72659  0.57786  1.0000
  S   S364      1.0  0.61895  0.55113  0.49331  1.0000
  S   S365      1.0  0.37064  0.95344  0.16483  1.0000
  C   C1235     1.0  0.65933  0.79437  0.35304  1.0000
  H   H2126     1.0  0.65115  0.84031  0.29763  1.0000
  C   C1236     1.0  0.64205  0.79537  0.34188  1.0000
  H   H2127     1.0  0.49827  0.98689  0.05146  1.0000
  C   C1237     1.0  0.43594  0.96640  0.11387  1.0000
  S   S366      1.0  0.66635  0.77160  0.20249  1.0000
  C   C1238     1.0  0.49353  0.99243  0.06948  1.0000
  H   H2128     1.0  0.37404  0.95945  0.26472  1.0000
  N   N90       1.0  0.41173  0.98214  0.09302  1.0000
  H   H2129     1.0  0.37705  0.94925  0.09115  1.0000
  H   H2130     1.0  0.65042  0.85975  0.31636  1.0000
  C   C1239     1.0  0.41476  0.99588  0.04326  1.0000
  S   S367      1.0  0.49922  0.98738  0.15105  1.0000
  H   H2131     1.0  0.44682  0.00782  0.28661  1.0000
  Fe  Fe180     1.0  0.49273  0.00130  0.18867  1.0000
  H   H2132     1.0  0.48771  0.97979  0.34981  1.0000
  S   S368      1.0  0.46664  0.99137  0.21729  1.0000
  N   N91       1.0  0.41463  0.97432  0.27939  1.0000
  C   C1240     1.0  0.65653  0.79794  0.29612  1.0000
  H   H2133     1.0  0.53596  0.00801  0.11674  1.0000
  C   C1241     1.0  0.54994  0.00161  0.06672  1.0000
  H   H2134     1.0  0.44069  0.97875  0.30222  1.0000
  C   C1242     1.0  0.38559  0.96326  0.24842  1.0000
  S   S369      1.0  0.47177  0.00768  0.03561  1.0000
  C   C1243     1.0  0.39692  0.00411  0.19174  1.0000
  C   C1244     1.0  0.43170  0.00847  0.28498  1.0000
  H   H2135     1.0  0.54091  0.98482  0.29061  1.0000
  C   C1245     1.0  0.53514  0.99654  0.29506  1.0000
  H   H2136     1.0  0.54382  0.99181  0.08402  1.0000
  H   H2137     1.0  0.38301  0.97811  0.11139  1.0000
  C   C1246     1.0  0.49884  0.98749  0.09528  1.0000
  C   C1247     1.0  0.43322  0.96993  0.28611  1.0000
  H   H2138     1.0  0.42381  0.97283  0.05691  1.0000
  H   H2139     1.0  0.44359  0.97286  0.26813  1.0000
  C   C1248     1.0  0.48786  0.00377  0.37206  1.0000
  S   S370      1.0  0.48345  0.98878  0.29329  1.0000
  H   H2140     1.0  0.39472  0.95739  0.30998  1.0000
  C   C1249     1.0  0.48405  0.00142  0.32297  1.0000
  C   C1250     1.0  0.48654  0.99362  0.34841  1.0000
  H   H2141     1.0  0.66594  0.82946  0.37294  1.0000
  H   H2142     1.0  0.40560  0.96105  0.12541  1.0000
  C   C1251     1.0  0.48035  0.00568  0.11655  1.0000
  C   C1252     1.0  0.42271  0.98576  0.06581  1.0000
  C   C1253     1.0  0.40493  0.96125  0.25850  1.0000
  Fe  Fe181     1.0  0.48586  0.00277  0.25119  1.0000
  H   H2143     1.0  0.48997  0.99774  0.39149  1.0000
  C   C1254     1.0  0.39021  0.97891  0.09080  1.0000
  H   H2144     1.0  0.56281  0.00984  0.30962  1.0000
  H   H2145     1.0  0.65506  0.78948  0.06884  1.0000
  C   C1255     1.0  0.65319  0.84619  0.31801  1.0000
  H   H2146     1.0  0.42924  0.99423  0.24787  1.0000
  H   H2147     1.0  0.43465  0.99983  0.11520  1.0000
  S   S371      1.0  0.66376  0.78672  0.12537  1.0000
  H   H2148     1.0  0.65146  0.84469  0.37389  1.0000
  H   H2149     1.0  0.52625  0.99297  0.31429  1.0000
  S   S372      1.0  0.65347  0.80028  0.26088  1.0000
  C   C1256     1.0  0.40206  0.97211  0.30514  1.0000
  C   C1257     1.0  0.49233  0.99409  0.11895  1.0000
  H   H2150     1.0  0.41057  0.95338  0.09324  1.0000
  C   C1258     1.0  0.43139  0.95017  0.29648  1.0000
  C   C1259     1.0  0.38754  0.97285  0.17680  1.0000
  C   C1260     1.0  0.40677  0.97243  0.17884  1.0000
  C   C1261     1.0  0.42105  0.98783  0.18650  1.0000
  H   H2151     1.0  0.42821  0.94049  0.27986  1.0000
  H   H2152     1.0  0.41486  0.96232  0.24028  1.0000
  C   C1262     1.0  0.38262  0.98878  0.18336  1.0000
  H   H2153     1.0  0.41076  0.96021  0.17390  1.0000
  H   H2154     1.0  0.43583  0.98743  0.18637  1.0000
  S   S373      1.0  0.65966  0.79198  0.38886  1.0000
  H   H2155     1.0  0.36786  0.98931  0.18189  1.0000
  H   H2156     1.0  0.42552  0.99934  0.02581  1.0000
  H   H2157     1.0  0.55840  0.99492  0.05335  1.0000
  H   H2158     1.0  0.36535  0.96232  0.07054  1.0000
  H   H2159     1.0  0.53809  0.00386  0.05449  1.0000
  S   S374      1.0  0.51250  0.00853  0.22350  1.0000
  H   H2160     1.0  0.40763  0.99786  0.26018  1.0000
  H   H2161     1.0  0.50784  0.97829  0.09692  1.0000
  H   H2162     1.0  0.62955  0.79468  0.35512  1.0000
  H   H2163     1.0  0.64213  0.83686  0.33198  1.0000
  C   C1263     1.0  0.42022  0.99351  0.26689  1.0000
  H   H2164     1.0  0.41120  0.97684  0.32271  1.0000
  C   C1264     1.0  0.66662  0.84402  0.37538  1.0000
  H   H2165     1.0  0.43706  0.95246  0.11919  1.0000
  H   H2166     1.0  0.39063  0.99443  0.31868  1.0000
  H   H2167     1.0  0.62717  0.79798  0.30552  1.0000
  H   H2168     1.0  0.38080  0.95357  0.23206  1.0000
  C   C1265     1.0  0.48136  0.00381  0.06714  1.0000
  C   C1266     1.0  0.64069  0.79723  0.31373  1.0000
  H   H2169     1.0  0.44651  0.97206  0.09671  1.0000
  C   C1267     1.0  0.38629  0.98239  0.30589  1.0000
  Fe  Fe182     1.0  0.33848  0.95076  0.16370  1.0000
  C   C1268     1.0  0.66946  0.78779  0.06961  1.0000
  H   H2170     1.0  0.44016  0.97450  0.13205  1.0000
  H   H2171     1.0  0.38675  0.99047  0.07986  1.0000
  C   C1269     1.0  0.41494  0.96519  0.10654  1.0000
  H   H2172     1.0  0.40153  0.94687  0.26656  1.0000
  H   H2173     1.0  0.42050  0.94556  0.31352  1.0000
  H   H2174     1.0  0.43792  0.99369  0.06837  1.0000
  H   H2175     1.0  0.66170  0.87444  0.35789  1.0000
  C   C1270     1.0  0.33902  0.00559  0.46715  1.0000
  C   C1271     1.0  0.41909  0.99772  0.11145  1.0000
  C   C1272     1.0  0.41624  0.00369  0.19335  1.0000
  H   H2176     1.0  0.38217  0.98672  0.28598  1.0000
  C   C1273     1.0  0.37972  0.96134  0.07679  1.0000
  H   H2177     1.0  0.38788  0.95902  0.05845  1.0000
  H   H2178     1.0  0.37284  0.97334  0.31605  1.0000
  H   H2179     1.0  0.38675  0.97703  0.23942  1.0000
  H   H2180     1.0  0.35605  0.99270  0.25920  1.0000
  H   H2181     1.0  0.40119  0.98713  0.03550  1.0000
  H   H2182     1.0  0.44555  0.94959  0.30418  1.0000
  H   H2183     1.0  0.41136  0.99454  0.13169  1.0000
  H   H2184     1.0  0.34053  0.94538  0.28505  1.0000
  H   H2185     1.0  0.52582  0.99787  0.27811  1.0000
  H   H2186     1.0  0.65978  0.00804  0.12119  1.0000
  H   H2187     1.0  0.66163  0.83801  0.41868  1.0000
  H   H2188     1.0  0.42483  0.00774  0.30558  1.0000
  H   H2189     1.0  0.35803  0.00698  0.22940  1.0000
  C   C1274     1.0  0.35875  0.00715  0.25181  1.0000
  H   H2190     1.0  0.35834  0.98869  0.45918  1.0000
  H   H2191     1.0  0.41233  0.00883  0.04958  1.0000
  C   C1275     1.0  0.35941  0.00348  0.46029  1.0000
  H   H2192     1.0  0.36470  0.00961  0.43972  1.0000
  H   H2193     1.0  0.37051  0.00892  0.47503  1.0000
  C   C1276     1.0  0.47486  0.01045  0.09079  1.0000
  H   H2194     1.0  0.47486  0.01056  0.13453  1.0000
  S   S375      1.0  0.37753  0.94617  0.67189  1.0000
  H   H2195     1.0  0.35695  0.99716  0.69840  1.0000
  H   H2196     1.0  0.35730  0.94758  0.76579  1.0000
  H   H2197     1.0  0.46647  0.96783  0.59171  1.0000
  H   H2198     1.0  0.65608  0.82044  0.88380  1.0000
  C   C1277     1.0  0.45056  0.96434  0.58978  1.0000
  S   S376      1.0  0.49861  0.98657  0.52231  1.0000
  C   C1278     1.0  0.45874  0.94648  0.64331  1.0000
  H   H2199     1.0  0.39482  0.98550  0.75982  1.0000
  S   S377      1.0  0.50317  0.99063  0.78645  1.0000
  Fe  Fe183     1.0  0.50416  0.99734  0.68256  1.0000
  H   H2200     1.0  0.43031  0.94911  0.65339  1.0000
  S   S378      1.0  0.50948  0.97926  0.64945  1.0000
  H   H2201     1.0  0.41981  0.97930  0.60036  1.0000
  H   H2202     1.0  0.46922  0.94762  0.62592  1.0000
  S   S379      1.0  0.66760  0.78194  0.88933  1.0000
  N   N92       1.0  0.44061  0.96605  0.61661  1.0000
  S   S380      1.0  0.47913  0.98770  0.71297  1.0000
  C   C1279     1.0  0.36113  0.00813  0.71297  1.0000
  S   S381      1.0  0.50349  0.00503  0.96471  1.0000
  H   H2203     1.0  0.45969  0.97962  0.55122  1.0000
  H   H2204     1.0  0.39254  0.95415  0.59698  1.0000
  Fe  Fe184     1.0  0.34577  0.94353  0.66520  1.0000
  H   H2205     1.0  0.43900  0.00379  0.61723  1.0000
  H   H2206     1.0  0.38349  0.98768  0.80803  1.0000
  H   H2207     1.0  0.46730  0.98181  0.63323  1.0000
  C   C1280     1.0  0.35401  0.00553  0.52501  1.0000
  H   H2208     1.0  0.46533  0.95624  0.65883  1.0000
  H   H2209     1.0  0.36609  0.97392  0.71566  1.0000
  H   H2210     1.0  0.35487  0.99326  0.51416  1.0000
  C   C1281     1.0  0.42030  0.96743  0.61356  1.0000
  Fe  Fe185     1.0  0.49948  0.00195  0.74425  1.0000
  H   H2211     1.0  0.36271  0.97061  0.82178  1.0000
  H   H2212     1.0  0.40141  0.93928  0.61830  1.0000
  H   H2213     1.0  0.54113  0.00872  0.62914  1.0000
  H   H2214     1.0  0.41414  0.96995  0.63346  1.0000
  C   C1282     1.0  0.44657  0.97560  0.56502  1.0000
  H   H2215     1.0  0.66448  0.84640  0.84360  1.0000
  H   H2216     1.0  0.63475  0.79184  0.80803  1.0000
  H   H2217     1.0  0.63703  0.78485  0.85677  1.0000
  C   C1283     1.0  0.64984  0.78750  0.84342  1.0000
  H   H2218     1.0  0.65352  0.79195  0.56959  1.0000
  S   S382      1.0  0.66422  0.78764  0.62489  1.0000
  H   H2219     1.0  0.35463  0.99428  0.79246  1.0000
  H   H2220     1.0  0.65442  0.82946  0.91646  1.0000
  H   H2221     1.0  0.51178  0.98497  0.84213  1.0000
  H   H2222     1.0  0.33966  0.99488  0.74418  1.0000
  C   C1284     1.0  0.66475  0.82779  0.90018  1.0000
  H   H2223     1.0  0.33697  0.95086  0.57590  1.0000
  C   C1285     1.0  0.49989  0.00285  0.86601  1.0000
  H   H2224     1.0  0.53847  0.00450  0.58095  1.0000
  C   C1286     1.0  0.50170  0.98584  0.55778  1.0000
  C   C1287     1.0  0.43930  0.94919  0.63448  1.0000
  C   C1288     1.0  0.36548  0.95372  0.74674  1.0000
  C   C1289     1.0  0.50612  0.98240  0.61441  1.0000
  C   C1290     1.0  0.50877  0.96905  0.59717  1.0000
  C   C1291     1.0  0.50647  0.97070  0.56918  1.0000
  C   C1292     1.0  0.38730  0.99517  0.75125  1.0000
  C   C1293     1.0  0.45212  0.98223  0.63137  1.0000
  H   H2225     1.0  0.51258  0.95726  0.60551  1.0000
  H   H2226     1.0  0.50845  0.96013  0.55623  1.0000
  C   C1294     1.0  0.39454  0.96655  0.68082  1.0000
  C   C1295     1.0  0.41073  0.96520  0.69490  1.0000
  C   C1296     1.0  0.42580  0.98086  0.69962  1.0000
  C   C1297     1.0  0.42514  0.99807  0.68972  1.0000
  C   C1298     1.0  0.40867  0.99953  0.67628  1.0000
  C   C1299     1.0  0.39338  0.98385  0.67194  1.0000
  H   H2227     1.0  0.41177  0.95191  0.70189  1.0000
  H   H2228     1.0  0.43810  0.97950  0.71053  1.0000
  H   H2229     1.0  0.34391  0.97190  0.78339  1.0000
  H   H2230     1.0  0.38109  0.98507  0.66078  1.0000
  H   H2231     1.0  0.34384  0.96646  0.73451  1.0000
  H   H2232     1.0  0.34677  0.94379  0.52963  1.0000
  C   C1300     1.0  0.66746  0.78705  0.85402  1.0000
  H   H2233     1.0  0.34701  0.00107  0.94802  1.0000
  C   C1301     1.0  0.56545  0.99802  0.57655  1.0000
  H   H2234     1.0  0.37705  0.96516  0.79495  1.0000
  H   H2235     1.0  0.45612  0.93259  0.65300  1.0000
  C   C1302     1.0  0.49719  0.00008  0.81681  1.0000
  H   H2236     1.0  0.43190  0.93657  0.62415  1.0000
  H   H2237     1.0  0.65827  0.99326  0.58793  1.0000
  H   H2238     1.0  0.56488  0.99031  0.59615  1.0000
  C   C1303     1.0  0.49901  0.99937  0.57493  1.0000
  C   C1304     1.0  0.35805  0.98250  0.78273  1.0000
  C   C1305     1.0  0.50117  0.99762  0.60326  1.0000
  C   C1306     1.0  0.33941  0.99555  0.96772  1.0000
  H   H2239     1.0  0.44617  0.94986  0.58383  1.0000
  S   S383      1.0  0.66157  0.79958  0.76321  1.0000
  H   H2240     1.0  0.55886  0.98779  0.56161  1.0000
  H   H2241     1.0  0.38126  0.95657  0.74907  1.0000
  C   C1307     1.0  0.37124  0.97610  0.80261  1.0000
  H   H2242     1.0  0.66691  0.97923  0.61089  1.0000
  C   C1308     1.0  0.40591  0.95055  0.60249  1.0000
  C   C1309     1.0  0.35569  0.00093  0.74266  1.0000
  H   H2243     1.0  0.34815  0.98750  0.97781  1.0000
  H   H2244     1.0  0.36155  0.94316  0.73136  1.0000
  N   N93       1.0  0.36566  0.98731  0.75362  1.0000
  C   C1310     1.0  0.35977  0.97073  0.73667  1.0000
  H   H2245     1.0  0.46185  0.00415  0.59955  1.0000
  H   H2246     1.0  0.35169  0.00116  0.54691  1.0000
  S   S384      1.0  0.52529  0.00818  0.71471  1.0000
  C   C1311     1.0  0.64854  0.79147  0.81573  1.0000
  H   H2247     1.0  0.41184  0.94567  0.58412  1.0000
  C   C1312     1.0  0.66475  0.79472  0.79789  1.0000
  C   C1313     1.0  0.45336  0.00135  0.61912  1.0000
  H   H2248     1.0  0.58058  0.00433  0.56894  1.0000
  C   C1314     1.0  0.50366  0.99496  0.84169  1.0000
  H   H2249     1.0  0.50498  0.99884  0.88501  1.0000
  H   H2250     1.0  0.44623  0.98170  0.65259  1.0000
  H   H2251     1.0  0.66788  0.85547  0.88741  1.0000
  H   H2252     1.0  0.39230  0.99710  0.72952  1.0000
  C   C1315     1.0  0.66780  0.78990  0.56887  1.0000
  H   H2253     1.0  0.44300  0.98836  0.56967  1.0000
  H   H2254     1.0  0.43513  0.96704  0.55278  1.0000
  H   H2255     1.0  0.49899  0.00798  0.61640  1.0000
  H   H2256     1.0  0.56525  0.00830  0.62987  1.0000
  C   C1316     1.0  0.33723  0.01070  0.98636  1.0000
  S   S385      1.0  0.66980  0.77141  0.70079  1.0000
  H   H2257     1.0  0.72638  0.15270  0.18117  1.0000
  H   H2258     1.0  0.90714  0.16583  0.00876  1.0000
  H   H2259     1.0  0.75439  0.17624  0.39863  1.0000
  H   H2260     1.0  0.74517  0.05775  0.37095  1.0000
  H   H2261     1.0  0.75243  0.13191  0.23458  1.0000
  H   H2262     1.0  0.94438  0.19820  0.14769  1.0000
  S   S386      1.0  0.68633  0.12304  0.27555  1.0000
  H   H2263     1.0  0.88747  0.16422  0.44846  1.0000
  Fe  Fe186     1.0  0.81304  0.13621  0.36213  1.0000
  S   S387      1.0  0.80779  0.16355  0.36560  1.0000
  S   S388      1.0  0.80954  0.11645  0.39853  1.0000
  Fe  Fe187     1.0  0.82522  0.14368  0.30219  1.0000
  S   S389      1.0  0.82097  0.17172  0.30130  1.0000
  S   S390      1.0  0.83777  0.13370  0.26530  1.0000
  Fe  Fe188     1.0  0.83564  0.17456  0.34102  1.0000
  S   S391      1.0  0.85602  0.20098  0.35399  1.0000
  Fe  Fe189     1.0  0.79362  0.15799  0.32575  1.0000
  S   S392      1.0  0.76643  0.16668  0.32105  1.0000
  S   S393      1.0  0.84202  0.14750  0.34025  1.0000
  S   S394      1.0  0.79670  0.12961  0.32392  1.0000
  H   H2264     1.0  0.93698  0.24298  0.28516  1.0000
  H   H2265     1.0  0.73544  0.15590  0.36560  1.0000
  H   H2266     1.0  0.86529  0.21186  0.25809  1.0000
  H   H2267     1.0  0.97239  0.23365  0.45726  1.0000
  C   C1317     1.0  0.83857  0.01873  0.48902  1.0000
  S   S395      1.0  0.94747  0.21776  0.34459  1.0000
  H   H2268     1.0  0.91408  0.22815  0.12244  1.0000
  H   H2269     1.0  0.73202  0.11457  0.45466  1.0000
  C   C1318     1.0  0.71971  0.02078  0.45044  1.0000
  Fe  Fe190     1.0  0.81956  0.13897  0.11353  1.0000
  S   S396      1.0  0.84664  0.12989  0.11438  1.0000
  S   S397      1.0  0.80214  0.14206  0.15136  1.0000
  Fe  Fe191     1.0  0.82018  0.14029  0.05144  1.0000
  S   S398      1.0  0.84705  0.13109  0.04847  1.0000
  H   H2270     1.0  0.80982  0.05502  0.14857  1.0000
  Fe  Fe192     1.0  0.83280  0.11083  0.08243  1.0000
  S   S399      1.0  0.83410  0.08141  0.08342  1.0000
  Fe  Fe193     1.0  0.85786  0.15132  0.08054  1.0000
  S   S400      1.0  0.88871  0.17024  0.07646  1.0000
  S   S401      1.0  0.80510  0.11874  0.08326  1.0000
  S   S402      1.0  0.83156  0.16157  0.08176  1.0000
  C   C1319     1.0  0.78435  0.02994  0.10668  1.0000
  C   C1320     1.0  0.78041  0.04685  0.10232  1.0000
  C   C1321     1.0  0.79542  0.06281  0.09510  1.0000
  C   C1322     1.0  0.81453  0.06193  0.09204  1.0000
  C   C1323     1.0  0.81839  0.04501  0.09605  1.0000
  C   C1324     1.0  0.80344  0.02915  0.10340  1.0000
  H   H2271     1.0  0.76574  0.04767  0.10478  1.0000
  H   H2272     1.0  0.79223  0.07575  0.09197  1.0000
  H   H2273     1.0  0.83311  0.04417  0.09364  1.0000
  C   C1325     1.0  0.81145  0.05167  0.01883  1.0000
  C   C1326     1.0  0.90574  0.23312  0.06679  1.0000
  C   C1327     1.0  0.88630  0.22319  0.07208  1.0000
  C   C1328     1.0  0.88080  0.20394  0.07469  1.0000
  C   C1329     1.0  0.89472  0.19440  0.07205  1.0000
  C   C1330     1.0  0.91410  0.20430  0.06617  1.0000
  C   C1331     1.0  0.91958  0.22354  0.06339  1.0000
  H   H2274     1.0  0.87545  0.23044  0.07461  1.0000
  H   H2275     1.0  0.86583  0.19655  0.07925  1.0000
  H   H2276     1.0  0.92496  0.19704  0.06381  1.0000
  H   H2277     1.0  0.93451  0.23094  0.05863  1.0000
  C   C1332     1.0  0.92868  0.23402  0.26996  1.0000
  C   C1333     1.0  0.76853  0.05572  0.46506  1.0000
  H   H2278     1.0  0.95216  0.24251  0.17578  1.0000
  C   C1334     1.0  0.92002  0.23076  0.14295  1.0000
  S   S403      1.0  0.68556  0.08145  0.45222  1.0000
  C   C1335     1.0  0.91345  0.19206  0.14438  1.0000
  H   H2279     1.0  0.71077  0.12449  0.41967  1.0000
  H   H2280     1.0  0.76003  0.03005  0.31845  1.0000
  C   C1336     1.0  0.88136  0.20503  0.35184  1.0000
  C   C1337     1.0  0.89006  0.19178  0.34329  1.0000
  C   C1338     1.0  0.91037  0.19568  0.34166  1.0000
  C   C1339     1.0  0.92206  0.21296  0.34796  1.0000
  C   C1340     1.0  0.91330  0.22607  0.35687  1.0000
  C   C1341     1.0  0.89304  0.22207  0.35893  1.0000
  H   H2281     1.0  0.88121  0.17858  0.33780  1.0000
  H   H2282     1.0  0.91706  0.18543  0.33491  1.0000
  H   H2283     1.0  0.92211  0.23929  0.36226  1.0000
  H   H2284     1.0  0.88640  0.23234  0.36574  1.0000
  C   C1342     1.0  0.80666  0.12477  0.43080  1.0000
  C   C1343     1.0  0.79714  0.13826  0.43425  1.0000
  C   C1344     1.0  0.79430  0.14414  0.46034  1.0000
  H   H2285     1.0  0.83052  0.18260  0.41061  1.0000
  C   C1345     1.0  0.68223  0.05170  0.42026  1.0000
  C   C1346     1.0  0.81358  0.11742  0.45353  1.0000
  H   H2286     1.0  0.79170  0.14397  0.41694  1.0000
  H   H2287     1.0  0.78674  0.15446  0.46294  1.0000
  H   H2288     1.0  0.87450  0.23289  0.31049  1.0000
  H   H2289     1.0  0.82103  0.10703  0.45094  1.0000
  C   C1347     1.0  0.82842  0.13775  0.23394  1.0000
  C   C1348     1.0  0.80995  0.14023  0.23251  1.0000
  C   C1349     1.0  0.80217  0.14185  0.20707  1.0000
  C   C1350     1.0  0.81285  0.14127  0.18296  1.0000
  C   C1351     1.0  0.83155  0.13940  0.18453  1.0000
  C   C1352     1.0  0.83922  0.13743  0.20990  1.0000
  H   H2290     1.0  0.80151  0.14047  0.25099  1.0000
  H   H2291     1.0  0.78780  0.14340  0.20616  1.0000
  H   H2292     1.0  0.84013  0.13935  0.16629  1.0000
  H   H2293     1.0  0.85354  0.13557  0.21091  1.0000
  C   C1353     1.0  0.70936  0.13443  0.28688  1.0000
  C   C1354     1.0  0.72463  0.12633  0.28819  1.0000
  C   C1355     1.0  0.74274  0.13625  0.29749  1.0000
  C   C1356     1.0  0.74528  0.15406  0.30614  1.0000
  C   C1357     1.0  0.73004  0.16203  0.30451  1.0000
  C   C1358     1.0  0.71230  0.15237  0.29473  1.0000
  H   H2294     1.0  0.72248  0.11248  0.28229  1.0000
  H   H2295     1.0  0.75444  0.12997  0.29875  1.0000
  H   H2296     1.0  0.73191  0.17579  0.31106  1.0000
  H   H2297     1.0  0.70067  0.15877  0.29366  1.0000
  H   H2298     1.0  0.86910  0.17308  0.02737  1.0000
  C   C1359     1.0  0.71155  0.11715  0.20656  1.0000
  C   C1360     1.0  0.71798  0.12223  0.36589  1.0000
  C   C1361     1.0  0.75688  0.12493  0.04471  1.0000
  S   S404      1.0  0.70603  0.05894  0.01962  1.0000
  H   H2299     1.0  0.84534  0.07565  0.16819  1.0000
  C   C1362     1.0  0.93408  0.20468  0.13786  1.0000
  H   H2300     1.0  0.72467  0.12562  0.34513  1.0000
  H   H2301     1.0  0.94148  0.22212  0.21564  1.0000
  C   C1363     1.0  0.69349  0.12319  0.19917  1.0000
  N   N94       1.0  0.72212  0.01706  0.33994  1.0000
  H   H2302     1.0  0.81975  0.05242  0.18031  1.0000
  S   S405      1.0  0.69777  0.07628  0.27764  1.0000
  H   H2303     1.0  0.76276  0.13091  0.39259  1.0000
  C   C1364     1.0  0.75113  0.12557  0.37845  1.0000
  H   H2304     1.0  0.71763  0.10664  0.15842  1.0000
  H   H2305     1.0  0.72381  0.15368  0.39842  1.0000
  C   C1365     1.0  0.67987  0.07151  0.37210  1.0000
  H   H2306     1.0  0.71393  0.12037  0.22823  1.0000
  H   H2307     1.0  0.92893  0.20364  0.19633  1.0000
  H   H2308     1.0  0.85210  0.09982  0.16306  1.0000
  H   H2309     1.0  0.92807  0.25506  0.16798  1.0000
  C   C1366     1.0  0.86215  0.17460  0.00801  1.0000
  C   C1367     1.0  0.89361  0.15495  0.00587  1.0000
  C   C1368     1.0  0.69340  0.07144  0.13293  1.0000
  H   H2310     1.0  0.75238  0.12637  0.43424  1.0000
  C   C1369     1.0  0.72428  0.12089  0.41404  1.0000
  H   H2311     1.0  0.73316  0.14872  0.21452  1.0000
  H   H2312     1.0  0.97436  0.25705  0.46152  1.0000
  Fe  Fe194     1.0  0.67754  0.06413  0.49153  1.0000
  H   H2313     1.0  0.88795  0.18650  0.45652  1.0000
  H   H2314     1.0  0.68217  0.11845  0.21570  1.0000
  C   C1370     1.0  0.72561  0.12787  0.02874  1.0000
  H   H2315     1.0  0.84312  0.03385  0.48887  1.0000
  H   H2316     1.0  0.71390  0.03869  0.36012  1.0000
  C   C1371     1.0  0.86280  0.14386  0.40869  1.0000
  C   C1372     1.0  0.78537  0.07485  0.16813  1.0000
  H   H2317     1.0  0.72613  0.02650  0.38091  1.0000
  H   H2318     1.0  0.75730  0.16953  0.17394  1.0000
  H   H2319     1.0  0.79335  0.07600  0.44382  1.0000
  C   C1373     1.0  0.72641  0.07086  0.16077  1.0000
  C   C1374     1.0  0.94067  0.23414  0.43800  1.0000
  S   S406      1.0  0.67636  0.04168  0.34029  1.0000
  C   C1375     1.0  0.83703  0.19030  0.42816  1.0000
  H   H2320     1.0  0.76323  0.11363  0.23047  1.0000
  H   H2321     1.0  0.75824  0.15733  0.41765  1.0000
  H   H2322     1.0  0.85029  0.13271  0.41710  1.0000
  H   H2323     1.0  0.78257  0.06825  0.14834  1.0000
  H   H2324     1.0  0.86615  0.14091  0.38747  1.0000
  H   H2325     1.0  0.83375  0.01481  0.46835  1.0000
  N   N95       1.0  0.86300  0.17299  0.43429  1.0000
  H   H2326     1.0  0.79355  0.02576  0.17137  1.0000
  H   H2327     1.0  0.85483  0.14870  0.46104  1.0000
  C   C1376     1.0  0.81125  0.12370  0.47955  1.0000
  H   H2328     1.0  0.76498  0.16063  0.20378  1.0000
  S   S407      1.0  0.70743  0.05767  0.20899  1.0000
  C   C1377     1.0  0.71951  0.02470  0.13409  1.0000
  C   C1378     1.0  0.88412  0.17668  0.44011  1.0000
  H   H2329     1.0  0.90834  0.19237  0.16568  1.0000
  H   H2330     1.0  0.90758  0.25340  0.14784  1.0000
  N   N96       1.0  0.80439  0.07330  0.17858  1.0000
  H   H2331     1.0  0.78288  0.05614  0.42543  1.0000
  C   C1379     1.0  0.82101  0.08793  0.16498  1.0000
  H   H2332     1.0  0.74665  0.05441  0.33551  1.0000
  C   C1380     1.0  0.80428  0.07370  0.20913  1.0000
  H   H2333     1.0  0.87318  0.23555  0.22453  1.0000
  H   H2334     1.0  0.73444  0.05073  0.09566  1.0000
  H   H2335     1.0  0.97036  0.21625  0.11785  1.0000
  C   C1381     1.0  0.80326  0.09158  0.22179  1.0000
  C   C1382     1.0  0.89849  0.18458  0.41588  1.0000
  H   H2336     1.0  0.71349  0.04724  0.07521  1.0000
  H   H2337     1.0  0.81974  0.10186  0.16813  1.0000
  H   H2338     1.0  0.82092  0.08673  0.14249  1.0000
  H   H2339     1.0  0.70274  0.14339  0.35919  1.0000
  H   H2340     1.0  0.89207  0.22432  0.22778  1.0000
  H   H2341     1.0  0.79161  0.06304  0.21835  1.0000
  C   C1383     1.0  0.87537  0.23341  0.28783  1.0000
  C   C1384     1.0  0.80692  0.05507  0.17083  1.0000
  C   C1385     1.0  0.86517  0.21373  0.28018  1.0000
  H   H2342     1.0  0.78683  0.03597  0.20068  1.0000
  C   C1386     1.0  0.68313  0.07020  0.42125  1.0000
  H   H2343     1.0  0.71640  0.03811  0.13559  1.0000
  C   C1387     1.0  0.70875  0.02071  0.47443  1.0000
  H   H2344     1.0  0.94837  0.24204  0.39536  1.0000
  S   S408      1.0  0.80593  0.14790  0.01431  1.0000
  H   H2345     1.0  0.69639  0.13822  0.19726  1.0000
  H   H2346     1.0  0.78805  0.09188  0.22530  1.0000
  H   H2347     1.0  0.81126  0.10384  0.20958  1.0000
  H   H2348     1.0  0.81043  0.09292  0.24153  1.0000
  H   H2349     1.0  0.77367  0.16309  0.00104  1.0000
  C   C1388     1.0  0.94669  0.22764  0.17238  1.0000
  H   H2350     1.0  0.80875  0.06520  0.02124  1.0000
  H   H2351     1.0  0.88480  0.15196  0.02513  1.0000
  H   H2352     1.0  0.75849  0.12151  0.18547  1.0000
  H   H2353     1.0  0.90839  0.22283  0.15747  1.0000
  H   H2354     1.0  0.77053  0.07330  0.42785  1.0000
  H   H2355     1.0  0.84294  0.09018  0.19592  1.0000
  H   H2356     1.0  0.74410  0.09700  0.39472  1.0000
  C   C1389     1.0  0.75692  0.15654  0.18514  1.0000
  C   C1390     1.0  0.75824  0.15627  0.99760  1.0000
  H   H2357     1.0  0.77113  0.14148  0.07680  1.0000
  C   C1391     1.0  0.85815  0.16246  0.40896  1.0000
  H   H2358     1.0  0.95681  0.25052  0.12864  1.0000
  N   N97       1.0  0.93812  0.22455  0.14488  1.0000
  C   C1392     1.0  0.79290  0.03646  0.02788  1.0000
  C   C1393     1.0  0.93874  0.25632  0.47167  1.0000
  H   H2359     1.0  0.76457  0.10383  0.37144  1.0000
  H   H2360     1.0  0.68717  0.11688  0.18042  1.0000
  C   C1394     1.0  0.75502  0.16190  0.39732  1.0000
  H   H2361     1.0  0.73522  0.06279  0.45263  1.0000
  C   C1395     1.0  0.73567  0.14595  0.19283  1.0000
  H   H2362     1.0  0.69150  0.03309  0.10675  1.0000
  C   C1396     1.0  0.73575  0.15028  0.38673  1.0000
  H   H2363     1.0  0.76895  0.15480  0.04767  1.0000
  H   H2364     1.0  0.92053  0.22398  0.19882  1.0000
  H   H2365     1.0  0.85029  0.16178  0.00660  1.0000
  H   H2366     1.0  0.77641  0.03847  0.16822  1.0000
  H   H2367     1.0  0.93143  0.24115  0.24966  1.0000
  H   H2368     1.0  0.87141  0.20366  0.29058  1.0000
  C   C1397     1.0  0.93333  0.21871  0.19692  1.0000
  H   H2369     1.0  0.74097  0.09937  0.35850  1.0000
  C   C1398     1.0  0.90565  0.25637  0.29591  1.0000
  H   H2370     1.0  0.71311  0.10705  0.36767  1.0000
  H   H2371     1.0  0.91324  0.17774  0.14054  1.0000
  S   S409      1.0  0.67745  0.08486  0.02744  1.0000
  H   H2372     1.0  0.74812  0.14462  0.07080  1.0000
  H   H2373     1.0  0.83555  0.15772  0.45329  1.0000
  C   C1399     1.0  0.71163  0.07722  0.11930  1.0000
  H   H2374     1.0  0.70750  0.10194  0.20619  1.0000
  N   N98       1.0  0.73257  0.12983  0.38684  1.0000
  H   H2375     1.0  0.84915  0.18403  0.48470  1.0000
  H   H2376     1.0  0.90759  0.25030  0.31611  1.0000
  H   H2377     1.0  0.71440  0.01581  0.06665  1.0000
  C   C1400     1.0  0.95287  0.23582  0.12413  1.0000
  C   C1401     1.0  0.72476  0.12150  0.15997  1.0000
  H   H2378     1.0  0.87565  0.14343  0.41999  1.0000
  H   H2379     1.0  0.73579  0.12184  0.11850  1.0000
  C   C1402     1.0  0.85858  0.19109  0.43023  1.0000
  H   H2380     1.0  0.71685  0.01869  0.26956  1.0000
  C   C1403     1.0  0.88900  0.23769  0.22604  1.0000
  H   H2381     1.0  0.98106  0.23890  0.10413  1.0000
  C   C1404     1.0  0.69954  0.12884  0.36624  1.0000
  H   H2382     1.0  0.95958  0.22237  0.17365  1.0000
  C   C1405     1.0  0.75622  0.01518  0.32287  1.0000
  H   H2383     1.0  0.86484  0.17078  0.39032  1.0000
  C   C1406     1.0  0.67891  0.05298  0.37116  1.0000
  S   S410      1.0  0.98282  0.25513  0.29514  1.0000
  C   C1407     1.0  0.76122  0.14261  0.06044  1.0000
  H   H2384     1.0  0.81992  0.02117  0.05000  1.0000
  H   H2385     1.0  0.74934  0.16066  0.01315  1.0000
  H   H2386     1.0  0.72162  0.02492  0.17794  1.0000
  H   H2387     1.0  0.71947  0.03029  0.43375  1.0000
  C   C1408     1.0  0.72587  0.03206  0.35991  1.0000
  C   C1409     1.0  0.85310  0.17100  0.48537  1.0000
  H   H2388     1.0  0.71745  0.11786  0.04496  1.0000
  H   H2389     1.0  0.68938  0.12090  0.35169  1.0000
  C   C1410     1.0  0.68011  0.04313  0.39532  1.0000
  H   H2390     1.0  0.90545  0.21704  0.46683  1.0000
  H   H2391     1.0  0.73550  0.02790  0.13091  1.0000
  C   C1411     1.0  0.74499  0.04729  0.35577  1.0000
  H   H2392     1.0  0.76838  0.09285  0.46347  1.0000
  H   H2393     1.0  0.84216  0.18630  0.02994  1.0000
  H   H2394     1.0  0.76270  0.09346  0.02670  1.0000
  S   S411      1.0  0.71476  0.08585  0.08522  1.0000
  H   H2395     1.0  0.75755  0.04198  0.35980  1.0000
  S   S412      1.0  0.91201  0.25738  0.06500  1.0000
  C   C1412     1.0  0.80147  0.13700  0.48303  1.0000
  H   H2396     1.0  0.75031  0.11358  0.05999  1.0000
  H   H2397     1.0  0.76823  0.09333  0.15739  1.0000
  C   C1413     1.0  0.70836  0.06553  0.17471  1.0000
  N   N99       1.0  0.89604  0.24159  0.27725  1.0000
  H   H2398     1.0  0.79261  0.10126  0.14498  1.0000
  C   C1414     1.0  0.90696  0.22734  0.27832  1.0000
  C   C1415     1.0  0.74979  0.10518  0.37576  1.0000
  H   H2399     1.0  0.73976  0.10154  0.19352  1.0000
  C   C1416     1.0  0.74469  0.11636  0.19751  1.0000
  H   H2400     1.0  0.73589  0.13858  0.44730  1.0000
  H   H2401     1.0  0.71923  0.10575  0.41333  1.0000
  N   N100      1.0  0.72967  0.12562  0.18901  1.0000
  C   C1417     1.0  0.72029  0.02512  0.31210  1.0000
  H   H2402     1.0  0.71407  0.12857  0.15300  1.0000
  C   C1418     1.0  0.97225  0.23086  0.12162  1.0000
  C   C1419     1.0  0.73705  0.12566  0.43865  1.0000
  H   H2403     1.0  0.81683  0.06979  0.21744  1.0000
  H   H2404     1.0  0.75687  0.13268  0.35849  1.0000
  H   H2405     1.0  0.86608  0.24214  0.28135  1.0000
  H   H2406     1.0  0.84239  0.15925  0.40560  1.0000
  H   H2407     1.0  0.73060  0.10219  0.99371  1.0000
  H   H2408     1.0  0.77121  0.12321  0.03842  1.0000
  N   N101      1.0  0.78913  0.01911  0.01266  1.0000
  Fe  Fe195     1.0  0.67987  0.03514  0.02745  1.0000
  H   H2409     1.0  0.72810  0.14122  0.03812  1.0000
  H   H2410     1.0  0.73914  0.07024  0.17128  1.0000
  C   C1420     1.0  0.72161  0.02203  0.08493  1.0000
  C   C1421     1.0  0.85110  0.16182  0.45781  1.0000
  C   C1422     1.0  0.74980  0.11782  0.22760  1.0000
  Fe  Fe196     1.0  0.68560  0.06251  0.23998  1.0000
  H   H2411     1.0  0.90579  0.22114  0.29927  1.0000
  H   H2412     1.0  0.89634  0.24412  0.20653  1.0000
  Fe  Fe197     1.0  0.69399  0.07107  0.05462  1.0000
  C   C1423     1.0  0.74153  0.12677  0.13834  1.0000
  H   H2413     1.0  0.86601  0.19841  0.41127  1.0000
  H   H2414     1.0  0.68226  0.09425  0.39783  1.0000
  C   C1424     1.0  0.71445  0.01124  0.28973  1.0000
  H   H2415     1.0  0.75316  0.12022  0.14235  1.0000
  H   H2416     1.0  0.76501  0.14949  0.17211  1.0000
  C   C1425     1.0  0.93407  0.22343  0.48544  1.0000
  H   H2417     1.0  0.82335  0.05155  0.03255  1.0000
  H   H2418     1.0  0.76725  0.16229  0.38282  1.0000
  H   H2419     1.0  0.98095  0.23474  0.13973  1.0000
  C   C1426     1.0  0.78327  0.09424  0.16273  1.0000
  C   C1427     1.0  0.72810  0.07709  0.13347  1.0000
  H   H2420     1.0  0.86436  0.20038  0.44674  1.0000
  C   C1428     1.0  0.78978  0.03808  0.17844  1.0000
  H   H2421     1.0  0.93462  0.22206  0.26926  1.0000
  H   H2422     1.0  0.84978  0.21028  0.28752  1.0000
  H   H2423     1.0  0.70934  0.03297  0.31286  1.0000
  H   H2424     1.0  0.93763  0.21072  0.47953  1.0000
  H   H2425     1.0  0.91168  0.25892  0.24295  1.0000
  C   C1429     1.0  0.72659  0.04285  0.07913  1.0000
  H   H2426     1.0  0.74222  0.08156  0.12313  1.0000
  H   H2427     1.0  0.74748  0.14178  0.13553  1.0000
  H   H2428     1.0  0.90290  0.19548  0.13067  1.0000
  N   N102      1.0  0.74423  0.12363  0.02062  1.0000
  H   H2429     1.0  0.73615  0.04656  0.06046  1.0000
  H   H2430     1.0  0.78632  0.10283  0.18050  1.0000
  C   C1430     1.0  0.84136  0.08812  0.17387  1.0000
  H   H2431     1.0  0.73828  0.10831  0.24071  1.0000
  C   C1431     1.0  0.95180  0.24804  0.41542  1.0000
  H   H2432     1.0  0.93644  0.20345  0.11561  1.0000
  C   C1432     1.0  0.96661  0.24306  0.46970  1.0000
  H   H2433     1.0  0.79394  0.03335  0.04983  1.0000
  H   H2434     1.0  0.89723  0.17476  0.39951  1.0000
  H   H2435     1.0  0.77309  0.06736  0.18219  1.0000
  H   H2436     1.0  0.82998  0.12505  0.99668  1.0000
  H   H2437     1.0  0.90062  0.21567  0.26565  1.0000
  C   C1433     1.0  0.85242  0.19006  0.01198  1.0000
  H   H2438     1.0  0.91349  0.18745  0.42284  1.0000
  C   C1434     1.0  0.69179  0.06590  0.16079  1.0000
  H   H2439     1.0  0.70685  0.11483  0.99609  1.0000
  H   H2440     1.0  0.75508  0.04599  0.45851  1.0000
  H   H2441     1.0  0.89674  0.19763  0.40738  1.0000
  H   H2442     1.0  0.94671  0.23491  0.10369  1.0000
  H   H2443     1.0  0.73377  0.03531  0.30458  1.0000
  H   H2444     1.0  0.67940  0.02880  0.39476  1.0000
  H   H2445     1.0  0.78056  0.04252  0.02647  1.0000
  H   H2446     1.0  0.68059  0.07165  0.12222  1.0000
  H   H2447     1.0  0.68338  0.04399  0.43862  1.0000
  C   C1435     1.0  0.71181  0.12817  0.00555  1.0000
  N   N103      1.0  0.76440  0.06741  0.48733  1.0000
  H   H2448     1.0  0.81644  0.05129  0.99746  1.0000
  H   H2449     1.0  0.77725  0.04673  0.47259  1.0000
  N   N104      1.0  0.94502  0.23939  0.46689  1.0000
  H   H2450     1.0  0.73978  0.08597  0.44157  1.0000
  H   H2451     1.0  0.73553  0.01839  0.08527  1.0000
  C   C1436     1.0  0.75481  0.13537  0.99657  1.0000
  H   H2452     1.0  0.69187  0.12680  0.38642  1.0000
  H   H2453     1.0  0.72560  0.07768  0.47244  1.0000
  C   C1437     1.0  0.92213  0.25105  0.14798  1.0000
  H   H2454     1.0  0.68384  0.01387  0.08745  1.0000
  Fe  Fe198     1.0  0.96506  0.24703  0.33435  1.0000
  H   H2455     1.0  0.92511  0.23201  0.43416  1.0000
  H   H2456     1.0  0.82834  0.18460  0.44704  1.0000
  C   C1438     1.0  0.77947  0.06612  0.43927  1.0000
  H   H2457     1.0  0.94378  0.22090  0.43406  1.0000
  C   C1439     1.0  0.89682  0.25036  0.24919  1.0000
  C   C1440     1.0  0.75698  0.08270  0.47614  1.0000
  H   H2458     1.0  0.70021  0.03024  0.47625  1.0000
  Fe  Fe199     1.0  0.67297  0.05664  0.30099  1.0000
  C   C1441     1.0  0.80693  0.01238  0.01086  1.0000
  H   H2459     1.0  0.88825  0.26043  0.24908  1.0000
  H   H2460     1.0  0.67774  0.06162  0.17134  1.0000
  H   H2461     1.0  0.74998  0.08178  0.99935  1.0000
  C   C1442     1.0  0.68994  0.01816  0.10740  1.0000
  H   H2462     1.0  0.92379  0.25492  0.46502  1.0000
  C   C1443     1.0  0.68197  0.08005  0.39709  1.0000
  H   H2463     1.0  0.89833  0.19269  0.01010  1.0000
  C   C1444     1.0  0.73839  0.07680  0.45991  1.0000
  H   H2464     1.0  0.79379  0.08479  0.48661  1.0000
  H   H2465     1.0  0.89779  0.14234  0.00145  1.0000
  H   H2466     1.0  0.69865  0.13128  0.01401  1.0000
  H   H2467     1.0  0.67890  0.07921  0.35359  1.0000
  H   H2468     1.0  0.76854  0.01246  0.33360  1.0000
  H   H2469     1.0  0.81872  0.02194  0.99811  1.0000
  H   H2470     1.0  0.80679  0.01633  0.10623  1.0000
  C   C1445     1.0  0.73885  0.10398  0.01257  1.0000
  Fe  Fe200     1.0  0.67683  0.09262  0.27120  1.0000
  H   H2471     1.0  0.67534  0.01964  0.14675  1.0000
  H   H2472     1.0  0.83585  0.20442  0.42473  1.0000
  C   C1446     1.0  0.71500  0.01506  0.16253  1.0000
  C   C1447     1.0  0.91185  0.21957  0.48687  1.0000
  H   H2473     1.0  0.72909  0.09507  0.02855  1.0000
  C   C1448     1.0  0.75577  0.09553  0.00752  1.0000
  H   H2474     1.0  0.96770  0.25126  0.41675  1.0000
  H   H2475     1.0  0.75324  0.02099  0.03911  1.0000
  N   N105      1.0  0.70936  0.01466  0.11048  1.0000
  H   H2476     1.0  0.86301  0.20316  0.01627  1.0000
  H   H2477     1.0  0.84372  0.19192  0.99453  1.0000
  H   H2478     1.0  0.93089  0.26023  0.13149  1.0000
  Fe  Fe201     1.0  0.68702  0.07027  0.99317  1.0000
  H   H2479     1.0  0.76924  0.13311  0.99292  1.0000
  H   H2480     1.0  0.85110  0.01326  0.49241  1.0000
  C   C1449     1.0  0.76226  0.13392  0.69734  1.0000
  C   C1450     1.0  0.68331  0.06704  0.62396  1.0000
  H   H2481     1.0  0.75845  0.11133  0.60302  1.0000
  C   C1451     1.0  0.75486  0.04004  0.52227  1.0000
  H   H2482     1.0  0.97060  0.22661  0.50552  1.0000
  H   H2483     1.0  0.83241  0.03866  0.56387  1.0000
  S   S413      1.0  0.72160  0.11073  0.75534  1.0000
  H   H2484     1.0  0.70159  0.01487  0.77381  1.0000
  Fe  Fe202     1.0  0.83680  0.15311  0.86130  1.0000
  S   S414      1.0  0.82649  0.17802  0.86473  1.0000
  S   S415      1.0  0.84082  0.13652  0.89855  1.0000
  Fe  Fe203     1.0  0.83903  0.15667  0.79890  1.0000
  S   S416      1.0  0.82857  0.18180  0.79821  1.0000
  S   S417      1.0  0.84723  0.14409  0.76100  1.0000
  Fe  Fe204     1.0  0.84924  0.19063  0.83183  1.0000
  S   S418      1.0  0.86848  0.21973  0.83506  1.0000
  Fe  Fe205     1.0  0.80714  0.16640  0.83106  1.0000
  S   S419      1.0  0.77496  0.16290  0.83647  1.0000
  S   S420      1.0  0.86092  0.16632  0.83064  1.0000
  S   S421      1.0  0.81628  0.14070  0.82947  1.0000
  C   C1452     1.0  0.87239  0.17616  0.64372  1.0000
  C   C1453     1.0  0.74369  0.08444  0.67430  1.0000
  H   H2485     1.0  0.73157  0.05903  0.69803  1.0000
  H   H2486     1.0  0.68193  0.04725  0.94256  1.0000
  C   C1454     1.0  0.91106  0.19706  0.96915  1.0000
  S   S422      1.0  0.96020  0.24155  0.81831  1.0000
  H   H2487     1.0  0.73396  0.07859  0.71754  1.0000
  H   H2488     1.0  0.90463  0.19641  0.67280  1.0000
  H   H2489     1.0  0.73302  0.08854  0.90088  1.0000
  Fe  Fe206     1.0  0.82136  0.14417  0.61061  1.0000
  S   S423      1.0  0.84870  0.13562  0.60871  1.0000
  S   S424      1.0  0.80859  0.15229  0.64915  1.0000
  Fe  Fe207     1.0  0.81646  0.14074  0.54961  1.0000
  S   S425      1.0  0.84349  0.13196  0.54360  1.0000
  S   S426      1.0  0.79786  0.14495  0.51529  1.0000
  Fe  Fe208     1.0  0.83246  0.11404  0.58144  1.0000
  S   S427      1.0  0.83382  0.08462  0.58622  1.0000
  Fe  Fe209     1.0  0.85673  0.15460  0.57141  1.0000
  S   S428      1.0  0.88714  0.17412  0.56365  1.0000
  S   S429      1.0  0.80458  0.12151  0.58562  1.0000
  S   S430      1.0  0.83026  0.16440  0.57502  1.0000
  C   C1455     1.0  0.78535  0.03275  0.61216  1.0000
  C   C1456     1.0  0.78062  0.04825  0.60149  1.0000
  C   C1457     1.0  0.79517  0.06468  0.59487  1.0000
  C   C1458     1.0  0.81463  0.06565  0.59858  1.0000
  C   C1459     1.0  0.81920  0.05036  0.61009  1.0000
  C   C1460     1.0  0.80468  0.03409  0.61705  1.0000
  H   H2490     1.0  0.76570  0.04745  0.59788  1.0000
  H   H2491     1.0  0.79145  0.07637  0.58610  1.0000
  H   H2492     1.0  0.83416  0.05102  0.61335  1.0000
  H   H2493     1.0  0.80856  0.02253  0.62593  1.0000
  C   C1461     1.0  0.90591  0.23716  0.56557  1.0000
  C   C1462     1.0  0.88617  0.22747  0.56669  1.0000
  C   C1463     1.0  0.88017  0.20823  0.56606  1.0000
  C   C1464     1.0  0.89387  0.19840  0.56405  1.0000
  C   C1465     1.0  0.91363  0.20809  0.56248  1.0000
  C   C1466     1.0  0.91963  0.22732  0.56345  1.0000
  H   H2494     1.0  0.87541  0.23491  0.56824  1.0000
  H   H2495     1.0  0.86493  0.20104  0.56712  1.0000
  H   H2496     1.0  0.92437  0.20065  0.56099  1.0000
  H   H2497     1.0  0.93487  0.23450  0.56275  1.0000
  H   H2498     1.0  0.75145  0.10739  0.71622  1.0000
  C   C1467     1.0  0.75087  0.11364  0.69568  1.0000
  H   H2499     1.0  0.87828  0.16783  0.70370  1.0000
  C   C1468     1.0  0.86616  0.18953  0.68729  1.0000
  H   H2500     1.0  0.75511  0.07117  0.70799  1.0000
  H   H2501     1.0  0.72913  0.08568  0.66933  1.0000
  C   C1469     1.0  0.74119  0.07289  0.70119  1.0000
  H   H2502     1.0  0.72574  0.08407  0.85730  1.0000
  C   C1470     1.0  0.89400  0.22546  0.83099  1.0000
  C   C1471     1.0  0.90364  0.21239  0.82504  1.0000
  C   C1472     1.0  0.92394  0.21748  0.82164  1.0000
  C   C1473     1.0  0.93480  0.23569  0.82400  1.0000
  C   C1474     1.0  0.92518  0.24880  0.82998  1.0000
  C   C1475     1.0  0.90488  0.24368  0.83352  1.0000
  H   H2503     1.0  0.89548  0.19834  0.82296  1.0000
  H   H2504     1.0  0.93124  0.20725  0.81697  1.0000
  H   H2505     1.0  0.80819  0.01208  0.57679  1.0000
  H   H2506     1.0  0.89752  0.25390  0.83798  1.0000
  C   C1476     1.0  0.82970  0.13880  0.93014  1.0000
  C   C1477     1.0  0.81708  0.14973  0.93285  1.0000
  C   C1478     1.0  0.80945  0.15206  0.95870  1.0000
  C   C1479     1.0  0.93186  0.25551  0.71118  1.0000
  S   S431      1.0  0.67132  0.03773  0.70818  1.0000
  C   C1480     1.0  0.83404  0.12974  0.95327  1.0000
  H   H2507     1.0  0.81343  0.15659  0.91514  1.0000
  H   H2508     1.0  0.80008  0.16088  0.96070  1.0000
  H   H2509     1.0  0.87489  0.17927  0.62142  1.0000
  H   H2510     1.0  0.84358  0.12106  0.95127  1.0000
  C   C1481     1.0  0.83563  0.14588  0.73048  1.0000
  C   C1482     1.0  0.84040  0.13732  0.70759  1.0000
  C   C1483     1.0  0.83207  0.13906  0.68264  1.0000
  C   C1484     1.0  0.81902  0.14954  0.68031  1.0000
  C   C1485     1.0  0.81413  0.15801  0.70323  1.0000
  C   C1486     1.0  0.82235  0.15615  0.72828  1.0000
  H   H2511     1.0  0.85059  0.12928  0.70921  1.0000
  H   H2512     1.0  0.83567  0.13217  0.66533  1.0000
  H   H2513     1.0  0.80399  0.16611  0.70164  1.0000
  H   H2514     1.0  0.81851  0.16274  0.74580  1.0000
  C   C1487     1.0  0.73610  0.12457  0.77890  1.0000
  C   C1488     1.0  0.72795  0.13146  0.80080  1.0000
  C   C1489     1.0  0.73997  0.14351  0.81806  1.0000
  C   C1490     1.0  0.76017  0.14837  0.81391  1.0000
  C   C1491     1.0  0.76830  0.14120  0.79232  1.0000
  C   C1492     1.0  0.75629  0.12949  0.77475  1.0000
  H   H2515     1.0  0.71240  0.12794  0.80394  1.0000
  H   H2516     1.0  0.73358  0.14914  0.83460  1.0000
  H   H2517     1.0  0.78384  0.14488  0.78889  1.0000
  H   H2518     1.0  0.76275  0.12425  0.75790  1.0000
  H   H2519     1.0  0.88875  0.20615  0.98842  1.0000
  H   H2520     1.0  0.79181  0.09992  0.85854  1.0000
  C   C1493     1.0  0.91408  0.25122  0.93359  1.0000
  C   C1494     1.0  0.67762  0.05639  0.87508  1.0000
  C   C1495     1.0  0.88417  0.16280  0.65179  1.0000
  H   H2521     1.0  0.97395  0.25093  0.75869  1.0000
  C   C1496     1.0  0.90795  0.20867  0.63286  1.0000
  H   H2522     1.0  0.97336  0.23131  0.74009  1.0000
  N   N106      1.0  0.87641  0.17717  0.98404  1.0000
  C   C1497     1.0  0.94551  0.23713  0.74363  1.0000
  H   H2523     1.0  0.86789  0.17908  0.72827  1.0000
  H   H2524     1.0  0.73541  0.11314  0.69310  1.0000
  C   C1498     1.0  0.84357  0.19859  0.64203  1.0000
  C   C1499     1.0  0.68275  0.05518  0.92374  1.0000
  H   H2525     1.0  0.81685  0.11815  0.49694  1.0000
  H   H2526     1.0  0.75407  0.08110  0.89689  1.0000
  C   C1500     1.0  0.83074  0.03561  0.54212  1.0000
  C   C1501     1.0  0.89652  0.20383  0.66036  1.0000
  H   H2527     1.0  0.74475  0.08219  0.94446  1.0000
  C   C1502     1.0  0.67665  0.04632  0.89973  1.0000
  C   C1503     1.0  0.71218  0.01821  0.95416  1.0000
  H   H2528     1.0  0.74914  0.14814  0.91344  1.0000
  C   C1504     1.0  0.96779  0.24349  0.74069  1.0000
  N   N107      1.0  0.82516  0.01527  0.53884  1.0000
  S   S432      1.0  0.69370  0.06241  0.77400  1.0000
  C   C1505     1.0  0.75204  0.09534  0.93329  1.0000
  H   H2529     1.0  0.90693  0.19645  0.62085  1.0000
  H   H2530     1.0  0.88487  0.23988  0.92061  1.0000
  H   H2531     1.0  0.68872  0.01670  0.58425  1.0000
  H   H2532     1.0  0.71467  0.02894  0.93839  1.0000
  C   C1506     1.0  0.69006  0.07420  0.92324  1.0000
  Fe  Fe210     1.0  0.69234  0.09124  0.76719  1.0000
  H   H2533     1.0  0.80533  0.04583  0.54791  1.0000
  N   N108      1.0  0.93486  0.25157  0.74064  1.0000
  H   H2534     1.0  0.86408  0.20225  0.69577  1.0000
  C   C1507     1.0  0.88219  0.15967  0.98210  1.0000
  C   C1508     1.0  0.86622  0.18059  0.95889  1.0000
  S   S433      1.0  0.76687  0.01188  0.61836  1.0000
  H   H2535     1.0  0.77737  0.09924  0.52098  1.0000
  C   C1509     1.0  0.89329  0.19335  0.98904  1.0000
  C   C1510     1.0  0.87441  0.17651  0.93123  1.0000
  H   H2536     1.0  0.90949  0.20573  0.95134  1.0000
  H   H2537     1.0  0.85560  0.01605  0.53672  1.0000
  H   H2538     1.0  0.76693  0.04518  0.53588  1.0000
  H   H2539     1.0  0.89119  0.15959  0.96348  1.0000
  H   H2540     1.0  0.74677  0.02253  0.81760  1.0000
  H   H2541     1.0  0.82491  0.06062  0.52734  1.0000
  H   H2542     1.0  0.70883  0.02840  0.63953  1.0000
  H   H2543     1.0  0.68584  0.08330  0.85565  1.0000
  H   H2544     1.0  0.92740  0.25972  0.98489  1.0000
  H   H2545     1.0  0.88920  0.15742  0.63309  1.0000
  N   N109      1.0  0.87547  0.19344  0.65900  1.0000
  C   C1511     1.0  0.89905  0.24812  0.91147  1.0000
  C   C1512     1.0  0.78359  0.02296  0.98427  1.0000
  H   H2546     1.0  0.94730  0.24627  0.95427  1.0000
  H   H2547     1.0  0.71772  0.02349  0.88337  1.0000
  H   H2548     1.0  0.88993  0.18348  0.92748  1.0000
  H   H2549     1.0  0.86654  0.18122  0.91471  1.0000
  H   H2550     1.0  0.87183  0.16160  0.92907  1.0000
  H   H2551     1.0  0.90247  0.24024  0.89448  1.0000
  H   H2552     1.0  0.91420  0.18456  0.96205  1.0000
  H   H2553     1.0  0.95661  0.25505  0.68400  1.0000
  H   H2554     1.0  0.78573  0.01791  0.53921  1.0000
  H   H2555     1.0  0.69688  0.09898  0.89795  1.0000
  H   H2556     1.0  0.80662  0.10851  0.88569  1.0000
  H   H2557     1.0  0.90590  0.25350  0.75109  1.0000
  H   H2558     1.0  0.69819  0.03074  0.81726  1.0000
  C   C1513     1.0  0.67613  0.04930  0.67604  1.0000
  H   H2559     1.0  0.73086  0.02417  0.62835  1.0000
  H   H2560     1.0  0.91641  0.24344  0.77714  1.0000
  C   C1514     1.0  0.69082  0.07637  0.64695  1.0000
  C   C1515     1.0  0.67204  0.04890  0.62725  1.0000
  S   S434      1.0  0.69803  0.08569  0.95302  1.0000
  C   C1516     1.0  0.97395  0.24116  0.49841  1.0000
  C   C1517     1.0  0.81445  0.14356  0.98195  1.0000
  H   H2561     1.0  0.90334  0.21911  0.62074  1.0000
  H   H2562     1.0  0.86558  0.19500  0.95732  1.0000
  C   C1518     1.0  0.94170  0.25085  0.90289  1.0000
  C   C1519     1.0  0.70788  0.02165  0.81565  1.0000
  C   C1520     1.0  0.71632  0.02433  0.62163  1.0000
  H   H2563     1.0  0.70655  0.04387  0.59533  1.0000
  H   H2564     1.0  0.73756  0.04967  0.83558  1.0000
  H   H2565     1.0  0.77181  0.07849  0.54263  1.0000
  H   H2566     1.0  0.73276  0.09602  0.82529  1.0000
  H   H2567     1.0  0.94224  0.23007  0.76416  1.0000
  H   H2568     1.0  0.76753  0.09884  0.93802  1.0000
  H   H2569     1.0  0.93622  0.25206  0.51667  1.0000
  H   H2570     1.0  0.85088  0.17209  0.96014  1.0000
  H   H2571     1.0  0.74739  0.07595  0.65836  1.0000
  H   H2572     1.0  0.89987  0.22470  0.72524  1.0000
  C   C1521     1.0  0.69128  0.08426  0.89851  1.0000
  H   H2573     1.0  0.97294  0.25571  0.90884  1.0000
  H   H2574     1.0  0.93836  0.22513  0.50678  1.0000
  H   H2575     1.0  0.93945  0.23628  0.90965  1.0000
  H   H2576     1.0  0.73884  0.05348  0.87089  1.0000
  H   H2577     1.0  0.79592  0.03259  0.97261  1.0000
  C   C1522     1.0  0.68722  0.06755  0.67293  1.0000
  H   H2578     1.0  0.92416  0.20425  0.97982  1.0000
  H   H2579     1.0  0.69941  0.09047  0.64466  1.0000
  H   H2580     1.0  0.91010  0.21430  0.75264  1.0000
  Fe  Fe211     1.0  0.67739  0.06307  0.55408  1.0000
  H   H2581     1.0  0.69551  0.03076  0.98003  1.0000
  C   C1523     1.0  0.71673  0.02892  0.86248  1.0000
  H   H2582     1.0  0.72715  0.03740  0.58111  1.0000
  H   H2583     1.0  0.72984  0.05262  0.60828  1.0000
  H   H2584     1.0  0.74451  0.06411  0.52249  1.0000
  H   H2585     1.0  0.92504  0.24263  0.70114  1.0000
  H   H2586     1.0  0.98996  0.24670  0.49764  1.0000
  H   H2587     1.0  0.76682  0.10368  0.99245  1.0000
  H   H2588     1.0  0.97345  0.25201  0.72207  1.0000
  C   C1524     1.0  0.90310  0.22510  0.74703  1.0000
  C   C1525     1.0  0.74920  0.05570  0.50710  1.0000
  H   H2589     1.0  0.69327  0.07478  0.69047  1.0000
  H   H2590     1.0  0.74843  0.03615  0.85823  1.0000
  H   H2591     1.0  0.84540  0.04246  0.53292  1.0000
  H   H2592     1.0  0.91328  0.23757  0.94311  1.0000
  H   H2593     1.0  0.72516  0.10758  0.85250  1.0000
  Fe  Fe212     1.0  0.68129  0.03083  0.52328  1.0000
  H   H2594     1.0  0.86869  0.21936  0.65341  1.0000
  H   H2595     1.0  0.79883  0.08711  0.67358  1.0000
  N   N110      1.0  0.75790  0.10318  0.67402  1.0000
  H   H2596     1.0  0.74612  0.11982  0.64647  1.0000
  C   C1526     1.0  0.91513  0.24422  0.75480  1.0000
  H   H2597     1.0  0.77778  0.07851  0.65586  1.0000
  H   H2598     1.0  0.77680  0.13528  0.70513  1.0000
  C   C1527     1.0  0.78769  0.09141  0.66211  1.0000
  H   H2599     1.0  0.77873  0.09790  0.70213  1.0000
  C   C1528     1.0  0.77798  0.10249  0.68061  1.0000
  C   C1529     1.0  0.75813  0.11322  0.64692  1.0000
  H   H2600     1.0  0.87154  0.20876  0.62265  1.0000
  H   H2601     1.0  0.74829  0.13260  0.87023  1.0000
  C   C1530     1.0  0.75599  0.10188  0.62129  1.0000
  H   H2602     1.0  0.77239  0.14845  0.89960  1.0000
  C   C1531     1.0  0.70140  0.01931  0.97783  1.0000
  C   C1532     1.0  0.73328  0.09762  0.84760  1.0000
  H   H2603     1.0  0.79492  0.09981  0.64386  1.0000
  H   H2604     1.0  0.78806  0.11650  0.67949  1.0000
  H   H2605     1.0  0.77166  0.12460  0.64365  1.0000
  H   H2606     1.0  0.76354  0.14185  0.67778  1.0000
  H   H2607     1.0  0.75456  0.14036  0.71221  1.0000
  H   H2608     1.0  0.76659  0.09388  0.61966  1.0000
  H   H2609     1.0  0.76229  0.11546  0.84082  1.0000
  C   C1533     1.0  0.75875  0.13934  0.90913  1.0000
  H   H2610     1.0  0.78588  0.12857  0.87344  1.0000
  H   H2611     1.0  0.74109  0.09269  0.62036  1.0000
  C   C1534     1.0  0.74884  0.12466  0.88940  1.0000
  C   C1535     1.0  0.72001  0.04024  0.60003  1.0000
  C   C1536     1.0  0.82645  0.13208  0.97907  1.0000
  H   H2612     1.0  0.87495  0.15096  0.66424  1.0000
  H   H2613     1.0  0.85693  0.16807  0.64575  1.0000
  C   C1537     1.0  0.77974  0.11615  0.88699  1.0000
  S   S435      1.0  0.68800  0.07852  0.59161  1.0000
  C   C1538     1.0  0.68501  0.07540  0.87453  1.0000
  H   H2614     1.0  0.83578  0.19618  0.66220  1.0000
  H   H2615     1.0  0.73345  0.11903  0.89671  1.0000
  N   N111      1.0  0.75813  0.10945  0.88423  1.0000
  H   H2616     1.0  0.78350  0.12057  0.90778  1.0000
  C   C1539     1.0  0.75466  0.10395  0.85530  1.0000
  H   H2617     1.0  0.92351  0.21473  0.63650  1.0000
  C   C1540     1.0  0.86572  0.20583  0.64399  1.0000
  H   H2618     1.0  0.94052  0.22631  0.72882  1.0000
  H   H2619     1.0  0.76191  0.13359  0.92875  1.0000
  H   H2620     1.0  0.78991  0.06476  0.50741  1.0000
  C   C1541     1.0  0.81669  0.04612  0.53200  1.0000
  H   H2621     1.0  0.85147  0.17991  0.68681  1.0000
  C   C1542     1.0  0.79136  0.10247  0.88052  1.0000
  H   H2622     1.0  0.76068  0.09243  0.85058  1.0000
  H   H2623     1.0  0.74730  0.13108  0.97751  1.0000
  C   C1543     1.0  0.78164  0.08667  0.52622  1.0000
  S   S436      1.0  0.69888  0.06005  0.52173  1.0000
  H   H2624     1.0  0.89730  0.16875  0.66285  1.0000
  C   C1544     1.0  0.87674  0.18134  0.70889  1.0000
  H   H2625     1.0  0.83942  0.18602  0.63043  1.0000
  H   H2626     1.0  0.93332  0.25017  0.88443  1.0000
  H   H2627     1.0  0.74518  0.10556  0.94118  1.0000
  H   H2628     1.0  0.83828  0.20898  0.63072  1.0000
  H   H2629     1.0  0.89090  0.19069  0.71350  1.0000
  H   H2630     1.0  0.88900  0.22155  0.75877  1.0000
  H   H2631     1.0  0.80894  0.01406  0.50198  1.0000
  H   H2632     1.0  0.96830  0.24889  0.51361  1.0000
  H   H2633     1.0  0.78611  0.08945  0.89270  1.0000
  C   C1545     1.0  0.74897  0.09296  0.90280  1.0000
  H   H2634     1.0  0.89792  0.21683  0.67080  1.0000
  H   H2635     1.0  0.71841  0.13893  0.98964  1.0000
  H   H2636     1.0  0.67100  0.03160  0.90035  1.0000
  H   H2637     1.0  0.84961  0.02335  0.58531  1.0000
  C   C1546     1.0  0.73657  0.04268  0.85586  1.0000
  H   H2638     1.0  0.79620  0.09130  0.53478  1.0000
  H   H2639     1.0  0.72163  0.03070  0.80674  1.0000
  C   C1547     1.0  0.78303  0.07553  0.50108  1.0000
  H   H2640     1.0  0.96591  0.25165  0.87493  1.0000
  H   H2641     1.0  0.74224  0.03203  0.53525  1.0000
  H   H2642     1.0  0.86914  0.14790  0.98027  1.0000
  H   H2643     1.0  0.77196  0.03001  0.98468  1.0000
  H   H2644     1.0  0.70590  0.03684  0.86397  1.0000
  H   H2645     1.0  0.67867  0.01344  0.61819  1.0000
  H   H2646     1.0  0.90550  0.20712  0.50016  1.0000
  N   N112      1.0  0.71018  0.01363  0.84334  1.0000
  C   C1548     1.0  0.94701  0.26053  0.94902  1.0000
  H   H2647     1.0  0.80999  0.04126  0.51286  1.0000
  H   H2648     1.0  0.84294  0.16180  0.50060  1.0000
  H   H2649     1.0  0.75844  0.03038  0.50806  1.0000
  C   C1549     1.0  0.96313  0.25854  0.89347  1.0000
  H   H2650     1.0  0.73581  0.04923  0.49650  1.0000
  H   H2651     1.0  0.90853  0.25876  0.94941  1.0000
  H   H2652     1.0  0.75486  0.16177  0.97777  1.0000
  H   H2653     1.0  0.90733  0.23083  0.49630  1.0000
  Fe  Fe213     1.0  0.67070  0.05556  0.74357  1.0000
  H   H2654     1.0  0.86783  0.17318  0.49306  1.0000
  S   S437      1.0  0.67063  0.08441  0.73481  1.0000
  H   H2655     1.0  0.77286  0.01084  0.94658  1.0000
  H   H2656     1.0  0.75350  0.09085  0.49286  1.0000
  C   C1550     1.0  0.95484  0.34356  0.48678  1.0000
  H   H2657     1.0  0.94241  0.29026  0.19990  1.0000
  H   H2658     1.0  0.99866  0.48737  0.19662  1.0000
  H   H2659     1.0  0.97265  0.37555  0.13681  1.0000
  H   H2660     1.0  0.97951  0.45729  0.12610  1.0000
  H   H2661     1.0  0.98093  0.40792  0.14309  1.0000
  H   H2662     1.0  0.98179  0.45059  0.17497  1.0000
  S   S438      1.0  0.96625  0.30244  0.38546  1.0000
  Fe  Fe214     1.0  0.94269  0.27643  0.06479  1.0000
  Fe  Fe215     1.0  0.96894  0.31649  0.06369  1.0000
  S   S439      1.0  0.97069  0.34673  0.05941  1.0000
  Fe  Fe216     1.0  0.98228  0.28762  0.03547  1.0000
  Fe  Fe217     1.0  0.97867  0.28646  0.09766  1.0000
  H   H2663     1.0  0.98799  0.27251  0.23579  1.0000
  S   S440      1.0  0.95593  0.29743  0.03124  1.0000
  S   S441      1.0  0.95241  0.29677  0.09720  1.0000
  C   C1551     1.0  0.96420  0.28149  0.22104  1.0000
  C   C1552     1.0  0.98068  0.27987  0.16863  1.0000
  C   C1553     1.0  0.97620  0.29982  0.41688  1.0000
  H   H2664     1.0  0.98320  0.42656  0.09900  1.0000
  Fe  Fe218     1.0  0.97392  0.28608  0.35181  1.0000
  N   N113      1.0  0.98826  0.36381  0.46682  1.0000
  C   C1554     1.0  0.99114  0.38172  0.04387  1.0000
  H   H2665     1.0  0.95470  0.30899  0.43904  1.0000
  H   H2666     1.0  0.99731  0.41348  0.08350  1.0000
  H   H2667     1.0  0.97725  0.38458  0.04537  1.0000
  C   C1555     1.0  0.97481  0.30198  0.46590  1.0000
  H   H2668     1.0  0.99174  0.34020  0.44608  1.0000
  C   C1556     1.0  0.97228  0.35065  0.42247  1.0000
  C   C1557     1.0  0.97828  0.39130  0.48546  1.0000
  C   C1558     1.0  0.99477  0.45417  0.16187  1.0000
  S   S442      1.0  0.95353  0.28288  0.25343  1.0000
  C   C1559     1.0  0.99346  0.45788  0.13411  1.0000
  C   C1560     1.0  0.95545  0.28594  0.19775  1.0000
  C   C1561     1.0  0.99996  0.29128  0.44436  1.0000
  S   S443      1.0  0.99588  0.30747  0.06643  1.0000
  H   H2669     1.0  0.95694  0.28894  0.15400  1.0000
  S   S444      1.0  0.99128  0.29786  0.31345  1.0000
  S   S445      1.0  0.99145  0.27868  0.13619  1.0000
  H   H2670     1.0  0.97169  0.36359  0.41197  1.0000
  H   H2671     1.0  0.00238  0.27093  0.18978  1.0000
  H   H2672     1.0  0.95826  0.34399  0.43316  1.0000
  C   C1562     1.0  0.98924  0.27511  0.19191  1.0000
  C   C1563     1.0  0.89522  0.27117  0.30121  1.0000
  C   C1564     1.0  0.98024  0.37977  0.46097  1.0000
  H   H2673     1.0  0.96782  0.30524  0.48380  1.0000
  C   C1565     1.0  0.96744  0.30419  0.44046  1.0000
  S   S446      1.0  0.94965  0.26850  0.32942  1.0000
  C   C1566     1.0  0.98952  0.35381  0.44119  1.0000
  H   H2674     1.0  0.94805  0.35324  0.47684  1.0000
  Fe  Fe219     1.0  0.96854  0.27765  0.29148  1.0000
  H   H2675     1.0  0.98945  0.38919  0.44491  1.0000
  H   H2676     1.0  0.89446  0.27936  0.28248  1.0000
  C   C1567     1.0  0.98109  0.27597  0.21802  1.0000
  C   C1568     1.0  0.96368  0.28521  0.17167  1.0000
  C   C1569     1.0  0.99093  0.29530  0.46803  1.0000
  C   C1570     1.0  0.99115  0.35839  0.12773  1.0000
  C   C1571     1.0  0.99221  0.36386  0.04922  1.0000
  H   H2677     1.0  0.98224  0.33860  0.49140  1.0000
  H   H2678     1.0  0.95109  0.33052  0.47620  1.0000
  H   H2679     1.0  0.97428  0.34146  0.40628  1.0000
  H   H2680     1.0  0.94764  0.26797  0.45860  1.0000
  S   S447      1.0  0.96829  0.26536  0.06670  1.0000
  H   H2681     1.0  0.96576  0.37551  0.45234  1.0000
  C   C1572     1.0  0.99340  0.40965  0.12826  1.0000
  H   H2682     1.0  0.92039  0.26388  0.28779  1.0000
  S   S448      1.0  0.99904  0.28239  0.99866  1.0000
  H   H2683     1.0  0.90373  0.28085  0.31554  1.0000
  H   H2684     1.0  0.97058  0.40146  0.47926  1.0000
  C   C1573     1.0  0.99259  0.29351  0.41882  1.0000
  C   C1574     1.0  0.97690  0.35090  0.48924  1.0000
  H   H2685     1.0  0.97264  0.40276  0.09570  1.0000
  H   H2686     1.0  0.00046  0.51049  0.11175  1.0000
  S   S449      1.0  0.98830  0.26392  0.35957  1.0000
  H   H2687     1.0  0.99997  0.50724  0.15983  1.0000
  C   C1575     1.0  0.98620  0.37678  0.12434  1.0000
  H   H2688     1.0  0.99321  0.38837  0.17374  1.0000
  C   C1576     1.0  0.98633  0.41309  0.09988  1.0000
  H   H2689     1.0  0.99973  0.29051  0.40067  1.0000
  H   H2690     1.0  0.88058  0.26543  0.31092  1.0000
  H   H2691     1.0  0.99184  0.35427  0.14938  1.0000
  H   H2692     1.0  0.97938  0.34750  0.11936  1.0000
  H   H2693     1.0  0.98222  0.37761  0.10282  1.0000
  H   H2694     1.0  0.00203  0.50955  0.21079  1.0000
  H   H2695     1.0  0.00238  0.36136  0.42811  1.0000
  N   N114      1.0  0.00183  0.39367  0.13108  1.0000
  H   H2696     1.0  0.99257  0.39924  0.49222  1.0000
  H   H2697     1.0  0.94739  0.26087  0.41511  1.0000
  H   H2698     1.0  0.99288  0.42758  0.93156  1.0000
  C   C1577     1.0  0.99908  0.30059  0.71451  1.0000
  C   C1578     1.0  0.93602  0.28443  0.75328  1.0000
  S   S450      1.0  0.96943  0.27080  0.56795  1.0000
  C   C1579     1.0  0.93675  0.28078  0.91663  1.0000
  Fe  Fe220     1.0  0.98926  0.30708  0.78592  1.0000
  S   S451      1.0  0.98260  0.32114  0.74771  1.0000
  S   S452      1.0  0.98490  0.31906  0.88683  1.0000
  Fe  Fe221     1.0  0.94307  0.28095  0.56847  1.0000
  Fe  Fe222     1.0  0.96817  0.32156  0.56966  1.0000
  S   S453      1.0  0.96966  0.35181  0.56899  1.0000
  H   H2699     1.0  0.99756  0.42148  0.63223  1.0000
  Fe  Fe223     1.0  0.97986  0.29141  0.59966  1.0000
  H   H2700     1.0  0.96894  0.32528  0.69438  1.0000
  S   S454      1.0  0.95511  0.30343  0.53631  1.0000
  S   S455      1.0  0.95277  0.30039  0.60210  1.0000
  C   C1580     1.0  0.98701  0.31207  0.71645  1.0000
  H   H2701     1.0  0.97566  0.45011  0.67606  1.0000
  H   H2702     1.0  0.96045  0.27420  0.74704  1.0000
  S   S456      1.0  0.99567  0.31342  0.56920  1.0000
  H   H2703     1.0  0.94543  0.29097  0.87459  1.0000
  H   H2704     1.0  0.99688  0.39692  0.90272  1.0000
  C   C1581     1.0  0.94012  0.26312  0.50073  1.0000
  S   S457      1.0  0.96703  0.29466  0.81946  1.0000
  C   C1582     1.0  0.98079  0.30849  0.66834  1.0000
  H   H2705     1.0  0.97701  0.39045  0.55999  1.0000
  H   H2706     1.0  0.92424  0.29577  0.88727  1.0000
  C   C1583     1.0  0.00114  0.40936  0.62409  1.0000
  Fe  Fe224     1.0  0.99068  0.30576  0.84822  1.0000
  H   H2707     1.0  0.92951  0.27108  0.50407  1.0000
  C   C1584     1.0  0.98353  0.31527  0.94235  1.0000
  C   C1585     1.0  0.98825  0.45832  0.63583  1.0000
  C   C1586     1.0  0.99121  0.36906  0.55922  1.0000
  H   H2708     1.0  0.96969  0.38289  0.50277  1.0000
  C   C1587     1.0  0.99252  0.40218  0.95492  1.0000
  H   H2709     1.0  0.94784  0.34088  0.50755  1.0000
  H   H2710     1.0  0.97589  0.32564  0.94194  1.0000
  H   H2711     1.0  0.96089  0.27516  0.70373  1.0000
  C   C1588     1.0  0.99563  0.36619  0.97317  1.0000
  H   H2712     1.0  0.97480  0.45944  0.62780  1.0000
  H   H2713     1.0  0.99953  0.48960  0.70102  1.0000
  C   C1589     1.0  0.98636  0.30712  0.96730  1.0000
  H   H2714     1.0  0.97945  0.35697  0.50939  1.0000
  C   C1590     1.0  0.99017  0.30976  0.91791  1.0000
  H   H2715     1.0  0.95485  0.27195  0.50393  1.0000
  H   H2716     1.0  0.92147  0.28093  0.76356  1.0000
  H   H2717     1.0  0.99112  0.40482  0.60736  1.0000
  C   C1591     1.0  0.99054  0.38722  0.55615  1.0000
  Fe  Fe225     1.0  0.98201  0.29414  0.53758  1.0000
  C   C1592     1.0  0.98875  0.45307  0.66324  1.0000
  H   H2718     1.0  0.92780  0.28664  0.93058  1.0000
  H   H2719     1.0  0.97371  0.31162  0.65061  1.0000
  H   H2720     1.0  0.96232  0.26836  0.94422  1.0000
  C   C1593     1.0  0.97815  0.31627  0.69314  1.0000
  H   H2721     1.0  0.95189  0.28911  0.91891  1.0000
  S   S458      1.0  0.00190  0.28107  0.84870  1.0000
  H   H2722     1.0  0.98981  0.36949  0.93108  1.0000
  C   C1594     1.0  0.96901  0.40415  0.66577  1.0000
  H   H2723     1.0  0.95244  0.26876  0.99027  1.0000
  H   H2724     1.0  0.94578  0.27317  0.67631  1.0000
  C   C1595     1.0  0.94528  0.26849  0.75482  1.0000
  C   C1596     1.0  0.00159  0.29270  0.68986  1.0000
  H   H2725     1.0  0.98468  0.42669  0.96617  1.0000
  H   H2726     1.0  0.94508  0.29602  0.76416  1.0000
  C   C1597     1.0  0.93192  0.28499  0.88716  1.0000
  H   H2727     1.0  0.93552  0.28949  0.73203  1.0000
  H   H2728     1.0  0.98138  0.31162  0.98598  1.0000
  C   C1598     1.0  0.94117  0.26843  0.97529  1.0000
  S   S459      1.0  0.99460  0.28503  0.63689  1.0000
  H   H2729     1.0  0.97401  0.37803  0.67150  1.0000
  H   H2730     1.0  0.96784  0.38273  0.63792  1.0000
  H   H2731     1.0  0.94655  0.26504  0.77670  1.0000
  H   H2732     1.0  0.96745  0.41381  0.64922  1.0000
  H   H2733     1.0  0.96700  0.27339  0.88828  1.0000
  H   H2734     1.0  0.97788  0.41172  0.68183  1.0000
  H   H2735     1.0  0.95426  0.39796  0.67503  1.0000
  N   N115      1.0  0.99820  0.39430  0.64584  1.0000
  H   H2736     1.0  0.92119  0.26355  0.70894  1.0000
  H   H2737     1.0  0.98267  0.35380  0.65582  1.0000
  C   C1599     1.0  0.97703  0.38883  0.65487  1.0000
  C   C1600     1.0  0.99542  0.42303  0.95241  1.0000
  C   C1601     1.0  0.99568  0.29328  0.96791  1.0000
  C   C1602     1.0  0.00214  0.37484  0.94442  1.0000
  S   S460      1.0  0.00010  0.28244  0.78296  1.0000
  H   H2738     1.0  0.97843  0.39547  0.94599  1.0000
  C   C1603     1.0  0.00020  0.29649  0.91872  1.0000
  C   C1604     1.0  0.99224  0.29639  0.66678  1.0000
  Fe  Fe226     1.0  0.97929  0.27075  0.81821  1.0000
  C   C1605     1.0  0.94991  0.26508  0.69308  1.0000
  H   H2739     1.0  0.99052  0.39850  0.97710  1.0000
  H   H2740     1.0  0.92269  0.27342  0.87674  1.0000
  H   H2741     1.0  0.98066  0.36655  0.97865  1.0000
  C   C1606     1.0  0.00227  0.37779  0.63368  1.0000
  H   H2742     1.0  0.94040  0.28265  0.97196  1.0000
  H   H2743     1.0  0.99554  0.35159  0.97381  1.0000
  C   C1607     1.0  0.00283  0.28819  0.94359  1.0000
  C   C1608     1.0  0.99840  0.36061  0.65290  1.0000
  H   H2744     1.0  0.99333  0.37376  0.61570  1.0000
  S   S461      1.0  0.99966  0.29131  0.49994  1.0000
  H   H2745     1.0  0.93334  0.26287  0.83164  1.0000
  S   S462      1.0  0.91258  0.26141  0.56691  1.0000
  H   H2746     1.0  0.89671  0.26115  0.90384  1.0000
  N   N116      1.0  0.93473  0.26107  0.92489  1.0000
  C   C1609     1.0  0.95670  0.69435  0.24508  1.0000
  S   S463      1.0  0.97375  0.76072  0.03335  1.0000
  C   C1610     1.0  0.88813  0.73510  0.21967  1.0000
  S   S464      1.0  0.98315  0.71614  0.13516  1.0000
  H   H2747     1.0  0.70377  0.62330  0.42786  1.0000
  Fe  Fe227     1.0  0.96524  0.70907  0.09859  1.0000
  S   S465      1.0  0.94475  0.68108  0.09358  1.0000
  Fe  Fe228     1.0  0.79519  0.67733  0.06724  1.0000
  S   S466      1.0  0.79852  0.70736  0.06282  1.0000
  S   S467      1.0  0.76534  0.65893  0.07934  1.0000
  Fe  Fe229     1.0  0.83852  0.68255  0.05539  1.0000
  S   S468      1.0  0.84490  0.71292  0.04941  1.0000
  S   S469      1.0  0.85983  0.66595  0.04971  1.0000
  Fe  Fe230     1.0  0.82509  0.71043  0.08654  1.0000
  S   S470      1.0  0.83257  0.72967  0.12062  1.0000
  Fe  Fe231     1.0  0.81763  0.70676  0.02617  1.0000
  H   H2748     1.0  0.70057  0.70557  0.21901  1.0000
  S   S471      1.0  0.82046  0.68040  0.09402  1.0000
  S   S472      1.0  0.81266  0.67641  0.02917  1.0000
  Fe  Fe232     1.0  0.81057  0.74659  0.30925  1.0000
  S   S473      1.0  0.79258  0.71745  0.31025  1.0000
  H   H2749     1.0  0.83882  0.62788  0.12809  1.0000
  Fe  Fe233     1.0  0.84771  0.73600  0.29838  1.0000
  S   S474      1.0  0.83245  0.70600  0.29938  1.0000
  S   S475      1.0  0.87952  0.74627  0.28757  1.0000
  Fe  Fe234     1.0  0.81093  0.71467  0.27395  1.0000
  S   S476      1.0  0.79673  0.69955  0.23793  1.0000
  Fe  Fe235     1.0  0.81587  0.71210  0.33576  1.0000
  S   S477      1.0  0.80647  0.69440  0.37449  1.0000
  S   S478      1.0  0.82722  0.74437  0.27100  1.0000
  S   S479      1.0  0.83290  0.74156  0.33656  1.0000
  Fe  Fe236     1.0  0.95797  0.71750  0.35905  1.0000
  H   H2750     1.0  0.99353  0.63709  0.30799  1.0000
  S   S480      1.0  0.92696  0.71411  0.37167  1.0000
  S   S481      1.0  0.96753  0.70788  0.31991  1.0000
  S   S482      1.0  0.97270  0.70147  0.38541  1.0000
  H   H2751     1.0  0.69708  0.73165  0.30954  1.0000
  H   H2752     1.0  0.97977  0.69110  0.18424  1.0000
  H   H2753     1.0  0.94256  0.65653  0.03850  1.0000
  C   C1611     1.0  0.76785  0.74735  0.34533  1.0000
  C   C1612     1.0  0.75219  0.74342  0.36424  1.0000
  C   C1613     1.0  0.69571  0.74477  0.30101  1.0000
  H   H2754     1.0  0.93294  0.71274  0.03032  1.0000
  H   H2755     1.0  0.94802  0.74347  0.23237  1.0000
  H   H2756     1.0  0.77198  0.73633  0.33640  1.0000
  H   H2757     1.0  0.74451  0.72937  0.36975  1.0000
  H   H2758     1.0  0.72445  0.67081  0.48969  1.0000
  H   H2759     1.0  0.82517  0.64364  0.07652  1.0000
  C   C1614     1.0  0.89271  0.73675  0.31019  1.0000
  C   C1615     1.0  0.88322  0.72555  0.33238  1.0000
  H   H2760     1.0  0.80497  0.62978  0.14771  1.0000
  C   C1616     1.0  0.91394  0.72219  0.34710  1.0000
  C   C1617     1.0  0.92344  0.73316  0.32469  1.0000
  C   C1618     1.0  0.91280  0.74047  0.30624  1.0000
  H   H2761     1.0  0.88643  0.70969  0.36800  1.0000
  C   C1619     1.0  0.69965  0.67128  0.13580  1.0000
  H   H2762     1.0  0.93899  0.73629  0.32185  1.0000
  C   C1620     1.0  0.93583  0.69198  0.19146  1.0000
  C   C1621     1.0  0.82207  0.72114  0.15286  1.0000
  C   C1622     1.0  0.80784  0.70439  0.15636  1.0000
  C   C1623     1.0  0.80008  0.69786  0.18255  1.0000
  C   C1624     1.0  0.80677  0.70787  0.20532  1.0000
  C   C1625     1.0  0.82099  0.72455  0.20168  1.0000
  C   C1626     1.0  0.82830  0.73133  0.17553  1.0000
  H   H2763     1.0  0.80273  0.69656  0.13892  1.0000
  H   H2764     1.0  0.78910  0.68493  0.18522  1.0000
  H   H2765     1.0  0.82639  0.73229  0.21895  1.0000
  H   H2766     1.0  0.83890  0.74449  0.17282  1.0000
  C   C1627     1.0  0.83326  0.71635  0.45386  1.0000
  C   C1628     1.0  0.81844  0.69998  0.45411  1.0000
  C   C1629     1.0  0.81064  0.69309  0.42958  1.0000
  C   C1630     1.0  0.81765  0.70248  0.40469  1.0000
  C   C1631     1.0  0.83282  0.71855  0.40448  1.0000
  C   C1632     1.0  0.84043  0.72556  0.42895  1.0000
  H   H2767     1.0  0.81261  0.69287  0.47317  1.0000
  H   H2768     1.0  0.79898  0.68061  0.42991  1.0000
  H   H2769     1.0  0.83869  0.72565  0.38551  1.0000
  H   H2770     1.0  0.85167  0.73834  0.42850  1.0000
  C   C1633     1.0  0.92085  0.67795  0.08274  1.0000
  C   C1634     1.0  0.91063  0.66045  0.07552  1.0000
  C   C1635     1.0  0.89205  0.65717  0.06559  1.0000
  C   C1636     1.0  0.88305  0.67120  0.06339  1.0000
  C   C1637     1.0  0.89297  0.68874  0.07115  1.0000
  C   C1638     1.0  0.91195  0.69215  0.08058  1.0000
  H   H2771     1.0  0.91724  0.64936  0.07725  1.0000
  H   H2772     1.0  0.88457  0.64361  0.05962  1.0000
  H   H2773     1.0  0.88620  0.69971  0.06943  1.0000
  H   H2774     1.0  0.91959  0.70571  0.08615  1.0000
  H   H2775     1.0  0.95594  0.75885  0.42254  1.0000
  H   H2776     1.0  0.81570  0.59563  0.10243  1.0000
  C   C1639     1.0  0.74661  0.66808  0.45949  1.0000
  H   H2777     1.0  0.74683  0.68811  0.48989  1.0000
  H   H2778     1.0  0.79227  0.64627  0.14157  1.0000
  C   C1640     1.0  0.71853  0.63278  0.03827  1.0000
  C   C1641     1.0  0.73059  0.64128  0.05865  1.0000
  C   C1642     1.0  0.75051  0.64874  0.05314  1.0000
  C   C1643     1.0  0.75830  0.64766  0.02708  1.0000
  C   C1644     1.0  0.93760  0.68494  0.26119  1.0000
  S   S483      1.0  0.95370  0.73321  0.09994  1.0000
  H   H2779     1.0  0.72440  0.64204  0.07869  1.0000
  C   C1645     1.0  0.95598  0.71429  0.99887  1.0000
  H   H2780     1.0  0.68233  0.74826  0.16405  1.0000
  C   C1646     1.0  0.87995  0.74323  0.17387  1.0000
  H   H2781     1.0  0.73752  0.70258  0.25912  1.0000
  H   H2782     1.0  0.67285  0.67783  0.22834  1.0000
  H   H2783     1.0  0.80285  0.74087  0.48675  1.0000
  H   H2784     1.0  0.91994  0.68628  0.19019  1.0000
  C   C1647     1.0  0.96337  0.74491  0.23054  1.0000
  H   H2785     1.0  0.68737  0.74643  0.38166  1.0000
  H   H2786     1.0  0.75080  0.65912  0.47507  1.0000
  H   H2787     1.0  0.88988  0.71107  0.18186  1.0000
  H   H2788     1.0  0.95611  0.70826  0.23874  1.0000
  N   N117      1.0  0.89584  0.73973  0.19061  1.0000
  C   C1648     1.0  0.80674  0.75566  0.48081  1.0000
  H   H2789     1.0  0.93798  0.70428  0.20352  1.0000
  H   H2790     1.0  0.78127  0.58026  0.09930  1.0000
  H   H2791     1.0  0.94610  0.67902  0.46002  1.0000
  H   H2792     1.0  0.96342  0.71722  0.48728  1.0000
  C   C1649     1.0  0.94151  0.74933  0.41953  1.0000
  H   H2793     1.0  0.76648  0.74734  0.18364  1.0000
  H   H2794     1.0  0.93614  0.69322  0.27882  1.0000
  H   H2795     1.0  0.76054  0.67735  0.45098  1.0000
  H   H2796     1.0  0.81278  0.63363  0.03688  1.0000
  C   C1650     1.0  0.67129  0.62011  0.12066  1.0000
  C   C1651     1.0  0.99710  0.70392  0.21664  1.0000
  H   H2797     1.0  0.86964  0.73006  0.16868  1.0000
  H   H2798     1.0  0.78944  0.62050  0.02782  1.0000
  C   C1652     1.0  0.73883  0.66731  0.41051  1.0000
  H   H2799     1.0  0.92017  0.74915  0.28910  1.0000
  Fe  Fe237     1.0  0.97287  0.74126  0.13509  1.0000
  H   H2800     1.0  0.92048  0.76019  0.17080  1.0000
  H   H2801     1.0  0.92538  0.71435  0.99568  1.0000
  C   C1653     1.0  0.68633  0.70699  0.22389  1.0000
  H   H2802     1.0  0.85926  0.71703  0.21075  1.0000
  S   S484      1.0  0.70327  0.74408  0.21674  1.0000
  H   H2803     1.0  0.81156  0.60634  0.13201  1.0000
  C   C1654     1.0  0.80561  0.60262  0.11196  1.0000
  H   H2804     1.0  0.91552  0.71314  0.14722  1.0000
  H   H2805     1.0  0.73240  0.68884  0.38595  1.0000
  H   H2806     1.0  0.74699  0.72373  0.21939  1.0000
  H   H2807     1.0  0.70319  0.62704  0.04272  1.0000
  C   C1655     1.0  0.95667  0.68029  0.47633  1.0000
  H   H2808     1.0  0.80561  0.60306  0.05907  1.0000
  C   C1656     1.0  0.90214  0.72371  0.18066  1.0000
  H   H2809     1.0  0.71567  0.68632  0.00197  1.0000
  C   C1657     1.0  0.97659  0.69049  0.46297  1.0000
  H   H2810     1.0  0.69347  0.65844  0.12535  1.0000
  H   H2811     1.0  0.99994  0.75025  0.18284  1.0000
  H   H2812     1.0  0.92468  0.75271  0.20335  1.0000
  H   H2813     1.0  0.92483  0.68419  0.24886  1.0000
  H   H2814     1.0  0.75453  0.67392  0.40619  1.0000
  C   C1658     1.0  0.89900  0.74423  0.41105  1.0000
  C   C1659     1.0  0.92697  0.75265  0.44103  1.0000
  H   H2815     1.0  0.00200  0.53352  0.17457  1.0000
  H   H2816     1.0  0.94297  0.73525  0.42159  1.0000
  H   H2817     1.0  0.93238  0.74991  0.46118  1.0000
  H   H2818     1.0  0.89866  0.72483  0.13649  1.0000
  H   H2819     1.0  0.68074  0.72513  0.34752  1.0000
  S   S485      1.0  0.98204  0.74369  0.35849  1.0000
  H   H2820     1.0  0.73351  0.69347  0.42090  1.0000
  H   H2821     1.0  0.67154  0.62151  0.07704  1.0000
  H   H2822     1.0  0.76951  0.70727  0.42189  1.0000
  S   S486      1.0  0.95925  0.74632  0.17527  1.0000
  H   H2823     1.0  0.87610  0.70510  0.22334  1.0000
  N   N118      1.0  0.80505  0.61910  0.09452  1.0000
  H   H2824     1.0  0.81230  0.75815  0.21947  1.0000
  S   S487      1.0  0.84236  0.72628  0.48418  1.0000
  H   H2825     1.0  0.94229  0.69647  0.17069  1.0000
  S   S488      1.0  0.98695  0.66628  0.33870  1.0000
  H   H2826     1.0  0.96054  0.66069  0.01168  1.0000
  C   C1660     1.0  0.79743  0.61224  0.06751  1.0000
  H   H2827     1.0  0.71264  0.67700  0.40826  1.0000
  C   C1661     1.0  0.72862  0.68243  0.40673  1.0000
  H   H2828     1.0  0.91338  0.72099  0.19388  1.0000
  H   H2829     1.0  0.93265  0.68373  0.02567  1.0000
  H   H2830     1.0  0.73429  0.65789  0.39369  1.0000
  C   C1662     1.0  0.70126  0.63701  0.42679  1.0000
  H   H2831     1.0  0.71169  0.68004  0.12288  1.0000
  H   H2832     1.0  0.73297  0.73175  0.24343  1.0000
  H   H2833     1.0  0.97653  0.70392  0.45366  1.0000
  C   C1663     1.0  0.99017  0.74751  0.44880  1.0000
  N   N119      1.0  0.76301  0.74773  0.23932  1.0000
  C   C1664     1.0  0.74755  0.72978  0.23968  1.0000
  C   C1665     1.0  0.91015  0.72519  0.15106  1.0000
  H   H2834     1.0  0.68590  0.63500  0.43346  1.0000
  C   C1666     1.0  0.78224  0.74462  0.23144  1.0000
  H   H2835     1.0  0.83066  0.64847  0.12463  1.0000
  H   H2836     1.0  0.87568  0.74922  0.13137  1.0000
  H   H2837     1.0  0.77974  0.72348  0.39502  1.0000
  C   C1667     1.0  0.78597  0.58816  0.11753  1.0000
  H   H2838     1.0  0.73596  0.63189  0.41765  1.0000
  H   H2839     1.0  0.93507  0.65553  0.00439  1.0000
  H   H2840     1.0  0.78067  0.72895  0.45689  1.0000
  N   N120      1.0  0.73542  0.65677  0.43759  1.0000
  C   C1668     1.0  0.74281  0.64020  0.43464  1.0000
  C   C1669     1.0  0.71423  0.65007  0.44606  1.0000
  C   C1670     1.0  0.99366  0.74661  0.25213  1.0000
  H   H2841     1.0  0.70065  0.74569  0.27928  1.0000
  H   H2842     1.0  0.68809  0.67833  0.13717  1.0000
  C   C1671     1.0  0.82534  0.63132  0.08911  1.0000
  H   H2843     1.0  0.86772  0.72258  0.33550  1.0000
  H   H2844     1.0  0.85171  0.64678  0.10662  1.0000
  H   H2845     1.0  0.70779  0.66158  0.44867  1.0000
  C   C1672     1.0  0.79784  0.62700  0.04510  1.0000
  H   H2846     1.0  0.67201  0.70143  0.32248  1.0000
  H   H2847     1.0  0.96710  0.71873  0.01430  1.0000
  H   H2848     1.0  0.98006  0.68239  0.44622  1.0000
  C   C1673     1.0  0.74672  0.75758  0.37644  1.0000
  H   H2849     1.0  0.76322  0.71093  0.25603  1.0000
  C   C1674     1.0  0.94737  0.68336  0.01865  1.0000
  H   H2850     1.0  0.67083  0.71564  0.17249  1.0000
  C   C1675     1.0  0.91331  0.75611  0.19113  1.0000
  H   H2851     1.0  0.76840  0.63092  0.42725  1.0000
  H   H2852     1.0  0.75163  0.67945  0.12652  1.0000
  N   N121      1.0  0.72276  0.65978  0.16746  1.0000
  C   C1676     1.0  0.71970  0.64800  0.19342  1.0000
  C   C1677     1.0  0.72406  0.64775  0.14422  1.0000
  C   C1678     1.0  0.70541  0.66722  0.16479  1.0000
  C   C1679     1.0  0.74114  0.67500  0.16965  1.0000
  C   C1680     1.0  0.71577  0.65723  0.21960  1.0000
  C   C1681     1.0  0.74065  0.63860  0.14469  1.0000
  H   H2853     1.0  0.73886  0.70673  0.03178  1.0000
  C   C1682     1.0  0.74866  0.68725  0.14391  1.0000
  H   H2854     1.0  0.70739  0.63552  0.19180  1.0000
  H   H2855     1.0  0.73251  0.64300  0.19737  1.0000
  H   H2856     1.0  0.72582  0.65544  0.12433  1.0000
  H   H2857     1.0  0.71027  0.63665  0.14337  1.0000
  H   H2858     1.0  0.69210  0.65733  0.17418  1.0000
  H   H2859     1.0  0.70729  0.67989  0.17619  1.0000
  H   H2860     1.0  0.73943  0.68433  0.18578  1.0000
  H   H2861     1.0  0.75310  0.66938  0.17608  1.0000
  H   H2862     1.0  0.70284  0.66238  0.21856  1.0000
  H   H2863     1.0  0.71283  0.64691  0.23684  1.0000
  H   H2864     1.0  0.72849  0.66840  0.22479  1.0000
  H   H2865     1.0  0.73864  0.62826  0.16170  1.0000
  H   H2866     1.0  0.74066  0.63121  0.12566  1.0000
  H   H2867     1.0  0.75502  0.64872  0.14513  1.0000
  Fe  Fe238     1.0  0.97962  0.74709  0.07256  1.0000
  H   H2868     1.0  0.92260  0.73735  0.14664  1.0000
  C   C1683     1.0  0.00299  0.74884  0.22626  1.0000
  H   H2869     1.0  0.88272  0.74628  0.22781  1.0000
  H   H2870     1.0  0.76266  0.69718  0.14813  1.0000
  H   H2871     1.0  0.73874  0.69538  0.13823  1.0000
  N   N122      1.0  0.96164  0.68429  0.22127  1.0000
  C   C1684     1.0  0.96803  0.66832  0.23232  1.0000
  C   C1685     1.0  0.97739  0.69725  0.20372  1.0000
  C   C1686     1.0  0.94449  0.67730  0.20406  1.0000
  C   C1687     1.0  0.97560  0.65720  0.21118  1.0000
  H   H2872     1.0  0.82401  0.75277  0.44572  1.0000
  H   H2873     1.0  0.97950  0.67282  0.24715  1.0000
  H   H2874     1.0  0.95596  0.65843  0.24413  1.0000
  H   H2875     1.0  0.96829  0.69672  0.26003  1.0000
  H   H2876     1.0  0.97304  0.70969  0.19763  1.0000
  H   H2877     1.0  0.95710  0.68911  0.03523  1.0000
  H   H2878     1.0  0.94851  0.67014  0.18648  1.0000
  H   H2879     1.0  0.98094  0.64670  0.22214  1.0000
  H   H2880     1.0  0.96401  0.64979  0.19817  1.0000
  H   H2881     1.0  0.98798  0.66565  0.19838  1.0000
  H   H2882     1.0  0.79169  0.75539  0.38820  1.0000
  C   C1688     1.0  0.76487  0.64412  0.42922  1.0000
  H   H2883     1.0  0.90628  0.73805  0.39541  1.0000
  N   N123      1.0  0.90628  0.74155  0.43879  1.0000
  H   H2884     1.0  0.87509  0.70938  0.43081  1.0000
  C   C1689     1.0  0.90503  0.72158  0.44321  1.0000
  C   C1690     1.0  0.91418  0.67366  0.49252  1.0000
  C   C1691     1.0  0.89405  0.74774  0.45970  1.0000
  H   H2885     1.0  0.97164  0.76006  0.47177  1.0000
  C   C1692     1.0  0.88444  0.70856  0.44793  1.0000
  C   C1693     1.0  0.67064  0.69125  0.22914  1.0000
  S   S489      1.0  0.72840  0.75209  0.40206  1.0000
  C   C1694     1.0  0.98638  0.75890  0.00261  1.0000
  H   H2886     1.0  0.91370  0.71926  0.46048  1.0000
  H   H2887     1.0  0.91163  0.71656  0.42543  1.0000
  S   S490      1.0  0.99761  0.75844  0.10799  1.0000
  H   H2888     1.0  0.72984  0.71770  0.99413  1.0000
  C   C1695     1.0  0.99825  0.66625  0.30674  1.0000
  H   H2889     1.0  0.87840  0.74149  0.45714  1.0000
  H   H2890     1.0  0.76997  0.65224  0.40996  1.0000
  H   H2891     1.0  0.88341  0.73688  0.41013  1.0000
  C   C1696     1.0  0.94879  0.70772  0.49157  1.0000
  H   H2892     1.0  0.88535  0.69426  0.44953  1.0000
  H   H2893     1.0  0.87734  0.71102  0.46718  1.0000
  H   H2894     1.0  0.98843  0.69237  0.47732  1.0000
  C   C1697     1.0  0.75639  0.75526  0.18957  1.0000
  H   H2895     1.0  0.70614  0.75613  0.31068  1.0000
  C   C1698     1.0  0.67516  0.74738  0.30278  1.0000
  H   H2896     1.0  0.74974  0.71932  0.28166  1.0000
  H   H2897     1.0  0.76000  0.72634  0.41676  1.0000
  H   H2898     1.0  0.73046  0.68897  0.46383  1.0000
  C   C1699     1.0  0.79202  0.62956  0.10656  1.0000
  C   C1700     1.0  0.99257  0.74872  0.20265  1.0000
  H   H2899     1.0  0.73532  0.74371  0.28573  1.0000
  H   H2900     1.0  0.86500  0.71737  0.24565  1.0000
  H   H2901     1.0  0.93782  0.75212  0.39847  1.0000
  H   H2902     1.0  0.77037  0.70287  0.99977  1.0000
  H   H2903     1.0  0.77665  0.62289  0.10215  1.0000
  H   H2904     1.0  0.77322  0.65098  0.44625  1.0000
  H   H2905     1.0  0.73884  0.63095  0.45317  1.0000
  H   H2906     1.0  0.99603  0.70970  0.23673  1.0000
  H   H2907     1.0  0.79530  0.64340  0.09651  1.0000
  C   C1701     1.0  0.78810  0.73229  0.43644  1.0000
  H   H2908     1.0  0.91319  0.66129  0.48078  1.0000
  H   H2909     1.0  0.83419  0.62419  0.07707  1.0000
  H   H2910     1.0  0.70293  0.64251  0.40548  1.0000
  H   H2911     1.0  0.94169  0.70746  0.47186  1.0000
  H   H2912     1.0  0.89985  0.73383  0.23322  1.0000
  H   H2913     1.0  0.81041  0.74525  0.39577  1.0000
  Fe  Fe239     1.0  0.98470  0.69440  0.34629  1.0000
  H   H2914     1.0  0.80008  0.72578  0.43644  1.0000
  C   C1702     1.0  0.89382  0.71826  0.35078  1.0000
  H   H2915     1.0  0.77448  0.59423  0.12466  1.0000
  C   C1703     1.0  0.74631  0.63882  0.00688  1.0000
  Fe  Fe240     1.0  0.99751  0.72679  0.38253  1.0000
  H   H2916     1.0  0.93281  0.66651  0.21519  1.0000
  H   H2917     1.0  0.73758  0.68321  0.03982  1.0000
  C   C1704     1.0  0.89856  0.74494  0.48972  1.0000
  C   C1705     1.0  0.74986  0.71500  0.26044  1.0000
  C   C1706     1.0  0.88610  0.75497  0.14708  1.0000
  C   C1707     1.0  0.77351  0.72207  0.41614  1.0000
  H   H2918     1.0  0.93729  0.67116  0.26941  1.0000
  C   C1708     1.0  0.94644  0.66291  0.01774  1.0000
  H   H2919     1.0  0.71235  0.64278  0.46637  1.0000
  H   H2920     1.0  0.76514  0.73148  0.00174  1.0000
  Fe  Fe241     1.0  0.99298  0.73262  0.32096  1.0000
  C   C1709     1.0  0.73630  0.67964  0.47628  1.0000
  N   N124      1.0  0.79603  0.75268  0.43122  1.0000
  H   H2921     1.0  0.96640  0.74296  0.27401  1.0000
  H   H2922     1.0  0.75664  0.68015  0.00287  1.0000
  C   C1710     1.0  0.87118  0.71760  0.22463  1.0000
  C   C1711     1.0  0.68357  0.72451  0.22462  1.0000
  C   C1712     1.0  0.93745  0.71869  0.00948  1.0000
  C   C1713     1.0  0.72642  0.63130  0.01243  1.0000
  C   C1714     1.0  0.97375  0.74453  0.25420  1.0000
  C   C1715     1.0  0.83692  0.63876  0.11393  1.0000
  H   H2923     1.0  0.76832  0.75628  0.42139  1.0000
  C   C1716     1.0  0.97272  0.74682  0.20468  1.0000
  H   H2924     1.0  0.77892  0.62314  0.14790  1.0000
  H   H2925     1.0  0.75921  0.70134  0.04478  1.0000
  H   H2926     1.0  0.77357  0.65343  0.02249  1.0000
  H   H2927     1.0  0.98188  0.69077  0.00077  1.0000
  S   S491      1.0  0.99034  0.72231  0.06958  1.0000
  H   H2928     1.0  0.78207  0.60390  0.06991  1.0000
  H   H2929     1.0  0.78749  0.57819  0.13369  1.0000
  C   C1717     1.0  0.67883  0.74987  0.36494  1.0000
  H   H2930     1.0  0.78103  0.73523  0.21442  1.0000
  H   H2931     1.0  0.79109  0.63747  0.05228  1.0000
  C   C1718     1.0  0.79235  0.63203  0.13760  1.0000
  C   C1719     1.0  0.74706  0.69646  0.03122  1.0000
  H   H2932     1.0  0.95671  0.66600  0.48165  1.0000
  C   C1720     1.0  0.75512  0.69423  0.00249  1.0000
  C   C1721     1.0  0.80370  0.75611  0.40202  1.0000
  H   H2933     1.0  0.87128  0.75040  0.18610  1.0000
  H   H2934     1.0  0.68128  0.61182  0.12146  1.0000
  C   C1722     1.0  0.99990  0.64984  0.29656  1.0000
  H   H2935     1.0  0.94051  0.73371  0.01087  1.0000
  H   H2936     1.0  0.78742  0.73741  0.24835  1.0000
  C   C1723     1.0  0.68413  0.73932  0.14749  1.0000
  H   H2937     1.0  0.91503  0.68527  0.47806  1.0000
  H   H2938     1.0  0.74145  0.74713  0.18558  1.0000
  H   H2939     1.0  0.77095  0.74781  0.28139  1.0000
  H   H2940     1.0  0.98469  0.75004  0.42935  1.0000
  H   H2941     1.0  0.69894  0.73773  0.14890  1.0000
  H   H2942     1.0  0.90059  0.75564  0.13834  1.0000
  C   C1724     1.0  0.98290  0.75322  0.47278  1.0000
  C   C1725     1.0  0.76454  0.75578  0.26693  1.0000
  C   C1726     1.0  0.74550  0.75731  0.28060  1.0000
  H   H2943     1.0  0.67456  0.71083  0.28752  1.0000
  H   H2944     1.0  0.68354  0.74630  0.12768  1.0000
  Fe  Fe242     1.0  0.67954  0.61351  0.99544  1.0000
  H   H2945     1.0  0.67446  0.71100  0.13799  1.0000
  H   H2946     1.0  0.67117  0.59788  0.36241  1.0000
  H   H2947     1.0  0.77174  0.75615  0.45607  1.0000
  C   C1727     1.0  0.81225  0.75926  0.45021  1.0000
  H   H2948     1.0  0.68884  0.76060  0.35162  1.0000
  C   C1728     1.0  0.73648  0.63651  0.87283  1.0000
  Fe  Fe243     1.0  0.98098  0.74462  0.63164  1.0000
  H   H2949     1.0  0.93154  0.75413  0.69347  1.0000
  S   S492      1.0  0.99028  0.71908  0.63640  1.0000
  H   H2950     1.0  0.88520  0.74328  0.50268  1.0000
  Fe  Fe244     1.0  0.97114  0.70967  0.60147  1.0000
  S   S493      1.0  0.95041  0.68161  0.59917  1.0000
  Fe  Fe245     1.0  0.80092  0.68123  0.55436  1.0000
  S   S494      1.0  0.81004  0.71193  0.55182  1.0000
  S   S495      1.0  0.76820  0.67041  0.55694  1.0000
  Fe  Fe246     1.0  0.84306  0.68009  0.55912  1.0000
  S   S496      1.0  0.85462  0.71044  0.55648  1.0000
  S   S497      1.0  0.86266  0.66193  0.56612  1.0000
  Fe  Fe247     1.0  0.82963  0.70986  0.58548  1.0000
  S   S498      1.0  0.83421  0.72741  0.62226  1.0000
  Fe  Fe248     1.0  0.83367  0.70896  0.52318  1.0000
  C   C1729     1.0  0.76453  0.70144  0.73992  1.0000
  S   S499      1.0  0.81914  0.67941  0.58996  1.0000
  S   S500      1.0  0.82362  0.67835  0.52370  1.0000
  Fe  Fe249     1.0  0.80664  0.73397  0.80772  1.0000
  S   S501      1.0  0.79314  0.70395  0.80585  1.0000
  H   H2951     1.0  0.92825  0.70317  0.76193  1.0000
  Fe  Fe250     1.0  0.84697  0.72977  0.81326  1.0000
  S   S502      1.0  0.83666  0.69924  0.81172  1.0000
  C   C1730     1.0  0.75344  0.74933  0.88527  1.0000
  Fe  Fe251     1.0  0.81863  0.70482  0.77779  1.0000
  S   S503      1.0  0.81340  0.68873  0.73979  1.0000
  Fe  Fe252     1.0  0.81231  0.70165  0.83983  1.0000
  S   S504      1.0  0.80139  0.68280  0.87681  1.0000
  S   S505      1.0  0.83073  0.73523  0.77721  1.0000
  S   S506      1.0  0.82408  0.73180  0.84375  1.0000
  Fe  Fe253     1.0  0.96803  0.72180  0.85841  1.0000
  C   C1731     1.0  0.67419  0.72173  0.63911  1.0000
  S   S507      1.0  0.93646  0.70708  0.86666  1.0000
  S   S508      1.0  0.98333  0.71918  0.81888  1.0000
  S   S509      1.0  0.99005  0.71446  0.88428  1.0000
  H   H2952     1.0  0.68461  0.64226  0.91341  1.0000
  H   H2953     1.0  0.71505  0.67914  0.94075  1.0000
  H   H2954     1.0  0.73458  0.71916  0.95883  1.0000
  C   C1732     1.0  0.77413  0.73741  0.85556  1.0000
  C   C1733     1.0  0.76437  0.73705  0.88074  1.0000
  H   H2955     1.0  0.87681  0.72476  0.64554  1.0000
  H   H2956     1.0  0.84762  0.68061  0.90674  1.0000
  H   H2957     1.0  0.67678  0.74939  0.85747  1.0000
  H   H2958     1.0  0.78277  0.72808  0.85235  1.0000
  H   H2959     1.0  0.76572  0.72758  0.89692  1.0000
  C   C1734     1.0  0.98466  0.74464  0.71592  1.0000
  C   C1735     1.0  0.91216  0.74576  0.83887  1.0000
  C   C1736     1.0  0.89362  0.73543  0.83266  1.0000
  C   C1737     1.0  0.88856  0.71641  0.83622  1.0000
  C   C1738     1.0  0.90187  0.70779  0.84649  1.0000
  C   C1739     1.0  0.92040  0.71812  0.85276  1.0000
  C   C1740     1.0  0.92557  0.73712  0.84879  1.0000
  H   H2960     1.0  0.90438  0.75281  0.74754  1.0000
  H   H2961     1.0  0.87441  0.70832  0.83121  1.0000
  H   H2962     1.0  0.89789  0.69307  0.84940  1.0000
  H   H2963     1.0  0.67102  0.71522  0.65996  1.0000
  H   H2964     1.0  0.74565  0.69844  0.93520  1.0000
  C   C1741     1.0  0.82779  0.71678  0.65492  1.0000
  C   C1742     1.0  0.83528  0.72623  0.67784  1.0000
  C   C1743     1.0  0.83079  0.71790  0.70405  1.0000
  C   C1744     1.0  0.81876  0.70003  0.70749  1.0000
  C   C1745     1.0  0.81115  0.69065  0.68462  1.0000
  C   C1746     1.0  0.81557  0.69901  0.65846  1.0000
  H   H2965     1.0  0.84472  0.74000  0.67526  1.0000
  H   H2966     1.0  0.83691  0.72519  0.72147  1.0000
  H   H2967     1.0  0.80180  0.67684  0.68713  1.0000
  H   H2968     1.0  0.80937  0.69173  0.64107  1.0000
  C   C1747     1.0  0.80943  0.71105  0.95758  1.0000
  C   C1748     1.0  0.80847  0.69253  0.95645  1.0000
  C   C1749     1.0  0.80548  0.68383  0.93170  1.0000
  C   C1750     1.0  0.80342  0.69360  0.90795  1.0000
  C   C1751     1.0  0.80366  0.71195  0.90928  1.0000
  C   C1752     1.0  0.80682  0.72068  0.93396  1.0000
  H   H2969     1.0  0.81043  0.68496  0.97443  1.0000
  H   H2970     1.0  0.80520  0.66961  0.93085  1.0000
  H   H2971     1.0  0.80132  0.71940  0.89135  1.0000
  H   H2972     1.0  0.80720  0.73492  0.93477  1.0000
  C   C1753     1.0  0.92624  0.67759  0.58937  1.0000
  C   C1754     1.0  0.91809  0.69154  0.58096  1.0000
  C   C1755     1.0  0.89859  0.68716  0.57338  1.0000
  C   C1756     1.0  0.88728  0.66886  0.57433  1.0000
  C   C1757     1.0  0.89566  0.65514  0.58239  1.0000
  C   C1758     1.0  0.91491  0.65945  0.58984  1.0000
  H   H2973     1.0  0.92673  0.70560  0.58031  1.0000
  H   H2974     1.0  0.89232  0.69788  0.56695  1.0000
  H   H2975     1.0  0.88714  0.64099  0.58304  1.0000
  H   H2976     1.0  0.92104  0.64859  0.59612  1.0000
  S   S510      1.0  0.70559  0.74212  0.71041  1.0000
  H   H2977     1.0  0.80096  0.73608  0.71984  1.0000
  H   H2978     1.0  0.78751  0.72130  0.69647  1.0000
  C   C1759     1.0  0.97309  0.69217  0.98303  1.0000
  H   H2979     1.0  0.69464  0.75781  0.81440  1.0000
  C   C1760     1.0  0.86247  0.66595  0.65103  1.0000
  C   C1761     1.0  0.76048  0.64108  0.52327  1.0000
  C   C1762     1.0  0.75332  0.65343  0.53775  1.0000
  C   C1763     1.0  0.73338  0.65164  0.53862  1.0000
  C   C1764     1.0  0.72062  0.63756  0.52535  1.0000
  H   H2980     1.0  0.85255  0.69639  0.63293  1.0000
  H   H2981     1.0  0.76162  0.65814  0.85757  1.0000
  H   H2982     1.0  0.72774  0.66111  0.54988  1.0000
  H   H2983     1.0  0.70528  0.63623  0.52651  1.0000
  H   H2984     1.0  0.68883  0.62211  0.92967  1.0000
  N   N125      1.0  0.71570  0.63214  0.88326  1.0000
  C   C1765     1.0  0.70775  0.61169  0.88705  1.0000
  H   H2985     1.0  0.69283  0.59480  0.63568  1.0000
  C   C1766     1.0  0.71504  0.64128  0.90974  1.0000
  C   C1767     1.0  0.71657  0.60246  0.90967  1.0000
  C   C1768     1.0  0.89495  0.68827  0.65163  1.0000
  H   H2986     1.0  0.69185  0.60771  0.89120  1.0000
  C   C1769     1.0  0.87953  0.71702  0.62795  1.0000
  C   C1770     1.0  0.87064  0.75059  0.90395  1.0000
  H   H2987     1.0  0.68805  0.63479  0.87056  1.0000
  H   H2988     1.0  0.72532  0.63793  0.92408  1.0000
  C   C1771     1.0  0.96473  0.69152  0.52255  1.0000
  H   H2989     1.0  0.74669  0.66599  0.88096  1.0000
  H   H2990     1.0  0.67801  0.73789  0.56343  1.0000
  H   H2991     1.0  0.75249  0.63771  0.98693  1.0000
  H   H2992     1.0  0.73233  0.60466  0.90610  1.0000
  H   H2993     1.0  0.67972  0.71196  0.62743  1.0000
  H   H2994     1.0  0.68375  0.70587  0.81752  1.0000
  H   H2995     1.0  0.97827  0.70237  0.51652  1.0000
  H   H2996     1.0  0.95116  0.69392  0.93005  1.0000
  H   H2997     1.0  0.93663  0.73873  0.79262  1.0000
  H   H2998     1.0  0.87670  0.70727  0.68251  1.0000
  H   H2999     1.0  0.83401  0.64642  0.65230  1.0000
  H   H3000     1.0  0.86967  0.69050  0.61126  1.0000
  C   C1772     1.0  0.93846  0.71707  0.51208  1.0000
  C   C1773     1.0  0.70756  0.59791  0.57493  1.0000
  C   C1774     1.0  0.87008  0.68259  0.70690  1.0000
  H   H3001     1.0  0.92387  0.68643  0.98041  1.0000
  H   H3002     1.0  0.86639  0.66763  0.70524  1.0000
  H   H3003     1.0  0.90045  0.67169  0.50479  1.0000
  C   C1775     1.0  0.94137  0.69855  0.94426  1.0000
  N   N126      1.0  0.86952  0.71770  0.92072  1.0000
  H   H3004     1.0  0.95898  0.69641  0.54116  1.0000
  H   H3005     1.0  0.67741  0.67591  0.73053  1.0000
  H   H3006     1.0  0.97953  0.73100  0.70866  1.0000
  H   H3007     1.0  0.71127  0.58970  0.55849  1.0000
  H   H3008     1.0  0.70976  0.58748  0.90998  1.0000
  H   H3009     1.0  0.92673  0.68176  0.53114  1.0000
  C   C1776     1.0  0.89027  0.71968  0.91181  1.0000
  S   S511      1.0  0.78754  0.75257  0.80500  1.0000
  H   H3010     1.0  0.89413  0.72819  0.89263  1.0000
  S   S512      1.0  0.74339  0.75018  0.91795  1.0000
  H   H3011     1.0  0.95284  0.73393  0.76792  1.0000
  S   S513      1.0  0.98090  0.75211  0.86047  1.0000
  H   H3012     1.0  0.72096  0.74691  0.79322  1.0000
  C   C1777     1.0  0.98407  0.75972  0.69904  1.0000
  H   H3013     1.0  0.92159  0.71740  0.72600  1.0000
  H   H3014     1.0  0.98105  0.67806  0.54816  1.0000
  C   C1778     1.0  0.72645  0.60968  0.58638  1.0000
  H   H3015     1.0  0.86701  0.65661  0.66543  1.0000
  H   H3016     1.0  0.69924  0.60657  0.56536  1.0000
  H   H3017     1.0  0.87500  0.74202  0.94444  1.0000
  Fe  Fe254     1.0  0.99789  0.74893  0.82243  1.0000
  H   H3018     1.0  0.86062  0.74680  0.88716  1.0000
  C   C1779     1.0  0.75250  0.71715  0.68115  1.0000
  H   H3019     1.0  0.86580  0.66155  0.63051  1.0000
  H   H3020     1.0  0.94660  0.71352  0.94566  1.0000
  H   H3021     1.0  0.73948  0.66141  0.84653  1.0000
  C   C1780     1.0  0.86802  0.69664  0.63103  1.0000
  H   H3022     1.0  0.76144  0.67489  0.92805  1.0000
  H   H3023     1.0  0.84639  0.68732  0.87214  1.0000
  H   H3024     1.0  0.91003  0.75682  0.49634  1.0000
  H   H3025     1.0  0.69450  0.63849  0.82182  1.0000
  H   H3026     1.0  0.73582  0.60053  0.59038  1.0000
  H   H3027     1.0  0.70988  0.60492  0.86804  1.0000
  H   H3028     1.0  0.92023  0.72934  0.92215  1.0000
  H   H3029     1.0  0.69806  0.61746  0.83362  1.0000
  H   H3030     1.0  0.69383  0.61711  0.60743  1.0000
  H   H3031     1.0  0.91300  0.70907  0.78848  1.0000
  C   C1781     1.0  0.75518  0.67525  0.94885  1.0000
  H   H3032     1.0  0.93976  0.74520  0.85383  1.0000
  C   C1782     1.0  0.70398  0.63248  0.83429  1.0000
  C   C1783     1.0  0.86321  0.70416  0.94474  1.0000
  C   C1784     1.0  0.86787  0.69296  0.68037  1.0000
  H   H3033     1.0  0.76467  0.69375  0.75943  1.0000
  H   H3034     1.0  0.75320  0.61722  0.49913  1.0000
  H   H3035     1.0  0.93627  0.70704  0.79543  1.0000
  H   H3036     1.0  0.71984  0.65637  0.90651  1.0000
  S   S514      1.0  0.99545  0.72010  0.57027  1.0000
  C   C1785     1.0  0.72332  0.68357  0.98328  1.0000
  H   H3037     1.0  0.92710  0.69618  0.93498  1.0000
  H   H3038     1.0  0.90551  0.74182  0.93757  1.0000
  H   H3039     1.0  0.86283  0.70010  0.98878  1.0000
  C   C1786     1.0  0.90575  0.72795  0.93200  1.0000
  H   H3040     1.0  0.70868  0.58027  0.63229  1.0000
  H   H3041     1.0  0.90694  0.74134  0.70355  1.0000
  H   H3042     1.0  0.93251  0.66310  0.51757  1.0000
  H   H3043     1.0  0.84214  0.71153  0.90114  1.0000
  H   H3044     1.0  0.95817  0.66342  0.54076  1.0000
  H   H3045     1.0  0.77614  0.69898  0.72661  1.0000
  C   C1787     1.0  0.90830  0.74168  0.75924  1.0000
  H   H3046     1.0  0.92186  0.73173  0.68226  1.0000
  N   N127      1.0  0.72470  0.62050  0.61101  1.0000
  C   C1788     1.0  0.74248  0.63665  0.61116  1.0000
  C   C1789     1.0  0.70746  0.62801  0.60911  1.0000
  H   H3047     1.0  0.70396  0.58932  0.66440  1.0000
  C   C1790     1.0  0.72402  0.60916  0.63689  1.0000
  C   C1791     1.0  0.76220  0.63254  0.60706  1.0000
  C   C1792     1.0  0.70392  0.63941  0.63293  1.0000
  H   H3048     1.0  0.74192  0.64709  0.59512  1.0000
  H   H3049     1.0  0.74314  0.64371  0.63061  1.0000
  H   H3050     1.0  0.70877  0.63665  0.59004  1.0000
  H   H3051     1.0  0.73378  0.61898  0.56901  1.0000
  C   C1793     1.0  0.85708  0.71050  0.89726  1.0000
  H   H3052     1.0  0.73679  0.60369  0.63742  1.0000
  H   H3053     1.0  0.72548  0.61759  0.65511  1.0000
  H   H3054     1.0  0.77390  0.64549  0.60842  1.0000
  H   H3055     1.0  0.76458  0.62283  0.62289  1.0000
  H   H3056     1.0  0.76414  0.62753  0.58660  1.0000
  H   H3057     1.0  0.75115  0.74324  0.69382  1.0000
  H   H3058     1.0  0.70093  0.63120  0.65242  1.0000
  H   H3059     1.0  0.73789  0.62813  0.85524  1.0000
  H   H3060     1.0  0.88494  0.68766  0.71424  1.0000
  H   H3061     1.0  0.78678  0.75761  0.74389  1.0000
  H   H3062     1.0  0.88031  0.72066  0.97669  1.0000
  H   H3063     1.0  0.69450  0.73539  0.82506  1.0000
  H   H3064     1.0  0.74268  0.75270  0.73940  1.0000
  Fe  Fe255     1.0  0.98544  0.74533  0.56894  1.0000
  H   H3065     1.0  0.73955  0.72510  0.71704  1.0000
  C   C1794     1.0  0.69130  0.74352  0.80763  1.0000
  H   H3066     1.0  0.85285  0.69418  0.68035  1.0000
  H   H3067     1.0  0.83581  0.66393  0.67598  1.0000
  C   C1795     1.0  0.84029  0.66124  0.65515  1.0000
  H   H3068     1.0  0.75501  0.70413  0.68818  1.0000
  H   H3069     1.0  0.94468  0.73226  0.71923  1.0000
  H   H3070     1.0  0.90299  0.70140  0.66013  1.0000
  H   H3071     1.0  0.86249  0.71891  0.87825  1.0000
  N   N128      1.0  0.92851  0.74125  0.75099  1.0000
  C   C1796     1.0  0.98647  0.70758  0.96461  1.0000
  H   H3072     1.0  0.89527  0.71906  0.62431  1.0000
  H   H3073     1.0  0.72446  0.66942  0.98704  1.0000
  H   H3074     1.0  0.99288  0.71956  0.97667  1.0000
  C   C1797     1.0  0.68973  0.70495  0.72120  1.0000
  C   C1798     1.0  0.74064  0.71618  0.97839  1.0000
  H   H3075     1.0  0.74564  0.63283  0.88857  1.0000
  C   C1799     1.0  0.75300  0.73059  0.70403  1.0000
  C   C1800     1.0  0.85526  0.69052  0.89028  1.0000
  H   H3076     1.0  0.89888  0.66067  0.65255  1.0000
  N   N129      1.0  0.87337  0.68570  0.65416  1.0000
  C   C1801     1.0  0.79591  0.74955  0.68284  1.0000
  N   N130      1.0  0.77054  0.73488  0.72127  1.0000
  C   C1802     1.0  0.97061  0.67435  0.53179  1.0000
  H   H3077     1.0  0.76311  0.72332  0.66427  1.0000
  H   H3078     1.0  0.70410  0.73487  0.64772  1.0000
  H   H3079     1.0  0.89988  0.68929  0.62992  1.0000
  H   H3080     1.0  0.91893  0.67797  0.66336  1.0000
  H   H3081     1.0  0.76788  0.70395  0.95116  1.0000
  H   H3082     1.0  0.69675  0.64359  0.94448  1.0000
  C   C1803     1.0  0.78887  0.73461  0.70576  1.0000
  H   H3083     1.0  0.73797  0.71380  0.67244  1.0000
  C   C1804     1.0  0.75664  0.75680  0.74950  1.0000
  C   C1805     1.0  0.75302  0.69456  0.95301  1.0000
  H   H3084     1.0  0.89245  0.70625  0.90700  1.0000
  H   H3085     1.0  0.88206  0.72641  0.73972  1.0000
  Fe  Fe256     1.0  0.67988  0.60534  0.49553  1.0000
  C   C1806     1.0  0.93875  0.68784  0.97191  1.0000
  S   S515      1.0  0.87731  0.74669  0.81990  1.0000
  H   H3086     1.0  0.97103  0.67929  0.97207  1.0000
  H   H3087     1.0  0.99073  0.73551  0.75602  1.0000
  C   C1807     1.0  0.69140  0.73897  0.64048  1.0000
  S   S516      1.0  0.71183  0.61999  0.98684  1.0000
  H   H3088     1.0  0.93823  0.67363  0.96685  1.0000
  C   C1808     1.0  0.92787  0.71169  0.77953  1.0000
  H   H3089     1.0  0.94544  0.71860  0.53189  1.0000
  C   C1809     1.0  0.99076  0.74717  0.74286  1.0000
  C   C1810     1.0  0.70641  0.59242  0.64216  1.0000
  C   C1811     1.0  0.90286  0.67320  0.66439  1.0000
  H   H3090     1.0  0.68846  0.74855  0.65530  1.0000
  H   H3091     1.0  0.78389  0.75184  0.67106  1.0000
  H   H3092     1.0  0.71597  0.65193  0.63481  1.0000
  H   H3093     1.0  0.69542  0.67330  0.96547  1.0000
  H   H3094     1.0  0.85090  0.73376  0.93446  1.0000
  C   C1812     1.0  0.69505  0.63689  0.92477  1.0000
  H   H3095     1.0  0.97924  0.71190  0.94724  1.0000
  S   S517      1.0  0.96026  0.73425  0.59879  1.0000
  H   H3096     1.0  0.71862  0.63684  0.82427  1.0000
  C   C1813     1.0  0.86625  0.73582  0.92734  1.0000
  H   H3097     1.0  0.87058  0.69313  0.94364  1.0000
  C   C1814     1.0  0.70353  0.63906  0.86348  1.0000
  N   N131      1.0  0.74301  0.69711  0.97934  1.0000
  H   H3098     1.0  0.70756  0.65425  0.86229  1.0000
  H   H3099     1.0  0.77581  0.64225  0.52270  1.0000
  C   C1815     1.0  0.77311  0.75014  0.83494  1.0000
  H   H3100     1.0  0.71363  0.60692  0.93013  1.0000
  H   H3101     1.0  0.87454  0.72327  0.60991  1.0000
  C   C1816     1.0  0.70954  0.68337  0.95996  1.0000
  C   C1817     1.0  0.77353  0.75378  0.73183  1.0000
  H   H3102     1.0  0.69088  0.64401  0.62906  1.0000
  H   H3103     1.0  0.84748  0.69710  0.94439  1.0000
  H   H3104     1.0  0.83378  0.66852  0.64009  1.0000
  H   H3105     1.0  0.70450  0.70423  0.72144  1.0000
  C   C1818     1.0  0.68603  0.72190  0.71600  1.0000
  C   C1819     1.0  0.67438  0.68884  0.72635  1.0000
  H   H3106     1.0  0.85961  0.68470  0.72269  1.0000
  S   S518      1.0  0.97134  0.75709  0.66871  1.0000
  H   H3107     1.0  0.69569  0.74611  0.62032  1.0000
  H   H3108     1.0  0.85494  0.71931  0.97811  1.0000
  H   H3109     1.0  0.89814  0.66979  0.68594  1.0000
  H   H3110     1.0  0.69819  0.58827  0.59024  1.0000
  H   H3111     1.0  0.75520  0.74968  0.76976  1.0000
  C   C1820     1.0  0.93122  0.67691  0.51172  1.0000
  H   H3112     1.0  0.90453  0.71887  0.95036  1.0000
  H   H3113     1.0  0.70660  0.69678  0.95657  1.0000
  H   H3114     1.0  0.75012  0.69547  0.73170  1.0000
  C   C1821     1.0  0.89162  0.72411  0.75589  1.0000
  C   C1822     1.0  0.74632  0.65670  0.86410  1.0000
  H   H3115     1.0  0.78011  0.72579  0.75903  1.0000
  H   H3116     1.0  0.74120  0.66453  0.95065  1.0000
  C   C1823     1.0  0.86570  0.71171  0.97350  1.0000
  C   C1824     1.0  0.72767  0.62507  0.51111  1.0000
  C   C1825     1.0  0.74765  0.62689  0.51006  1.0000
  H   H3117     1.0  0.88582  0.75388  0.89585  1.0000
  H   H3118     1.0  0.77056  0.73172  0.96551  1.0000
  N   N132      1.0  0.95033  0.68908  0.50049  1.0000
  H   H3119     1.0  0.86940  0.68816  0.88501  1.0000
  S   S519      1.0  0.71188  0.60716  0.49444  1.0000
  C   C1826     1.0  0.92189  0.74045  0.69983  1.0000
  C   C1827     1.0  0.76758  0.72172  0.74566  1.0000
  C   C1828     1.0  0.93721  0.73217  0.77297  1.0000
  H   H3120     1.0  0.93945  0.73110  0.50403  1.0000
  H   H3121     1.0  0.88234  0.72094  0.77488  1.0000
  H   H3122     1.0  0.92289  0.70974  0.51524  1.0000
  H   H3123     1.0  0.68105  0.72038  0.58534  1.0000
  C   C1829     1.0  0.70636  0.74337  0.78472  1.0000
  H   H3124     1.0  0.75467  0.72207  0.75839  1.0000
  H   H3125     1.0  0.70401  0.72978  0.77600  1.0000
  S   S520      1.0  0.81400  0.72261  0.98794  1.0000
  H   H3126     1.0  0.89602  0.71171  0.75166  1.0000
  H   H3127     1.0  0.76539  0.67181  0.96307  1.0000
  S   S521      1.0  0.98025  0.75697  0.52783  1.0000
  C   C1830     1.0  0.75926  0.73180  0.98127  1.0000
  C   C1831     1.0  0.92949  0.73207  0.72458  1.0000
  C   C1832     1.0  0.99010  0.75005  0.49808  1.0000
  H   H3128     1.0  0.99869  0.70292  0.95616  1.0000
  H   H3129     1.0  0.99943  0.67810  0.75131  1.0000
  C   C1833     1.0  0.98761  0.75922  0.95292  1.0000
  H   H3130     1.0  0.90771  0.74540  0.78071  1.0000
  H   H3131     1.0  0.90296  0.73238  0.49392  1.0000
  H   H3132     1.0  0.70678  0.75387  0.76839  1.0000
  H   H3133     1.0  0.97802  0.66904  0.51525  1.0000
  H   H3134     1.0  0.75576  0.74504  0.97860  1.0000
  H   H3135     1.0  0.80605  0.74550  0.66848  1.0000
  H   H3136     1.0  0.96153  0.72368  0.98101  1.0000
  H   H3137     1.0  0.67548  0.74635  0.75816  1.0000
  S   S522      1.0  0.66998  0.63071  0.49543  1.0000
  H   H3138     1.0  0.98105  0.76073  0.93388  1.0000
  H   H3139     1.0  0.91619  0.76048  0.83607  1.0000
  H   H3140     1.0  0.67264  0.71620  0.77295  1.0000
  N   N133      1.0  0.95381  0.69465  0.99249  1.0000
  H   H3141     1.0  0.00263  0.69602  0.79278  1.0000
  N   N134      1.0  0.67034  0.73698  0.80063  1.0000
  C   C1834     1.0  0.94103  0.76073  0.74685  1.0000
  C   C1835     1.0  0.81924  0.77424  0.39461  1.0000
  H   H3142     1.0  0.74905  0.86719  0.06965  1.0000
  Fe  Fe257     1.0  0.67405  0.79645  0.22746  1.0000
  C   C1836     1.0  0.67725  0.78583  0.09496  1.0000
  C   C1837     1.0  0.69579  0.78351  0.09566  1.0000
  Fe  Fe258     1.0  0.72668  0.81744  0.41909  1.0000
  S   S523      1.0  0.69851  0.81470  0.44184  1.0000
  S   S524      1.0  0.74793  0.84437  0.40617  1.0000
  H   H3143     1.0  0.78386  0.78703  0.41290  1.0000
  Fe  Fe259     1.0  0.68670  0.79332  0.41158  1.0000
  H   H3144     1.0  0.79120  0.88937  0.03057  1.0000
  Fe  Fe260     1.0  0.70562  0.79220  0.46667  1.0000
  H   H3145     1.0  0.89568  0.76260  0.45671  1.0000
  S   S525      1.0  0.71442  0.79761  0.38742  1.0000
  S   S526      1.0  0.73478  0.79643  0.44529  1.0000
  Fe  Fe261     1.0  0.75344  0.98353  0.41149  1.0000
  S   S527      1.0  0.78236  0.98748  0.39055  1.0000
  C   C1838     1.0  0.70539  0.99051  0.99496  1.0000
  Fe  Fe262     1.0  0.74359  0.94185  0.40980  1.0000
  S   S528      1.0  0.77193  0.94297  0.38865  1.0000
  S   S529      1.0  0.72068  0.91549  0.42105  1.0000
  Fe  Fe263     1.0  0.78404  0.96422  0.41905  1.0000
  S   S530      1.0  0.81008  0.96431  0.44355  1.0000
  Fe  Fe264     1.0  0.76700  0.96604  0.36251  1.0000
  S   S531      1.0  0.76197  0.97009  0.31766  1.0000
  S   S532      1.0  0.75598  0.96165  0.44157  1.0000
  S   S533      1.0  0.73779  0.96345  0.38239  1.0000
  Fe  Fe265     1.0  0.71189  0.81316  0.19604  1.0000
  S   S534      1.0  0.73756  0.83836  0.18883  1.0000
  S   S535      1.0  0.70426  0.79548  0.23482  1.0000
  S   S536      1.0  0.70860  0.78884  0.17009  1.0000
  Fe  Fe266     1.0  0.77141  0.98293  0.12586  1.0000
  S   S537      1.0  0.80198  0.98171  0.12895  1.0000
  H   H3146     1.0  0.72111  0.84095  0.36178  1.0000
  Fe  Fe267     1.0  0.75523  0.94119  0.13922  1.0000
  S   S538      1.0  0.78499  0.93803  0.14233  1.0000
  S   S539      1.0  0.72938  0.91623  0.14830  1.0000
  Fe  Fe268     1.0  0.79086  0.96342  0.16621  1.0000
  S   S540      1.0  0.80631  0.96466  0.20589  1.0000
  Fe  Fe269     1.0  0.79210  0.95665  0.10474  1.0000
  S   S541      1.0  0.80983  0.95072  0.06936  1.0000
  S   S542      1.0  0.76069  0.96598  0.16462  1.0000
  S   S543      1.0  0.76192  0.95846  0.10001  1.0000
  C   C1839     1.0  0.73487  0.85969  0.17682  1.0000
  C   C1840     1.0  0.75123  0.87329  0.16642  1.0000
  C   C1841     1.0  0.74972  0.89048  0.15704  1.0000
  C   C1842     1.0  0.73186  0.89442  0.15840  1.0000
  C   C1843     1.0  0.71546  0.88074  0.16853  1.0000
  C   C1844     1.0  0.71694  0.86350  0.17774  1.0000
  H   H3147     1.0  0.76518  0.87053  0.16562  1.0000
  H   H3148     1.0  0.76244  0.90069  0.14895  1.0000
  H   H3149     1.0  0.70156  0.88359  0.16965  1.0000
  H   H3150     1.0  0.70425  0.85331  0.18597  1.0000
  C   C1845     1.0  0.77545  0.96938  0.28732  1.0000
  C   C1846     1.0  0.76788  0.97327  0.26268  1.0000
  C   C1847     1.0  0.77737  0.97213  0.23773  1.0000
  C   C1848     1.0  0.79461  0.96711  0.23710  1.0000
  C   C1849     1.0  0.80242  0.96352  0.26178  1.0000
  C   C1850     1.0  0.79284  0.96458  0.28686  1.0000
  H   H3151     1.0  0.75449  0.97708  0.26287  1.0000
  H   H3152     1.0  0.77137  0.97522  0.21901  1.0000
  H   H3153     1.0  0.81582  0.95972  0.26147  1.0000
  H   H3154     1.0  0.79885  0.96161  0.30573  1.0000
  H   H3155     1.0  0.69881  0.00391  0.29184  1.0000
  H   H3156     1.0  0.74100  0.91300  0.47885  1.0000
  C   C1851     1.0  0.79092  0.96001  0.02475  1.0000
  C   C1852     1.0  0.80781  0.95699  0.03497  1.0000
  C   C1853     1.0  0.82344  0.95769  0.01699  1.0000
  H   H3157     1.0  0.83324  0.77437  0.40347  1.0000
  C   C1854     1.0  0.75663  0.77574  0.36919  1.0000
  H   H3158     1.0  0.77871  0.95935  0.03849  1.0000
  H   H3159     1.0  0.83650  0.95535  0.02464  1.0000
  H   H3160     1.0  0.83997  0.96219  0.47793  1.0000
  C   C1855     1.0  0.73957  0.86374  0.40960  1.0000
  C   C1856     1.0  0.74867  0.87971  0.39409  1.0000
  C   C1857     1.0  0.74266  0.89554  0.39707  1.0000
  C   C1858     1.0  0.72765  0.89554  0.41576  1.0000
  C   C1859     1.0  0.71822  0.87945  0.43083  1.0000
  C   C1860     1.0  0.72432  0.86363  0.42796  1.0000
  H   H3161     1.0  0.76040  0.87984  0.37971  1.0000
  H   H3162     1.0  0.74948  0.90762  0.38457  1.0000
  H   H3163     1.0  0.70658  0.87937  0.44532  1.0000
  H   H3164     1.0  0.71757  0.85158  0.44055  1.0000
  H   H3165     1.0  0.91652  0.77239  0.39933  1.0000
  N   N135      1.0  0.78228  0.89696  0.46896  1.0000
  H   H3166     1.0  0.70461  0.83860  0.02390  1.0000
  H   H3167     1.0  0.69702  0.82858  0.37249  1.0000
  H   H3168     1.0  0.77623  0.85875  0.48744  1.0000
  H   H3169     1.0  0.67473  0.83124  0.13839  1.0000
  H   H3170     1.0  0.75890  0.92207  0.45248  1.0000
  N   N136      1.0  0.71554  0.84226  0.09311  1.0000
  C   C1861     1.0  0.70376  0.83898  0.06801  1.0000
  H   H3171     1.0  0.74878  0.76417  0.30006  1.0000
  C   C1862     1.0  0.69911  0.78603  0.04610  1.0000
  H   H3172     1.0  0.82305  0.91581  0.46347  1.0000
  C   C1863     1.0  0.73117  0.99624  0.46963  1.0000
  C   C1864     1.0  0.76127  0.89675  0.47297  1.0000
  H   H3173     1.0  0.73997  0.98695  0.46799  1.0000
  H   H3174     1.0  0.76964  0.89641  0.03822  1.0000
  H   H3175     1.0  0.70432  0.83245  0.33665  1.0000
  H   H3176     1.0  0.72672  0.85204  0.03657  1.0000
  H   H3177     1.0  0.77807  0.88095  0.43302  1.0000
  H   H3178     1.0  0.81487  0.78638  0.40055  1.0000
  C   C1865     1.0  0.77090  0.86168  0.46745  1.0000
  H   H3179     1.0  0.76506  0.86947  0.01116  1.0000
  H   H3180     1.0  0.79272  0.92630  0.46064  1.0000
  C   C1866     1.0  0.75657  0.91532  0.47313  1.0000
  C   C1867     1.0  0.73837  0.87408  0.07699  1.0000
  C   C1868     1.0  0.81538  0.00875  0.03818  1.0000
  H   H3181     1.0  0.70025  0.98823  0.13276  1.0000
  H   H3182     1.0  0.69949  0.99200  0.33468  1.0000
  S   S544      1.0  0.79843  0.77041  0.31577  1.0000
  C   C1869     1.0  0.78483  0.90106  0.03052  1.0000
  H   H3183     1.0  0.67482  0.83297  0.32674  1.0000
  H   H3184     1.0  0.73143  0.87887  0.05953  1.0000
  H   H3185     1.0  0.75576  0.00798  0.30361  1.0000
  H   H3186     1.0  0.67921  0.88076  0.33058  1.0000
  H   H3187     1.0  0.67721  0.76197  0.30721  1.0000
  H   H3188     1.0  0.75632  0.82852  0.11123  1.0000
  H   H3189     1.0  0.68639  0.79775  0.29363  1.0000
  H   H3190     1.0  0.81929  0.77410  0.44720  1.0000
  H   H3191     1.0  0.74150  0.83812  0.07341  1.0000
  S   S545      1.0  0.71437  0.78737  0.01678  1.0000
  H   H3192     1.0  0.70979  0.86584  0.34010  1.0000
  H   H3193     1.0  0.68652  0.84674  0.40907  1.0000
  H   H3194     1.0  0.70632  0.98584  0.07109  1.0000
  N   N137      1.0  0.67961  0.85585  0.35322  1.0000
  H   H3195     1.0  0.68300  0.98385  0.08790  1.0000
  H   H3196     1.0  0.88495  0.76903  0.14967  1.0000
  H   H3197     1.0  0.78610  0.91353  0.43155  1.0000
  H   H3198     1.0  0.70589  0.86331  0.37576  1.0000
  H   H3199     1.0  0.72523  0.81820  0.08791  1.0000
  C   C1870     1.0  0.67422  0.01013  0.12991  1.0000
  H   H3200     1.0  0.68705  0.98387  0.37954  1.0000
  C   C1871     1.0  0.73147  0.83298  0.09124  1.0000
  H   H3201     1.0  0.79854  0.78909  0.44237  1.0000
  C   C1872     1.0  0.67400  0.79702  0.30705  1.0000
  H   H3202     1.0  0.79226  0.91080  0.04561  1.0000
  C   C1873     1.0  0.81009  0.96218  0.47949  1.0000
  H   H3203     1.0  0.82851  0.00414  0.03401  1.0000
  H   H3204     1.0  0.70190  0.78171  0.11486  1.0000
  C   C1874     1.0  0.77815  0.76544  0.33846  1.0000
  H   H3205     1.0  0.67428  0.99649  0.13807  1.0000
  C   C1875     1.0  0.70796  0.99457  0.11352  1.0000
  C   C1876     1.0  0.70277  0.00376  0.34815  1.0000
  H   H3206     1.0  0.70989  0.83670  0.13666  1.0000
  C   C1877     1.0  0.70238  0.83356  0.11733  1.0000
  H   H3207     1.0  0.89696  0.77673  0.19426  1.0000
  H   H3208     1.0  0.69647  0.96812  0.09623  1.0000
  H   H3209     1.0  0.72867  0.86488  0.11830  1.0000
  H   H3210     1.0  0.77365  0.78639  0.44687  1.0000
  C   C1878     1.0  0.79877  0.76201  0.22368  1.0000
  C   C1879     1.0  0.81475  0.91530  0.44485  1.0000
  H   H3211     1.0  0.78040  0.96170  0.48823  1.0000
  H   H3212     1.0  0.72157  0.00353  0.16436  1.0000
  H   H3213     1.0  0.71098  0.86888  0.09782  1.0000
  H   H3214     1.0  0.70271  0.97977  0.01073  1.0000
  H   H3215     1.0  0.77227  0.85056  0.45424  1.0000
  H   H3216     1.0  0.75252  0.78675  0.37871  1.0000
  C   C1880     1.0  0.77232  0.77966  0.35011  1.0000
  H   H3217     1.0  0.90759  0.77191  0.22544  1.0000
  S   S546      1.0  0.76514  0.01013  0.11579  1.0000
  C   C1881     1.0  0.70571  0.83852  0.35683  1.0000
  C   C1882     1.0  0.73090  0.00852  0.44805  1.0000
  C   C1883     1.0  0.70661  0.78360  0.07142  1.0000
  C   C1884     1.0  0.72303  0.86239  0.09768  1.0000
  H   H3218     1.0  0.68613  0.85377  0.12506  1.0000
  Fe  Fe270     1.0  0.71932  0.77623  0.41620  1.0000
  H   H3219     1.0  0.75990  0.92587  0.02257  1.0000
  H   H3220     1.0  0.72047  0.82732  0.03899  1.0000
  H   H3221     1.0  0.73595  0.82609  0.13379  1.0000
  C   C1885     1.0  0.70062  0.85687  0.35661  1.0000
  C   C1886     1.0  0.68038  0.78798  0.04521  1.0000
  H   H3222     1.0  0.72269  0.99263  0.11489  1.0000
  H   H3223     1.0  0.68884  0.79451  0.34379  1.0000
  H   H3224     1.0  0.78018  0.79371  0.34479  1.0000
  H   H3225     1.0  0.69510  0.84895  0.06595  1.0000
  H   H3226     1.0  0.77144  0.99106  0.01919  1.0000
  C   C1887     1.0  0.71482  0.83942  0.04052  1.0000
  N   N138      1.0  0.75077  0.91130  0.23803  1.0000
  C   C1888     1.0  0.76488  0.92007  0.21479  1.0000
  C   C1889     1.0  0.73146  0.91424  0.23181  1.0000
  C   C1890     1.0  0.74885  0.89108  0.23878  1.0000
  C   C1891     1.0  0.75870  0.91963  0.26411  1.0000
  C   C1892     1.0  0.78483  0.91628  0.21509  1.0000
  C   C1893     1.0  0.73172  0.93417  0.22494  1.0000
  C   C1894     1.0  0.73403  0.87900  0.25970  1.0000
  C   C1895     1.0  0.74398  0.92042  0.28721  1.0000
  H   H3227     1.0  0.75863  0.91587  0.19495  1.0000
  H   H3228     1.0  0.76784  0.93520  0.21417  1.0000
  H   H3229     1.0  0.72063  0.90916  0.24881  1.0000
  H   H3230     1.0  0.72528  0.90618  0.21417  1.0000
  H   H3231     1.0  0.74501  0.88557  0.21849  1.0000
  H   H3232     1.0  0.76282  0.88829  0.24327  1.0000
  H   H3233     1.0  0.76891  0.91249  0.27263  1.0000
  H   H3234     1.0  0.76761  0.93397  0.26025  1.0000
  H   H3235     1.0  0.78393  0.90207  0.20972  1.0000
  H   H3236     1.0  0.79465  0.92527  0.19931  1.0000
  H   H3237     1.0  0.79168  0.91930  0.23483  1.0000
  H   H3238     1.0  0.71675  0.93547  0.22647  1.0000
  H   H3239     1.0  0.74064  0.94383  0.23877  1.0000
  H   H3240     1.0  0.73718  0.93818  0.20369  1.0000
  H   H3241     1.0  0.73894  0.88134  0.28066  1.0000
  H   H3242     1.0  0.73300  0.86447  0.25603  1.0000
  H   H3243     1.0  0.71927  0.88048  0.25778  1.0000
  H   H3244     1.0  0.73606  0.93060  0.28226  1.0000
  H   H3245     1.0  0.75198  0.92512  0.30571  1.0000
  H   H3246     1.0  0.73350  0.90708  0.29262  1.0000
  H   H3247     1.0  0.77467  0.76979  0.26589  1.0000
  H   H3248     1.0  0.71264  0.98959  0.38249  1.0000
  H   H3249     1.0  0.67085  0.86178  0.41028  1.0000
  S   S547      1.0  0.68197  0.81537  0.19022  1.0000
  Fe  Fe271     1.0  0.69697  0.77136  0.20804  1.0000
  H   H3250     1.0  0.75052  0.84863  0.12156  1.0000
  H   H3251     1.0  0.75526  0.86069  0.46942  1.0000
  H   H3252     1.0  0.79804  0.87906  0.45193  1.0000
  S   S548      1.0  0.68494  0.00740  0.02823  1.0000
  H   H3253     1.0  0.79599  0.76907  0.20486  1.0000
  C   C1896     1.0  0.75303  0.00835  0.02859  1.0000
  H   H3254     1.0  0.92820  0.76754  0.44029  1.0000
  H   H3255     1.0  0.76032  0.76775  0.17590  1.0000
  H   H3256     1.0  0.74708  0.88624  0.08718  1.0000
  C   C1897     1.0  0.79317  0.91341  0.45133  1.0000
  H   H3257     1.0  0.80157  0.77160  0.24043  1.0000
  H   H3258     1.0  0.92246  0.78517  0.19827  1.0000
  H   H3259     1.0  0.73836  0.76573  0.26825  1.0000
  H   H3260     1.0  0.80526  0.99760  0.05077  1.0000
  H   H3261     1.0  0.77656  0.00302  0.04931  1.0000
  H   H3262     1.0  0.80393  0.99936  0.00037  1.0000
  C   C1898     1.0  0.74413  0.83433  0.11606  1.0000
  H   H3263     1.0  0.69937  0.01021  0.16796  1.0000
  C   C1899     1.0  0.67392  0.84727  0.32648  1.0000
  H   H3264     1.0  0.74701  0.89303  0.00985  1.0000
  H   H3265     1.0  0.72104  0.78199  0.07229  1.0000
  H   H3266     1.0  0.69304  0.82523  0.06974  1.0000
  C   C1900     1.0  0.77307  0.00469  0.02769  1.0000
  H   H3267     1.0  0.75268  0.88958  0.45634  1.0000
  H   H3268     1.0  0.67416  0.83580  0.10306  1.0000
  S   S549      1.0  0.69065  0.77039  0.43881  1.0000
  Fe  Fe272     1.0  0.67821  0.79027  0.16597  1.0000
  C   C1901     1.0  0.69031  0.88956  0.36851  1.0000
  C   C1902     1.0  0.78299  0.88015  0.45412  1.0000
  H   H3269     1.0  0.76759  0.77494  0.22025  1.0000
  H   H3270     1.0  0.81688  0.90445  0.43175  1.0000
  C   C1903     1.0  0.69783  0.98268  0.09069  1.0000
  H   H3271     1.0  0.75463  0.88882  0.49194  1.0000
  H   H3272     1.0  0.82114  0.92848  0.43322  1.0000
  H   H3273     1.0  0.74257  0.99690  0.04031  1.0000
  H   H3274     1.0  0.89560  0.76398  0.38030  1.0000
  C   C1904     1.0  0.78449  0.78205  0.43420  1.0000
  C   C1905     1.0  0.78766  0.91102  0.00230  1.0000
  H   H3275     1.0  0.74174  0.00530  0.36175  1.0000
  H   H3276     1.0  0.68409  0.85468  0.30963  1.0000
  H   H3277     1.0  0.79030  0.92583  0.00537  1.0000
  H   H3278     1.0  0.70539  0.89353  0.35981  1.0000
  C   C1906     1.0  0.82735  0.96141  0.49097  1.0000
  H   H3279     1.0  0.69829  0.81843  0.11664  1.0000
  C   C1907     1.0  0.68341  0.83914  0.12073  1.0000
  C   C1908     1.0  0.75014  0.92156  0.00566  1.0000
  C   C1909     1.0  0.90958  0.77335  0.20296  1.0000
  H   H3280     1.0  0.69910  0.00525  0.39265  1.0000
  C   C1910     1.0  0.78970  0.96322  0.99649  1.0000
  H   H3281     1.0  0.67441  0.78982  0.02582  1.0000
  H   H3282     1.0  0.79498  0.76159  0.48720  1.0000
  C   C1911     1.0  0.67202  0.84819  0.40483  1.0000
  H   H3283     1.0  0.68535  0.90212  0.36782  1.0000
  C   C1912     1.0  0.67687  0.87485  0.35185  1.0000
  C   C1913     1.0  0.67540  0.79526  0.33553  1.0000
  H   H3284     1.0  0.73511  0.91915  0.01411  1.0000
  H   H3285     1.0  0.74340  0.76265  0.22516  1.0000
  H   H3286     1.0  0.82184  0.77552  0.37217  1.0000
  H   H3287     1.0  0.74727  0.00898  0.00813  1.0000
  S   S550      1.0  0.74505  0.00936  0.41836  1.0000
  H   H3288     1.0  0.69086  0.01033  0.34573  1.0000
  H   H3289     1.0  0.76498  0.92484  0.48752  1.0000
  C   C1914     1.0  0.70056  0.99529  0.37742  1.0000
  H   H3290     1.0  0.69042  0.88538  0.39013  1.0000
  C   C1915     1.0  0.69803  0.00553  0.99833  1.0000
  H   H3291     1.0  0.73148  0.99280  0.33373  1.0000
  C   C1916     1.0  0.90120  0.76411  0.40107  1.0000
  H   H3292     1.0  0.72302  0.00122  0.28962  1.0000
  C   C1917     1.0  0.73745  0.00696  0.34059  1.0000
  H   H3293     1.0  0.81956  0.76219  0.49252  1.0000
  H   H3294     1.0  0.89256  0.77084  0.41395  1.0000
  C   C1918     1.0  0.75225  0.90381  0.99357  1.0000
  H   H3295     1.0  0.80190  0.91013  0.99399  1.0000
  C   C1919     1.0  0.75777  0.76085  0.21944  1.0000
  C   C1920     1.0  0.77965  0.76107  0.43624  1.0000
  H   H3296     1.0  0.67689  0.98414  0.57603  1.0000
  H   H3297     1.0  0.69525  0.79694  0.79469  1.0000
  H   H3298     1.0  0.76382  0.99596  0.97547  1.0000
  H   H3299     1.0  0.69175  0.97939  0.63425  1.0000
  H   H3300     1.0  0.69762  0.79006  0.84426  1.0000
  Fe  Fe273     1.0  0.73229  0.81346  0.92283  1.0000
  S   S551      1.0  0.70297  0.80921  0.94307  1.0000
  S   S552      1.0  0.75233  0.84069  0.90835  1.0000
  H   H3301     1.0  0.72046  0.98669  0.51037  1.0000
  Fe  Fe274     1.0  0.69418  0.78630  0.91420  1.0000
  C   C1921     1.0  0.67651  0.78731  0.59324  1.0000
  Fe  Fe275     1.0  0.71111  0.78872  0.97100  1.0000
  C   C1922     1.0  0.71956  0.00327  0.95073  1.0000
  S   S553      1.0  0.72297  0.79196  0.89241  1.0000
  S   S554      1.0  0.74123  0.79470  0.95214  1.0000
  Fe  Fe276     1.0  0.74354  0.97808  0.91347  1.0000
  S   S555      1.0  0.77235  0.98525  0.89111  1.0000
  H   H3302     1.0  0.74384  0.83880  0.56986  1.0000
  Fe  Fe277     1.0  0.73971  0.93714  0.91318  1.0000
  S   S556      1.0  0.76822  0.94151  0.89054  1.0000
  S   S557      1.0  0.72122  0.90924  0.92817  1.0000
  Fe  Fe278     1.0  0.77822  0.96400  0.91978  1.0000
  S   S558      1.0  0.80544  0.96811  0.94308  1.0000
  Fe  Fe279     1.0  0.75908  0.96223  0.86432  1.0000
  S   S559      1.0  0.75448  0.96512  0.81905  1.0000
  S   S560      1.0  0.75027  0.95843  0.94375  1.0000
  S   S561      1.0  0.72968  0.95627  0.88551  1.0000
  Fe  Fe280     1.0  0.71582  0.81238  0.69144  1.0000
  S   S562      1.0  0.74106  0.83799  0.68306  1.0000
  S   S563      1.0  0.70981  0.79405  0.72976  1.0000
  S   S564      1.0  0.71067  0.78821  0.66473  1.0000
  Fe  Fe281     1.0  0.77310  0.98458  0.62835  1.0000
  S   S565      1.0  0.80360  0.98383  0.63343  1.0000
  C   C1923     1.0  0.69619  0.78776  0.54248  1.0000
  Fe  Fe282     1.0  0.75763  0.94223  0.63830  1.0000
  S   S566      1.0  0.78754  0.93980  0.64310  1.0000
  S   S567      1.0  0.73230  0.91645  0.64546  1.0000
  Fe  Fe283     1.0  0.79140  0.96416  0.66900  1.0000
  S   S568      1.0  0.80449  0.96398  0.71043  1.0000
  Fe  Fe284     1.0  0.79559  0.95967  0.60691  1.0000
  S   S569      1.0  0.81565  0.95660  0.57198  1.0000
  S   S570      1.0  0.76113  0.96608  0.66533  1.0000
  S   S571      1.0  0.76540  0.96095  0.60046  1.0000
  C   C1924     1.0  0.73826  0.85959  0.67221  1.0000
  C   C1925     1.0  0.75464  0.87359  0.66281  1.0000
  C   C1926     1.0  0.75306  0.89097  0.65436  1.0000
  C   C1927     1.0  0.73506  0.89464  0.65530  1.0000
  C   C1928     1.0  0.71867  0.88062  0.66456  1.0000
  C   C1929     1.0  0.72026  0.86327  0.67311  1.0000
  H   H3303     1.0  0.76866  0.87099  0.66206  1.0000
  H   H3304     1.0  0.76581  0.90148  0.64707  1.0000
  H   H3305     1.0  0.70466  0.88325  0.66542  1.0000
  H   H3306     1.0  0.70753  0.85283  0.68062  1.0000
  C   C1930     1.0  0.76967  0.96616  0.78970  1.0000
  C   C1931     1.0  0.78766  0.96257  0.79053  1.0000
  C   C1932     1.0  0.79848  0.96243  0.76615  1.0000
  C   C1933     1.0  0.79135  0.96576  0.74083  1.0000
  C   C1934     1.0  0.77354  0.96971  0.74019  1.0000
  C   C1935     1.0  0.76279  0.96991  0.76445  1.0000
  H   H3307     1.0  0.79315  0.95971  0.80985  1.0000
  H   H3308     1.0  0.81231  0.95949  0.76688  1.0000
  H   H3309     1.0  0.76801  0.97265  0.72103  1.0000
  H   H3310     1.0  0.69022  0.00439  0.89832  1.0000
  H   H3311     1.0  0.76636  0.88401  0.95184  1.0000
  H   H3312     1.0  0.68683  0.85249  0.90767  1.0000
  C   C1936     1.0  0.79504  0.95935  0.52536  1.0000
  C   C1937     1.0  0.81248  0.95853  0.53660  1.0000
  C   C1938     1.0  0.82848  0.95946  0.51916  1.0000
  C   C1939     1.0  0.71925  0.84685  0.53513  1.0000
  H   H3313     1.0  0.78404  0.80561  0.92270  1.0000
  H   H3314     1.0  0.78255  0.95858  0.53862  1.0000
  H   H3315     1.0  0.84198  0.95880  0.52754  1.0000
  C   C1940     1.0  0.68258  0.79428  0.80826  1.0000
  C   C1941     1.0  0.74373  0.85972  0.91405  1.0000
  C   C1942     1.0  0.75206  0.87617  0.89917  1.0000
  C   C1943     1.0  0.74522  0.89146  0.90323  1.0000
  C   C1944     1.0  0.73009  0.89039  0.92231  1.0000
  C   C1945     1.0  0.72178  0.87393  0.93718  1.0000
  C   C1946     1.0  0.72865  0.85868  0.93318  1.0000
  H   H3316     1.0  0.76372  0.87705  0.88429  1.0000
  H   H3317     1.0  0.75143  0.90391  0.89122  1.0000
  H   H3318     1.0  0.71010  0.87304  0.95202  1.0000
  H   H3319     1.0  0.72249  0.84625  0.94527  1.0000
  H   H3320     1.0  0.72856  0.83778  0.53080  1.0000
  H   H3321     1.0  0.79411  0.81997  0.87403  1.0000
  C   C1947     1.0  0.70453  0.78457  0.56681  1.0000
  H   H3322     1.0  0.72804  0.86128  0.53520  1.0000
  C   C1948     1.0  0.67783  0.84677  0.89037  1.0000
  H   H3323     1.0  0.67451  0.82651  0.59525  1.0000
  H   H3324     1.0  0.69952  0.98609  0.88625  1.0000
  Fe  Fe285     1.0  0.68033  0.79037  0.66417  1.0000
  C   C1949     1.0  0.69483  0.78445  0.59200  1.0000
  Fe  Fe286     1.0  0.72887  0.77255  0.92399  1.0000
  N   N139      1.0  0.69042  0.84733  0.86502  1.0000
  H   H3325     1.0  0.69350  0.82017  0.87319  1.0000
  C   C1950     1.0  0.71616  0.98935  0.97109  1.0000
  C   C1951     1.0  0.70676  0.84067  0.56164  1.0000
  H   H3326     1.0  0.72175  0.97773  0.96844  1.0000
  C   C1952     1.0  0.79135  0.89613  0.49593  1.0000
  C   C1953     1.0  0.78188  0.80784  0.87935  1.0000
  H   H3327     1.0  0.73497  0.86397  0.61177  1.0000
  H   H3328     1.0  0.81802  0.99530  0.50827  1.0000
  H   H3329     1.0  0.70526  0.87371  0.60900  1.0000
  H   H3330     1.0  0.69884  0.97061  0.59582  1.0000
  C   C1954     1.0  0.94487  0.77206  0.77247  1.0000
  C   C1955     1.0  0.77246  0.88598  0.97232  1.0000
  N   N140      1.0  0.71742  0.84292  0.58769  1.0000
  C   C1956     1.0  0.82790  0.82234  0.89516  1.0000
  C   C1957     1.0  0.99658  0.76481  0.75276  1.0000
  H   H3331     1.0  0.75429  0.00471  0.83388  1.0000
  H   H3332     1.0  0.67426  0.98417  0.88675  1.0000
  H   H3333     1.0  0.76874  0.91349  0.80002  1.0000
  H   H3334     1.0  0.68019  0.83669  0.79846  1.0000
  H   H3335     1.0  0.86854  0.76340  0.91182  1.0000
  H   H3336     1.0  0.72392  0.97390  0.58729  1.0000
  H   H3337     1.0  0.83952  0.99382  0.54247  1.0000
  C   C1958     1.0  0.70144  0.99301  0.63788  1.0000
  C   C1959     1.0  0.73234  0.83242  0.58567  1.0000
  H   H3338     1.0  0.77753  0.93189  0.96417  1.0000
  H   H3339     1.0  0.77665  0.96534  0.98863  1.0000
  H   H3340     1.0  0.00142  0.79345  0.74272  1.0000
  H   H3341     1.0  0.82733  0.81935  0.87342  1.0000
  S   S572      1.0  0.68582  0.81516  0.68939  1.0000
  H   H3342     1.0  0.69875  0.82603  0.55973  1.0000
  H   H3343     1.0  0.93138  0.77164  0.78429  1.0000
  H   H3344     1.0  0.74896  0.97284  0.76362  1.0000
  H   H3345     1.0  0.80384  0.92533  0.50217  1.0000
  H   H3346     1.0  0.84353  0.82827  0.89851  1.0000
  H   H3347     1.0  0.76061  0.77166  0.82308  1.0000
  H   H3348     1.0  0.81267  0.77044  0.92918  1.0000
  H   H3349     1.0  0.78249  0.88451  0.50914  1.0000
  H   H3350     1.0  0.96407  0.76354  0.97762  1.0000
  H   H3351     1.0  0.82034  0.83293  0.89910  1.0000
  C   C1960     1.0  0.69294  0.88171  0.85893  1.0000
  C   C1961     1.0  0.68256  0.83598  0.61017  1.0000
  C   C1962     1.0  0.68883  0.99389  0.88292  1.0000
  H   H3352     1.0  0.77663  0.77898  0.95426  1.0000
  H   H3353     1.0  0.78851  0.99963  0.96243  1.0000
  C   C1963     1.0  0.71143  0.97952  0.58411  1.0000
  H   H3354     1.0  0.77880  0.79900  0.86172  1.0000
  H   H3355     1.0  0.77632  0.99882  0.56228  1.0000
  H   H3356     1.0  0.75244  0.93281  0.99005  1.0000
  Fe  Fe287     1.0  0.70038  0.77016  0.70264  1.0000
  H   H3357     1.0  0.68486  0.99045  0.84063  1.0000
  H   H3358     1.0  0.71880  0.78249  0.56617  1.0000
  H   H3359     1.0  0.76456  0.91456  0.94368  1.0000
  H   H3360     1.0  0.95511  0.76766  0.78568  1.0000
  H   H3361     1.0  0.75333  0.82247  0.60773  1.0000
  C   C1964     1.0  0.79427  0.91306  0.51298  1.0000
  N   N141      1.0  0.77217  0.90443  0.98226  1.0000
  H   H3362     1.0  0.68381  0.00159  0.79785  1.0000
  H   H3363     1.0  0.73303  0.82320  0.62868  1.0000
  C   C1965     1.0  0.68632  0.84767  0.81257  1.0000
  H   H3364     1.0  0.73284  0.86247  0.75522  1.0000
  H   H3365     1.0  0.74314  0.77078  0.86736  1.0000
  H   H3366     1.0  0.78859  0.76241  0.91846  1.0000
  C   C1966     1.0  0.74300  0.83060  0.61184  1.0000
  C   C1967     1.0  0.69035  0.00223  0.85364  1.0000
  H   H3367     1.0  0.69352  0.99832  0.65405  1.0000
  H   H3368     1.0  0.67493  0.83150  0.63025  1.0000
  N   N142      1.0  0.80294  0.79061  0.90559  1.0000
  C   C1968     1.0  0.70900  0.00839  0.49600  1.0000
  H   H3369     1.0  0.69553  0.84809  0.56159  1.0000
  H   H3370     1.0  0.80843  0.92439  0.95331  1.0000
  H   H3371     1.0  0.71700  0.87644  0.75109  1.0000
  C   C1969     1.0  0.79546  0.91917  0.94131  1.0000
  H   H3372     1.0  0.72861  0.99966  0.86361  1.0000
  H   H3373     1.0  0.77296  0.89942  0.77442  1.0000
  H   H3374     1.0  0.80572  0.89350  0.49306  1.0000
  H   H3375     1.0  0.78459  0.92372  0.77136  1.0000
  H   H3376     1.0  0.78998  0.91211  0.73111  1.0000
  C   C1970     1.0  0.72371  0.00161  0.84286  1.0000
  H   H3377     1.0  0.71500  0.97910  0.66725  1.0000
  C   C1971     1.0  0.68393  0.79046  0.83636  1.0000
  H   H3378     1.0  0.83216  0.79996  0.92008  1.0000
  H   H3379     1.0  0.70819  0.97812  0.56227  1.0000
  C   C1972     1.0  0.80691  0.78369  0.87833  1.0000
  C   C1973     1.0  0.79382  0.96108  0.49678  1.0000
  C   C1974     1.0  0.78750  0.00453  0.54581  1.0000
  H   H3380     1.0  0.83478  0.96203  0.97565  1.0000
  H   H3381     1.0  0.77174  0.78520  0.90742  1.0000
  H   H3382     1.0  0.78005  0.89971  0.70183  1.0000
  H   H3383     1.0  0.73192  0.93927  0.74361  1.0000
  H   H3384     1.0  0.70158  0.78208  0.61040  1.0000
  C   C1975     1.0  0.72799  0.86261  0.59191  1.0000
  H   H3385     1.0  0.73467  0.88088  0.77735  1.0000
  H   H3386     1.0  0.79374  0.92307  0.69823  1.0000
  C   C1976     1.0  0.80557  0.96399  0.97863  1.0000
  H   H3387     1.0  0.75161  0.84399  0.61863  1.0000
  C   C1977     1.0  0.70336  0.86659  0.86090  1.0000
  C   C1978     1.0  0.70264  0.83450  0.87036  1.0000
  C   C1979     1.0  0.71957  0.98967  0.65043  1.0000
  H   H3388     1.0  0.79561  0.90606  0.93242  1.0000
  H   H3389     1.0  0.80871  0.79419  0.86162  1.0000
  C   C1980     1.0  0.71823  0.83418  0.84842  1.0000
  H   H3390     1.0  0.78038  0.91550  0.51942  1.0000
  H   H3391     1.0  0.70218  0.85065  0.81012  1.0000
  C   C1981     1.0  0.69961  0.00770  0.79417  1.0000
  H   H3392     1.0  0.71306  0.86842  0.84255  1.0000
  H   H3393     1.0  0.71331  0.86985  0.87789  1.0000
  H   H3394     1.0  0.71012  0.83764  0.88973  1.0000
  H   H3395     1.0  0.81604  0.81093  0.93393  1.0000
  C   C1982     1.0  0.77654  0.91783  0.95800  1.0000
  C   C1983     1.0  0.67764  0.79022  0.54351  1.0000
  H   H3396     1.0  0.70201  0.81989  0.61457  1.0000
  H   H3397     1.0  0.72565  0.89026  0.59392  1.0000
  H   H3398     1.0  0.74013  0.99971  0.80515  1.0000
  C   C1984     1.0  0.82470  0.77624  0.87605  1.0000
  H   H3399     1.0  0.71676  0.00790  0.57150  1.0000
  H   H3400     1.0  0.70695  0.99674  0.79330  1.0000
  H   H3401     1.0  0.72876  0.84771  0.84410  1.0000
  H   H3402     1.0  0.71171  0.82819  0.82964  1.0000
  H   H3403     1.0  0.72680  0.82512  0.85601  1.0000
  C   C1985     1.0  0.84185  0.00833  0.54766  1.0000
  H   H3404     1.0  0.93468  0.76864  0.73223  1.0000
  C   C1986     1.0  0.77686  0.00622  0.96662  1.0000
  N   N143      1.0  0.74923  0.90915  0.73594  1.0000
  C   C1987     1.0  0.73015  0.91201  0.72808  1.0000
  C   C1988     1.0  0.74709  0.88892  0.73563  1.0000
  C   C1989     1.0  0.76450  0.91931  0.71485  1.0000
  C   C1990     1.0  0.75360  0.91669  0.76361  1.0000
  C   C1991     1.0  0.72965  0.93205  0.72436  1.0000
  C   C1992     1.0  0.73195  0.87675  0.75619  1.0000
  C   C1993     1.0  0.78300  0.91298  0.71174  1.0000
  C   C1994     1.0  0.77105  0.91306  0.77768  1.0000
  H   H3405     1.0  0.72553  0.90536  0.70871  1.0000
  H   H3406     1.0  0.71845  0.90556  0.74355  1.0000
  H   H3407     1.0  0.76088  0.88564  0.73923  1.0000
  H   H3408     1.0  0.74325  0.88396  0.71508  1.0000
  H   H3409     1.0  0.75850  0.91855  0.69426  1.0000
  H   H3410     1.0  0.76918  0.93410  0.71868  1.0000
  H   H3411     1.0  0.75658  0.93178  0.76241  1.0000
  H   H3412     1.0  0.74077  0.91228  0.77802  1.0000
  H   H3413     1.0  0.74023  0.93974  0.70839  1.0000
  H   H3414     1.0  0.71514  0.93225  0.71764  1.0000
  H   H3415     1.0  0.82670  0.77278  0.85463  1.0000
  H   H3416     1.0  0.76894  0.81281  0.88296  1.0000
  H   H3417     1.0  0.80109  0.78957  0.96420  1.0000
  H   H3418     1.0  0.82264  0.76341  0.88856  1.0000
  H   H3419     1.0  0.79681  0.92921  0.92400  1.0000
  C   C1995     1.0  0.70358  0.83478  0.61158  1.0000
  C   C1996     1.0  0.78489  0.79705  0.90510  1.0000
  C   C1997     1.0  0.71588  0.87633  0.59158  1.0000
  H   H3420     1.0  0.95198  0.78656  0.76616  1.0000
  H   H3421     1.0  0.70952  0.84573  0.51786  1.0000
  C   C1998     1.0  0.99684  0.77978  0.73537  1.0000
  S   S573      1.0  0.73309  0.00270  0.92075  1.0000
  C   C1999     1.0  0.79925  0.77463  0.92603  1.0000
  H   H3422     1.0  0.83818  0.78648  0.88121  1.0000
  H   H3423     1.0  0.72561  0.81835  0.57921  1.0000
  C   C2000     1.0  0.81989  0.80543  0.91461  1.0000
  N   N144      1.0  0.70515  0.00567  0.61286  1.0000
  C   C2001     1.0  0.67754  0.84132  0.84155  1.0000
  H   H3424     1.0  0.79420  0.77259  0.87286  1.0000
  S   S574      1.0  0.71030  0.78948  0.51196  1.0000
  H   H3425     1.0  0.70937  0.84076  0.63083  1.0000
  H   H3426     1.0  0.74528  0.86670  0.98840  1.0000
  H   H3427     1.0  0.74150  0.90007  0.97754  1.0000
  C   C2002     1.0  0.76112  0.86893  0.98970  1.0000
  C   C2003     1.0  0.99037  0.77725  0.70892  1.0000
  H   H3428     1.0  0.67102  0.79260  0.52488  1.0000
  C   C2004     1.0  0.68620  0.00734  0.60260  1.0000
  S   S575      1.0  0.69927  0.76523  0.94421  1.0000
  H   H3429     1.0  0.74002  0.86771  0.57638  1.0000
  H   H3430     1.0  0.98963  0.78894  0.69634  1.0000
  H   H3431     1.0  0.71589  0.98765  0.83678  1.0000
  H   H3432     1.0  0.80738  0.99129  0.56161  1.0000
  C   C2005     1.0  0.71691  0.99997  0.59072  1.0000
  H   H3433     1.0  0.72871  0.00207  0.65942  1.0000
  H   H3434     1.0  0.68174  0.85966  0.80507  1.0000
  H   H3435     1.0  0.70344  0.89470  0.85128  1.0000
  S   S576      1.0  0.69578  0.00859  0.52622  1.0000
  H   H3436     1.0  0.80153  0.91093  0.53186  1.0000
  H   H3437     1.0  0.95541  0.76107  0.73768  1.0000
  H   H3438     1.0  0.72842  0.98449  0.63556  1.0000
  H   H3439     1.0  0.73237  0.00374  0.59547  1.0000
  H   H3440     1.0  0.77595  0.76422  0.71478  1.0000
  H   H3441     1.0  0.76435  0.85669  0.98135  1.0000
  C   C2006     1.0  0.82243  0.96140  0.98916  1.0000
  H   H3442     1.0  0.85865  0.00400  0.58179  1.0000
  H   H3443     1.0  0.68142  0.84983  0.60513  1.0000
  Fe  Fe288     1.0  0.67952  0.79584  0.72635  1.0000
  H   H3444     1.0  0.83381  0.00035  0.59096  1.0000
  H   H3445     1.0  0.68751  0.88439  0.87929  1.0000
  C   C2007     1.0  0.82166  0.01035  0.50974  1.0000
  H   H3446     1.0  0.70866  0.87677  0.57219  1.0000
  H   H3447     1.0  0.78758  0.88511  0.96962  1.0000
  H   H3448     1.0  0.80402  0.76265  0.69124  1.0000
  H   H3449     1.0  0.75968  0.77158  0.75326  1.0000
  C   C2008     1.0  0.79158  0.77767  0.95461  1.0000
  H   H3450     1.0  0.68088  0.87844  0.84491  1.0000
  C   C2009     1.0  0.74200  0.00786  0.82361  1.0000
  H   H3451     1.0  0.67326  0.81921  0.90932  1.0000
  C   C2010     1.0  0.80759  0.00571  0.55683  1.0000
  H   H3452     1.0  0.78422  0.99501  0.52897  1.0000
  H   H3453     1.0  0.67196  0.82617  0.84206  1.0000
  C   C2011     1.0  0.84597  0.00924  0.57820  1.0000
  C   C2012     1.0  0.75167  0.76144  0.86419  1.0000
  H   H3454     1.0  0.79100  0.76552  0.96806  1.0000
  C   C2013     1.0  0.67154  0.98976  0.59415  1.0000
  H   H3455     1.0  0.67362  0.76341  0.78044  1.0000
  C   C2014     1.0  0.76150  0.76186  0.83904  1.0000
  C   C2015     1.0  0.72022  0.99619  0.49365  1.0000
  H   H3456     1.0  0.67967  0.01036  0.85261  1.0000
  C   C2016     1.0  0.97805  0.76086  0.97771  1.0000
