data_image0
_chemical_formula_structural       S2HFeSFe2SFeH2SH3CHCHCHSCH2C2SNFeHCSHCHCH2SFeC4NCH2CH2CH3NHC3HC3HC2H3C3H3SC4H4CHCHFeH5FeHCH3CHCHFeH3CHC3SHCH2SHCSH2SCH5CSCH2CHCH4CSH2CH2SC2H3SHCH2SHSH3NHCHSH4CH2SH2SFeCFeSHC4HC2H6SHC2HC3H6SFeS2FeS2Fe2HS2HCHNH2CHC4HCH4C4H4CSHC2H2CHCHCH2C2H2C2NHCHCH5CHC3HNC2H2C2HCH2FeH2CHCH3CH2FeH5C2H2CHC2NHSH4C2HSCNCFeC2HSCH3SH2CH4CH6CHC2HCSHC2HCHC2H6SCH4CHCHFeSHFeSFeSCHC2H3FeH6SFeSFeSHFeHCH2CH2C2H2CSCFeCHSH3C9HCH2CS2HC2SH3S3H4SH2C4H6CH3NHCFeSHCSH4CH2CH5C2H2CH3CHCHSH4CHC2SNHSCHC2H3CH2C2HCH2SHFeC2SCFeH5CHCHNCH3CH9SH6CH2FeS2FeS2FeSCS2C2HCH2C6H5CHC3H2C2H2FeHCHFeH4FeHC6H4S2CH2CHCH7CH4CH4C4H2NCHCHC2H6CH3CH2CHC2H3CH6CH2NH3C2HS2CHCH2CHN2CFeHC2H3SH5C3H2CH4C3H2SH3CHC2H2CFe2C3H5C2HFeS2Fe2S3HC3H4SCFeHC2H2C2H2CH6CSCH4SHC2FeH2CNC8H17NHSC2H2SHCH2CHNH3CHC3H3SH4CNH2CH3CSHCH10CH4C2SHCH2CH2CH4CSHCHCNH3CHSFeS2CFeH2C7HCH2C4HCH5CFeCH3C2SH3CS2CHC2H2CH5CH2C3H3C2H3CS2CH4CNCH2FeCH4CH2CH3CH6NH4C2H3FeHCH3CH2CH4SHCNHC2NCH6C2H2CHCH6C3HCHCHCH3CFeS2FeS2FeSFeS3FeH2FeHSFeS3HCSFeSC2H3C7H2CHC3H2CH3C6H4C6H4C3H5C2H2CH2CH2CH2CH5CN2SH2CNC2HCH2SHCH7C2NHC3HCHCH4CH5CH10CHCNC4HCHCH11C2H3C2HCHS2H7FeCH3FeHC3H5SFe2S2CH5SHSCH2C2H2CHCSH2SHSCHCSH3SC2FeHC3SFeH2CH2C2HCH2CH2CHCH2CH3CHFeH3CH2CHCHCHNHFeSH2SFeSFeS2Fe2S3C3H2CHC2H2CH2C3H2C2H3CFeHSCHFeS5FeSC3H3C3HC6H5C2H4C2Fe2NH2CH3C2SHCH4CHFeSC2HCSHSCH2CNC8H20C2H2CHNHC4HCSH5CHCFeH8NH6CHCH2C2H4CH3CH5SC2SH3FeHC3HCSCHC2H7CSHSCNCHC2HCH4CHC3H3CHC2HCFeNH2SH3S2H2CHSH5CH6CHCHCH5Fe2S2FeSFeS4FeSFeH3SHC2S2HFeSHSCNCH2SC3SH3C8H2CH2CHC6H5CH4C2HCNCHCHCH2CH3SC3HFeH2SH3CH6CHCHCH5CHCSHSH2C2NC8H20CH4CH2C2HCSHFeH2C2HC2H10CH3C2HCH2CH2CH2N2C8H8FeH3C4SH5CH3CHCHS2CSCHFeC4H2SC3HNH3S2CFeCHCHNH3CH3CH5FeCHCHNHSCFeHFeC2H2CHC2HCHSH4CHS2H3CH2SHC2HFeH3CH5CH2NH3C2H3CH3C2HC2SHNH3SHC2H7SCH4FeCHCFeCH3C2H2C2H4C2HCH5CH2C2HFeC2HCHNHSH6CH3
_chemical_formula_sum              "S192 H1152 Fe96 C672 N48"
_cell_length_a       44.3414
_cell_length_b       44.4224
_cell_length_c       50.7174
_cell_angle_alpha    90.0288
_cell_angle_beta     89.9969
_cell_angle_gamma    119.779

_space_group_name_H-M_alt    "P 1"
_space_group_IT_number       1

loop_
  _space_group_symop_operation_xyz
  'x, y, z'

loop_
  _atom_site_type_symbol
  _atom_site_label
  _atom_site_symmetry_multiplicity
  _atom_site_fract_x
  _atom_site_fract_y
  _atom_site_fract_z
  _atom_site_occupancy
  S   S1        1.0  0.36408  0.43394  0.30232  1.0000
  S   S2        1.0  0.48692  0.32200  0.29523  1.0000
  H   H1        1.0  0.09229  0.38846  0.04008  1.0000
  Fe  Fe1       1.0  0.46598  0.47126  0.24087  1.0000
  S   S3        1.0  0.41189  0.42600  0.23820  1.0000
  Fe  Fe2       1.0  0.15738  0.47278  0.14222  1.0000
  Fe  Fe3       1.0  0.40548  0.45569  0.20461  1.0000
  S   S4        1.0  0.38077  0.43273  0.16492  1.0000
  Fe  Fe4       1.0  0.39806  0.45724  0.26576  1.0000
  H   H2        1.0  0.47701  0.43393  0.12125  1.0000
  H   H3        1.0  0.42381  0.39625  0.29464  1.0000
  S   S5        1.0  0.12195  0.44166  0.17577  1.0000
  H   H4        1.0  0.09636  0.43338  0.00415  1.0000
  H   H5        1.0  0.09409  0.45411  0.29497  1.0000
  H   H6        1.0  0.49877  0.35754  0.20188  1.0000
  C   C1        1.0  0.06838  0.42516  0.00674  1.0000
  H   H7        1.0  0.31181  0.48205  0.01229  1.0000
  C   C2        1.0  0.43851  0.41882  0.30784  1.0000
  H   H8        1.0  0.06895  0.51208  0.25765  1.0000
  C   C3        1.0  0.49881  0.36522  0.02500  1.0000
  H   H9        1.0  0.40405  0.36286  0.15952  1.0000
  S   S6        1.0  0.17750  0.46287  0.24252  1.0000
  C   C4        1.0  0.30229  0.49043  0.02949  1.0000
  H   H10       1.0  0.50438  0.39877  0.16446  1.0000
  H   H11       1.0  0.08602  0.40154  0.08338  1.0000
  C   C5        1.0  0.50563  0.42454  0.25979  1.0000
  C   C6        1.0  0.07209  0.40089  0.30495  1.0000
  S   S7        1.0  0.29204  0.40794  0.00533  1.0000
  N   N1        1.0  0.43942  0.39202  0.09646  1.0000
  Fe  Fe5       1.0  0.41653  0.47673  0.01667  1.0000
  H   H12       1.0  0.06733  0.33577  0.01346  1.0000
  C   C7        1.0  0.17027  0.47675  0.27361  1.0000
  S   S8        1.0  0.38144  0.41984  0.02185  1.0000
  H   H13       1.0  0.23335  0.46713  0.28541  1.0000
  C   C8        1.0  0.48727  0.45343  0.08180  1.0000
  H   H14       1.0  0.41438  0.40973  0.06874  1.0000
  C   C9        1.0  0.16516  0.48424  0.02024  1.0000
  H   H15       1.0  0.17093  0.43493  0.29463  1.0000
  H   H16       1.0  0.04620  0.40163  0.17667  1.0000
  S   S9        1.0  0.44043  0.50763  0.05437  1.0000
  Fe  Fe6       1.0  0.40778  0.41377  0.98638  1.0000
  C   C10       1.0  0.46092  0.38310  0.00403  1.0000
  C   C11       1.0  0.46832  0.35698  0.01107  1.0000
  C   C12       1.0  0.08118  0.39672  0.23980  1.0000
  C   C13       1.0  0.06456  0.37726  0.03406  1.0000
  N   N2        1.0  0.05513  0.40557  0.03232  1.0000
  C   C14       1.0  0.48401  0.41744  0.01113  1.0000
  H   H17       1.0  0.47424  0.45341  0.06311  1.0000
  H   H18       1.0  0.29813  0.47903  0.25448  1.0000
  C   C15       1.0  0.49510  0.36137  0.28090  1.0000
  H   H19       1.0  0.52197  0.36075  0.15938  1.0000
  H   H20       1.0  0.16208  0.41691  0.05484  1.0000
  C   C16       1.0  0.16319  0.45230  0.02514  1.0000
  H   H21       1.0  0.25142  0.50562  0.09055  1.0000
  H   H22       1.0  0.23078  0.41364  0.00088  1.0000
  H   H23       1.0  0.39413  0.34771  0.11395  1.0000
  N   N3        1.0  0.05320  0.42687  0.26643  1.0000
  H   H24       1.0  0.45033  0.33030  0.00585  1.0000
  C   C17       1.0  0.06532  0.45809  0.00377  1.0000
  C   C18       1.0  0.24693  0.49076  0.99100  1.0000
  C   C19       1.0  0.16502  0.46228  0.07283  1.0000
  H   H25       1.0  0.51566  0.31293  0.98398  1.0000
  C   C20       1.0  0.42941  0.48581  0.13308  1.0000
  C   C21       1.0  0.41241  0.37551  0.11787  1.0000
  C   C22       1.0  0.07745  0.49317  0.26300  1.0000
  H   H26       1.0  0.49595  0.41191  0.19597  1.0000
  C   C23       1.0  0.27009  0.46816  0.25821  1.0000
  C   C24       1.0  0.39695  0.45555  0.13482  1.0000
  H   H27       1.0  0.48092  0.38434  0.11217  1.0000
  H   H28       1.0  0.07416  0.43837  0.22663  1.0000
  H   H29       1.0  0.08076  0.37328  0.99369  1.0000
  C   C25       1.0  0.38996  0.45822  0.08718  1.0000
  C   C26       1.0  0.37726  0.44208  0.11174  1.0000
  C   C27       1.0  0.42284  0.48778  0.08525  1.0000
  H   H30       1.0  0.44500  0.49648  0.15057  1.0000
  H   H31       1.0  0.37405  0.44780  0.06979  1.0000
  H   H32       1.0  0.35196  0.41895  0.11283  1.0000
  S   S10       1.0  0.51286  0.46437  0.24684  1.0000
  C   C28       1.0  0.47349  0.39430  0.25698  1.0000
  C   C29       1.0  0.46817  0.36290  0.26767  1.0000
  C   C30       1.0  0.52213  0.39966  0.03174  1.0000
  C   C31       1.0  0.42190  0.38927  0.07031  1.0000
  H   H33       1.0  0.44015  0.39415  0.05377  1.0000
  H   H34       1.0  0.45274  0.39495  0.24642  1.0000
  H   H35       1.0  0.44312  0.33966  0.26556  1.0000
  H   H36       1.0  0.04379  0.39757  0.08858  1.0000
  C   C32       1.0  0.16712  0.49428  0.06792  1.0000
  H   H37       1.0  0.39563  0.38767  0.11844  1.0000
  C   C33       1.0  0.44667  0.33773  0.09040  1.0000
  H   H38       1.0  0.31578  0.48770  0.04701  1.0000
  Fe  Fe7       1.0  0.10447  0.48106  0.17477  1.0000
  H   H39       1.0  0.50413  0.34488  0.03055  1.0000
  H   H40       1.0  0.03340  0.45340  0.24207  1.0000
  H   H41       1.0  0.44026  0.40453  0.15359  1.0000
  H   H42       1.0  0.44313  0.36556  0.14731  1.0000
  H   H43       1.0  0.36623  0.35245  0.07606  1.0000
  Fe  Fe8       1.0  0.34699  0.42648  0.99324  1.0000
  H   H44       1.0  0.48181  0.38907  0.07806  1.0000
  C   C34       1.0  0.34032  0.50026  0.29535  1.0000
  H   H45       1.0  0.44264  0.33136  0.06904  1.0000
  H   H46       1.0  0.10588  0.45016  0.25151  1.0000
  H   H47       1.0  0.38454  0.50984  0.16370  1.0000
  C   C35       1.0  0.42643  0.37753  0.14602  1.0000
  H   H48       1.0  0.24086  0.48996  0.04538  1.0000
  C   C36       1.0  0.16644  0.50606  0.27620  1.0000
  H   H49       1.0  0.47851  0.43774  0.00599  1.0000
  Fe  Fe9       1.0  0.16371  0.47898  0.20349  1.0000
  H   H50       1.0  0.42201  0.32231  0.10117  1.0000
  H   H51       1.0  0.05840  0.37807  0.22799  1.0000
  H   H52       1.0  0.10458  0.40382  0.22761  1.0000
  C   C37       1.0  0.46339  0.37712  0.09476  1.0000
  H   H53       1.0  0.38136  0.35511  0.04310  1.0000
  C   C38       1.0  0.04579  0.45618  0.26173  1.0000
  C   C39       1.0  0.07319  0.43092  0.05457  1.0000
  C   C40       1.0  0.26217  0.47948  0.28489  1.0000
  S   S11       1.0  0.38471  0.48113  0.23179  1.0000
  H   H54       1.0  0.03521  0.34401  0.99983  1.0000
  C   C41       1.0  0.07084  0.41523  0.08223  1.0000
  H   H55       1.0  0.04896  0.35812  0.04963  1.0000
  H   H56       1.0  0.05553  0.40866  0.98933  1.0000
  S   S12       1.0  0.42300  0.37234  0.98616  1.0000
  H   H57       1.0  0.10124  0.44732  0.05017  1.0000
  C   C42       1.0  0.06140  0.35669  0.00866  1.0000
  S   S13       1.0  0.45260  0.50121  0.26987  1.0000
  H   H58       1.0  0.08353  0.38375  0.25758  1.0000
  H   H59       1.0  0.22937  0.47127  0.00538  1.0000
  S   S14       1.0  0.16332  0.44671  0.10534  1.0000
  C   C43       1.0  0.44232  0.50170  0.10841  1.0000
  H   H60       1.0  0.50068  0.48067  0.08898  1.0000
  H   H61       1.0  0.50770  0.44654  0.07794  1.0000
  H   H62       1.0  0.52111  0.31619  0.19762  1.0000
  H   H63       1.0  0.08275  0.43667  0.09687  1.0000
  H   H64       1.0  0.46432  0.32884  0.09829  1.0000
  C   C44       1.0  0.38837  0.35495  0.06412  1.0000
  S   S15       1.0  0.16482  0.49897  0.98775  1.0000
  C   C45       1.0  0.16843  0.45787  0.29636  1.0000
  H   H65       1.0  0.08860  0.49999  0.28314  1.0000
  H   H66       1.0  0.44435  0.44108  0.10758  1.0000
  C   C46       1.0  0.16346  0.44159  0.05128  1.0000
  H   H67       1.0  0.39106  0.33176  0.06683  1.0000
  C   C47       1.0  0.51455  0.42570  0.02492  1.0000
  H   H68       1.0  0.16166  0.43592  0.00880  1.0000
  H   H69       1.0  0.05122  0.37482  0.29918  1.0000
  H   H70       1.0  0.08306  0.47891  0.01745  1.0000
  H   H71       1.0  0.09792  0.49702  0.24876  1.0000
  C   C48       1.0  0.46133  0.43003  0.10314  1.0000
  S   S16       1.0  0.38063  0.48405  0.98941  1.0000
  H   H72       1.0  0.06317  0.44937  0.05665  1.0000
  H   H73       1.0  0.25636  0.43949  0.25622  1.0000
  C   C49       1.0  0.07929  0.42978  0.24594  1.0000
  H   H74       1.0  0.33405  0.47571  0.28552  1.0000
  H   H75       1.0  0.27437  0.47145  0.03148  1.0000
  S   S17       1.0  0.04878  0.46846  0.18031  1.0000
  C   C50       1.0  0.26989  0.43443  0.30767  1.0000
  C   C51       1.0  0.06776  0.43086  0.29390  1.0000
  H   H76       1.0  0.28468  0.43165  0.29115  1.0000
  H   H77       1.0  0.25992  0.47768  0.24214  1.0000
  H   H78       1.0  0.09767  0.40399  0.29934  1.0000
  S   S18       1.0  0.20129  0.50554  0.17009  1.0000
  H   H79       1.0  0.03830  0.45270  0.00642  1.0000
  C   C52       1.0  0.16734  0.50522  0.04177  1.0000
  H   H80       1.0  0.43110  0.43835  0.30224  1.0000
  H   H81       1.0  0.50434  0.31555  0.22979  1.0000
  S   S19       1.0  0.44581  0.47061  0.98248  1.0000
  H   H82       1.0  0.05269  0.43682  0.30851  1.0000
  S   S20       1.0  0.46046  0.49894  0.20567  1.0000
  H   H83       1.0  0.46676  0.43092  0.30405  1.0000
  H   H84       1.0  0.51929  0.12589  0.22313  1.0000
  H   H85       1.0  0.36498  0.50791  0.30603  1.0000
  N   N4        1.0  0.27522  0.47066  0.30961  1.0000
  H   H86       1.0  0.52034  0.44332  0.17069  1.0000
  C   C53       1.0  0.51555  0.41871  0.18005  1.0000
  H   H87       1.0  0.07364  0.46860  0.98355  1.0000
  S   S21       1.0  0.13698  0.50985  0.13960  1.0000
  H   H88       1.0  0.02705  0.45583  0.27644  1.0000
  H   H89       1.0  0.27212  0.50789  0.28366  1.0000
  H   H90       1.0  0.24214  0.41565  0.30307  1.0000
  H   H91       1.0  0.16858  0.51064  0.08424  1.0000
  C   C54       1.0  0.23707  0.40809  0.98153  1.0000
  H   H92       1.0  0.26727  0.48475  0.98459  1.0000
  H   H93       1.0  0.42962  0.35405  0.31344  1.0000
  S   S22       1.0  0.15255  0.50697  0.64062  1.0000
  H   H94       1.0  0.16289  0.44178  0.50652  1.0000
  H   H95       1.0  0.46165  0.38614  0.59999  1.0000
  S   S23       1.0  0.13193  0.42541  0.38931  1.0000
  Fe  Fe10      1.0  0.10576  0.42033  0.42833  1.0000
  C   C55       1.0  0.25388  0.44746  0.63148  1.0000
  Fe  Fe11      1.0  0.17956  0.43890  0.41302  1.0000
  S   S24       1.0  0.22099  0.42875  0.39737  1.0000
  H   H96       1.0  0.45458  0.32837  0.34560  1.0000
  C   C56       1.0  0.40479  0.48928  0.60801  1.0000
  C   C57       1.0  0.43196  0.37945  0.37755  1.0000
  C   C58       1.0  0.23626  0.41102  0.42106  1.0000
  C   C59       1.0  0.21475  0.39084  0.44165  1.0000
  H   H97       1.0  0.18801  0.38500  0.44250  1.0000
  C   C60       1.0  0.08345  0.46201  0.53927  1.0000
  C   C61       1.0  0.21520  0.38810  0.64672  1.0000
  H   H98       1.0  0.51018  0.30406  0.45834  1.0000
  H   H99       1.0  0.24169  0.47424  0.45071  1.0000
  H   H100      1.0  0.51931  0.40146  0.46881  1.0000
  H   H101      1.0  0.23291  0.40205  0.51662  1.0000
  H   H102      1.0  0.27465  0.42027  0.59124  1.0000
  H   H103      1.0  0.44563  0.36713  0.38727  1.0000
  S   S25       1.0  0.17353  0.44231  0.60284  1.0000
  H   H104      1.0  0.43307  0.44203  0.61319  1.0000
  C   C62       1.0  0.37988  0.45056  0.33433  1.0000
  C   C63       1.0  0.41014  0.48250  0.33807  1.0000
  H   H105      1.0  0.09065  0.39011  0.52620  1.0000
  C   C64       1.0  0.40413  0.47532  0.38594  1.0000
  C   C65       1.0  0.37364  0.44355  0.38228  1.0000
  C   C66       1.0  0.36171  0.43120  0.35661  1.0000
  H   H106      1.0  0.32069  0.49443  0.33522  1.0000
  H   H107      1.0  0.09544  0.42336  0.50297  1.0000
  H   H108      1.0  0.35926  0.42840  0.39920  1.0000
  H   H109      1.0  0.33831  0.40641  0.35402  1.0000
  H   H110      1.0  0.34082  0.39069  0.61407  1.0000
  H   H111      1.0  0.06372  0.49213  0.51843  1.0000
  S   S26       1.0  0.15160  0.42670  0.45188  1.0000
  Fe  Fe12      1.0  0.40613  0.40386  0.48618  1.0000
  S   S27       1.0  0.43669  0.46199  0.48695  1.0000
  S   S28       1.0  0.42945  0.36904  0.48727  1.0000
  Fe  Fe13      1.0  0.33757  0.40269  0.48357  1.0000
  S   S29       1.0  0.36293  0.46065  0.48342  1.0000
  S   S30       1.0  0.27957  0.37242  0.48571  1.0000
  Fe  Fe14      1.0  0.40009  0.45821  0.45451  1.0000
  Fe  Fe15      1.0  0.39602  0.45777  0.51585  1.0000
  H   H112      1.0  0.47915  0.45344  0.55176  1.0000
  S   S31       1.0  0.37197  0.40020  0.45223  1.0000
  S   S32       1.0  0.36846  0.39988  0.51734  1.0000
  H   H113      1.0  0.40043  0.39692  0.33894  1.0000
  C   C67       1.0  0.52075  0.43128  0.52391  1.0000
  H   H114      1.0  0.47415  0.47370  0.62360  1.0000
  N   N5        1.0  0.44146  0.38586  0.34869  1.0000
  H   H115      1.0  0.48690  0.32258  0.47483  1.0000
  H   H116      1.0  0.30300  0.49136  0.64611  1.0000
  C   C68       1.0  0.17389  0.46177  0.57219  1.0000
  H   H117      1.0  0.23929  0.50974  0.31871  1.0000
  C   C69       1.0  0.46692  0.38415  0.50660  1.0000
  C   C70       1.0  0.47527  0.36029  0.51750  1.0000
  C   C71       1.0  0.26740  0.39659  0.60294  1.0000
  C   C72       1.0  0.15893  0.49733  0.32399  1.0000
  H   H118      1.0  0.51086  0.33908  0.41938  1.0000
  C   C73       1.0  0.48958  0.41968  0.50996  1.0000
  H   H119      1.0  0.45770  0.33276  0.51501  1.0000
  H   H120      1.0  0.43933  0.43399  0.34790  1.0000
  H   H121      1.0  0.46561  0.43299  0.39274  1.0000
  H   H122      1.0  0.48371  0.43825  0.50111  1.0000
  C   C74       1.0  0.27064  0.41795  0.41968  1.0000
  C   C75       1.0  0.28384  0.40551  0.43933  1.0000
  C   C76       1.0  0.26237  0.38537  0.45996  1.0000
  C   C77       1.0  0.22768  0.37758  0.46091  1.0000
  H   H123      1.0  0.28727  0.43342  0.40369  1.0000
  H   H124      1.0  0.31060  0.41148  0.43845  1.0000
  H   H125      1.0  0.21099  0.36176  0.47674  1.0000
  H   H126      1.0  0.15879  0.41492  0.55013  1.0000
  C   C78       1.0  0.04620  0.39989  0.52538  1.0000
  S   S33       1.0  0.18502  0.51344  0.49112  1.0000
  H   H127      1.0  0.30167  0.45690  0.54181  1.0000
  C   C79       1.0  0.36905  0.43357  0.58738  1.0000
  C   C80       1.0  0.39230  0.46916  0.58498  1.0000
  H   H128      1.0  0.16167  0.45328  0.33859  1.0000
  H   H129      1.0  0.35890  0.41774  0.56994  1.0000
  C   C81       1.0  0.25687  0.48839  0.46843  1.0000
  H   H130      1.0  0.46977  0.39928  0.56690  1.0000
  C   C82       1.0  0.35870  0.41827  0.61248  1.0000
  H   H131      1.0  0.24083  0.43920  0.61194  1.0000
  C   C83       1.0  0.07823  0.43592  0.59553  1.0000
  H   H132      1.0  0.25731  0.39675  0.54194  1.0000
  H   H133      1.0  0.49409  0.45513  0.35075  1.0000
  C   C84       1.0  0.50627  0.37187  0.53160  1.0000
  C   C85       1.0  0.39459  0.47392  0.63315  1.0000
  H   H134      1.0  0.20411  0.38207  0.62646  1.0000
  H   H135      1.0  0.40409  0.38624  0.59796  1.0000
  C   C86       1.0  0.27428  0.40452  0.63267  1.0000
  C   C87       1.0  0.07728  0.47738  0.51395  1.0000
  N   N6        1.0  0.28032  0.47662  0.51191  1.0000
  H   H136      1.0  0.42013  0.41988  0.38986  1.0000
  C   C88       1.0  0.28449  0.44800  0.52431  1.0000
  H   H137      1.0  0.41570  0.31362  0.36555  1.0000
  C   C89       1.0  0.41824  0.38458  0.58051  1.0000
  H   H138      1.0  0.09425  0.41509  0.56418  1.0000
  H   H139      1.0  0.27306  0.45076  0.47428  1.0000
  H   H140      1.0  0.45151  0.39852  0.63852  1.0000
  H   H141      1.0  0.35291  0.49908  0.52811  1.0000
  H   H142      1.0  0.41185  0.39505  0.56287  1.0000
  C   C90       1.0  0.51390  0.45412  0.59695  1.0000
  H   H143      1.0  0.22627  0.44875  0.33092  1.0000
  C   C91       1.0  0.42921  0.40918  0.33706  1.0000
  C   C92       1.0  0.47984  0.39960  0.34463  1.0000
  C   C93       1.0  0.47073  0.45959  0.57068  1.0000
  H   H144      1.0  0.48549  0.39632  0.32378  1.0000
  N   N7        1.0  0.05564  0.42613  0.54729  1.0000
  C   C94       1.0  0.51675  0.38813  0.44974  1.0000
  C   C95       1.0  0.25343  0.47087  0.33250  1.0000
  H   H145      1.0  0.08780  0.48107  0.55512  1.0000
  H   H146      1.0  0.09942  0.46303  0.59272  1.0000
  C   C96       1.0  0.42200  0.35142  0.33455  1.0000
  C   C97       1.0  0.49008  0.49952  0.57316  1.0000
  H   H147      1.0  0.28230  0.50924  0.46116  1.0000
  C   C98       1.0  0.42697  0.32174  0.34555  1.0000
  H   H148      1.0  0.23682  0.42194  0.54867  1.0000
  H   H149      1.0  0.05114  0.38697  0.57516  1.0000
  Fe  Fe16      1.0  0.14977  0.48193  0.39265  1.0000
  H   H150      1.0  0.28634  0.48651  0.56602  1.0000
  H   H151      1.0  0.24008  0.37675  0.59881  1.0000
  C   C99       1.0  0.37151  0.43826  0.63551  1.0000
  H   H152      1.0  0.10914  0.46352  0.53745  1.0000
  C   C100      1.0  0.45935  0.44602  0.61748  1.0000
  H   H153      1.0  0.51233  0.35326  0.54012  1.0000
  H   H154      1.0  0.29769  0.43899  0.51033  1.0000
  H   H155      1.0  0.39349  0.34186  0.33454  1.0000
  C   C101      1.0  0.06974  0.41446  0.56983  1.0000
  H   H156      1.0  0.48037  0.50830  0.58995  1.0000
  H   H157      1.0  0.44292  0.45160  0.56785  1.0000
  Fe  Fe17      1.0  0.16656  0.48276  0.45263  1.0000
  H   H158      1.0  0.23221  0.46676  0.53009  1.0000
  H   H159      1.0  0.07088  0.40122  0.32684  1.0000
  H   H160      1.0  0.51353  0.31054  0.49305  1.0000
  H   H161      1.0  0.49064  0.36451  0.45030  1.0000
  H   H162      1.0  0.06287  0.45801  0.49851  1.0000
  C   C102      1.0  0.16620  0.44206  0.54896  1.0000
  C   C103      1.0  0.26051  0.46235  0.48644  1.0000
  H   H163      1.0  0.06655  0.37868  0.49632  1.0000
  H   H164      1.0  0.40362  0.36067  0.37985  1.0000
  C   C104      1.0  0.29052  0.47894  0.62719  1.0000
  H   H165      1.0  0.27866  0.39608  0.32757  1.0000
  C   C105      1.0  0.25063  0.41568  0.53330  1.0000
  C   C106      1.0  0.16287  0.46809  0.32137  1.0000
  N   N8        1.0  0.25241  0.41725  0.64616  1.0000
  H   H166      1.0  0.10279  0.49534  0.50476  1.0000
  S   S34       1.0  0.05201  0.37621  0.43763  1.0000
  H   H167      1.0  0.48860  0.38374  0.35573  1.0000
  H   H168      1.0  0.43460  0.40320  0.41563  1.0000
  H   H169      1.0  0.28801  0.49883  0.61567  1.0000
  H   H170      1.0  0.08775  0.42432  0.61050  1.0000
  C   C107      1.0  0.18353  0.49685  0.57032  1.0000
  C   C108      1.0  0.43888  0.41103  0.39454  1.0000
  H   H171      1.0  0.23352  0.44110  0.49020  1.0000
  S   S35       1.0  0.42044  0.49187  0.41779  1.0000
  C   C109      1.0  0.16848  0.45729  0.52411  1.0000
  N   N9        1.0  0.47535  0.44002  0.59323  1.0000
  C   C110      1.0  0.42221  0.49474  0.36371  1.0000
  Fe  Fe18      1.0  0.16732  0.46556  0.64110  1.0000
  C   C111      1.0  0.17915  0.49262  0.52214  1.0000
  C   C112      1.0  0.45778  0.40231  0.58527  1.0000
  H   H172      1.0  0.05101  0.44057  0.44709  1.0000
  S   S36       1.0  0.11977  0.47621  0.43018  1.0000
  C   C113      1.0  0.07685  0.39835  0.51233  1.0000
  H   H173      1.0  0.23338  0.50020  0.35301  1.0000
  H   H174      1.0  0.26058  0.41511  0.34871  1.0000
  H   H175      1.0  0.41307  0.29873  0.33250  1.0000
  S   S37       1.0  0.40681  0.48930  0.55373  1.0000
  H   H176      1.0  0.30784  0.47229  0.61593  1.0000
  H   H177      1.0  0.51532  0.43943  0.37256  1.0000
  C   C114      1.0  0.50507  0.43769  0.35234  1.0000
  H   H178      1.0  0.05511  0.43563  0.60420  1.0000
  H   H179      1.0  0.48501  0.51047  0.55509  1.0000
  H   H180      1.0  0.30608  0.43901  0.33939  1.0000
  H   H181      1.0  0.03095  0.45023  0.56901  1.0000
  C   C115      1.0  0.51155  0.32201  0.47411  1.0000
  H   H182      1.0  0.40818  0.35659  0.57647  1.0000
  H   H183      1.0  0.28384  0.38592  0.59567  1.0000
  H   H184      1.0  0.23900  0.45765  0.64211  1.0000
  H   H185      1.0  0.30237  0.42345  0.63514  1.0000
  H   H186      1.0  0.49451  0.41767  0.43342  1.0000
  H   H187      1.0  0.42424  0.49794  0.32123  1.0000
  C   C116      1.0  0.27946  0.42086  0.33246  1.0000
  H   H188      1.0  0.32566  0.50158  0.48668  1.0000
  C   C117      1.0  0.25089  0.50411  0.33606  1.0000
  C   C118      1.0  0.25972  0.48763  0.52899  1.0000
  H   H189      1.0  0.50722  0.39729  0.40894  1.0000
  C   C119      1.0  0.18634  0.51220  0.54544  1.0000
  S   S38       1.0  0.19840  0.49582  0.41540  1.0000
  H   H190      1.0  0.51864  0.51084  0.57454  1.0000
  C   C120      1.0  0.45666  0.42508  0.64248  1.0000
  C   C121      1.0  0.27257  0.49913  0.55744  1.0000
  H   H191      1.0  0.27057  0.38026  0.64206  1.0000
  C   C122      1.0  0.51492  0.41120  0.42800  1.0000
  H   H192      1.0  0.03224  0.40425  0.50906  1.0000
  C   C123      1.0  0.02645  0.41903  0.45303  1.0000
  C   C124      1.0  0.31535  0.50716  0.50498  1.0000
  H   H193      1.0  0.24228  0.49964  0.47802  1.0000
  H   H194      1.0  0.24980  0.49152  0.57053  1.0000
  H   H195      1.0  0.26361  0.46713  0.35155  1.0000
  H   H196      1.0  0.02746  0.37337  0.53268  1.0000
  H   H197      1.0  0.51292  0.42155  0.63047  1.0000
  H   H198      1.0  0.52025  0.40805  0.59843  1.0000
  S   S39       1.0  0.15081  0.51047  0.35506  1.0000
  C   C125      1.0  0.31255  0.49748  0.31509  1.0000
  H   H199      1.0  0.02650  0.39477  0.37006  1.0000
  H   H200      1.0  0.18974  0.51248  0.58799  1.0000
  H   H201      1.0  0.25819  0.50959  0.51985  1.0000
  H   H202      1.0  0.52330  0.33206  0.61801  1.0000
  C   C126      1.0  0.02360  0.42646  0.55714  1.0000
  H   H203      1.0  0.10918  0.38038  0.78152  1.0000
  C   C127      1.0  0.24636  0.47621  0.86989  1.0000
  H   H204      1.0  0.48354  0.46324  0.79668  1.0000
  Fe  Fe19      1.0  0.45459  0.46316  0.73321  1.0000
  S   S40       1.0  0.40138  0.41662  0.73527  1.0000
  H   H205      1.0  0.10580  0.36740  0.74795  1.0000
  Fe  Fe20      1.0  0.38750  0.44379  0.70396  1.0000
  S   S41       1.0  0.35687  0.41794  0.66664  1.0000
  Fe  Fe21      1.0  0.39114  0.44799  0.76534  1.0000
  S   S42       1.0  0.36470  0.42468  0.80457  1.0000
  C   C128      1.0  0.47578  0.35172  0.67773  1.0000
  H   H206      1.0  0.51371  0.37951  0.70821  1.0000
  C   C129      1.0  0.42075  0.49527  0.86196  1.0000
  C   C130      1.0  0.45451  0.36023  0.83754  1.0000
  H   H207      1.0  0.49065  0.16073  0.98023  1.0000
  H   H208      1.0  0.10105  0.41878  0.74862  1.0000
  H   H209      1.0  0.31464  0.44269  0.82081  1.0000
  Fe  Fe22      1.0  0.42550  0.51287  0.73170  1.0000
  H   H210      1.0  0.28756  0.50964  0.84329  1.0000
  H   H211      1.0  0.43498  0.35914  0.88959  1.0000
  H   H212      1.0  0.29448  0.44858  0.67309  1.0000
  H   H213      1.0  0.47398  0.35919  0.65715  1.0000
  H   H214      1.0  0.22509  0.37772  0.85641  1.0000
  H   H215      1.0  0.08720  0.47712  0.76541  1.0000
  S   S43       1.0  0.12979  0.41453  0.88425  1.0000
  Fe  Fe23      1.0  0.09508  0.41187  0.91727  1.0000
  S   S44       1.0  0.44153  0.48835  0.69998  1.0000
  Fe  Fe24      1.0  0.16622  0.41853  0.91620  1.0000
  S   S45       1.0  0.19819  0.39354  0.90775  1.0000
  H   H216      1.0  0.06610  0.46098  0.81037  1.0000
  Fe  Fe25      1.0  0.40530  0.47088  0.95565  1.0000
  H   H217      1.0  0.49333  0.37529  0.86956  1.0000
  C   C131      1.0  0.22402  0.39731  0.93494  1.0000
  H   H218      1.0  0.05149  0.42249  0.83060  1.0000
  H   H219      1.0  0.22265  0.41152  0.83919  1.0000
  C   C132      1.0  0.17647  0.50496  0.79725  1.0000
  H   H220      1.0  0.19440  0.40936  0.96236  1.0000
  H   H221      1.0  0.48030  0.43914  0.65490  1.0000
  C   C133      1.0  0.25252  0.39224  0.93173  1.0000
  C   C134      1.0  0.18976  0.39461  0.66329  1.0000
  H   H222      1.0  0.27974  0.44642  0.80745  1.0000
  H   H223      1.0  0.46030  0.36015  0.68974  1.0000
  C   C135      1.0  0.48958  0.36673  0.84874  1.0000
  S   S46       1.0  0.06066  0.46618  0.67560  1.0000
  C   C136      1.0  0.17717  0.45959  0.77070  1.0000
  Fe  Fe26      1.0  0.11567  0.47591  0.67330  1.0000
  C   C137      1.0  0.03275  0.39801  0.69207  1.0000
  H   H224      1.0  0.23084  0.48769  0.97333  1.0000
  S   S47       1.0  0.11720  0.46947  0.91922  1.0000
  H   H225      1.0  0.48445  0.47023  0.83194  1.0000
  H   H226      1.0  0.33085  0.48752  0.78549  1.0000
  H   H227      1.0  0.47173  0.12813  0.95535  1.0000
  C   C138      1.0  0.26362  0.40028  0.69242  1.0000
  C   C139      1.0  0.17345  0.45511  0.81881  1.0000
  C   C140      1.0  0.51650  0.32956  0.96731  1.0000
  C   C141      1.0  0.38134  0.44537  0.83541  1.0000
  C   C142      1.0  0.40874  0.47956  0.83712  1.0000
  C   C143      1.0  0.27387  0.39606  0.95328  1.0000
  C   C144      1.0  0.40544  0.47721  0.88538  1.0000
  C   C145      1.0  0.37839  0.44280  0.88367  1.0000
  C   C146      1.0  0.36640  0.42703  0.85883  1.0000
  H   H228      1.0  0.40133  0.36984  0.88214  1.0000
  C   C147      1.0  0.41196  0.37843  0.82824  1.0000
  H   H229      1.0  0.36607  0.42858  0.90145  1.0000
  H   H230      1.0  0.34516  0.40058  0.85778  1.0000
  C   C148      1.0  0.50129  0.42074  0.74699  1.0000
  S   S48       1.0  0.17046  0.50440  0.85102  1.0000
  S   S49       1.0  0.50292  0.45795  0.73314  1.0000
  H   H231      1.0  0.44634  0.42750  0.86463  1.0000
  C   C149      1.0  0.46990  0.35980  0.75931  1.0000
  C   C150      1.0  0.47026  0.38901  0.74822  1.0000
  S   S50       1.0  0.44514  0.49335  0.76468  1.0000
  H   H232      1.0  0.29576  0.39200  0.95079  1.0000
  H   H233      1.0  0.44581  0.33534  0.76021  1.0000
  H   H234      1.0  0.44658  0.38686  0.74049  1.0000
  S   S51       1.0  0.17738  0.44117  0.73967  1.0000
  S   S52       1.0  0.49872  0.32510  0.78376  1.0000
  S   S53       1.0  0.19380  0.47645  0.91914  1.0000
  H   H235      1.0  0.25805  0.38521  0.91267  1.0000
  H   H236      1.0  0.23648  0.37934  0.69554  1.0000
  H   H237      1.0  0.17508  0.41726  0.79295  1.0000
  H   H238      1.0  0.05816  0.40103  0.68909  1.0000
  S   S54       1.0  0.15400  0.50556  0.70532  1.0000
  H   H239      1.0  0.04759  0.43533  0.93947  1.0000
  H   H240      1.0  0.16329  0.37168  0.66165  1.0000
  C   C151      1.0  0.51386  0.37138  0.68748  1.0000
  C   C152      1.0  0.09106  0.37019  0.76460  1.0000
  C   C153      1.0  0.24023  0.40131  0.84416  1.0000
  C   C154      1.0  0.32136  0.48842  0.89377  1.0000
  H   H241      1.0  0.21948  0.45523  0.86565  1.0000
  H   H242      1.0  0.43352  0.33782  0.84837  1.0000
  H   H243      1.0  0.44424  0.44514  0.81435  1.0000
  H   H244      1.0  0.26306  0.42803  0.88001  1.0000
  H   H245      1.0  0.37752  0.36089  0.79431  1.0000
  H   H246      1.0  0.10899  0.44808  0.78797  1.0000
  C   C155      1.0  0.27237  0.42768  0.85989  1.0000
  H   H247      1.0  0.48778  0.35392  0.93146  1.0000
  H   H248      1.0  0.06947  0.34384  0.76922  1.0000
  H   H249      1.0  0.04307  0.35890  0.80214  1.0000
  N   N10       1.0  0.44855  0.39085  0.83766  1.0000
  H   H250      1.0  0.47640  0.40805  0.80041  1.0000
  C   C156      1.0  0.17798  0.49140  0.77251  1.0000
  Fe  Fe27      1.0  0.16862  0.46425  0.70239  1.0000
  S   S55       1.0  0.37051  0.46925  0.73426  1.0000
  H   H251      1.0  0.30719  0.46307  0.90397  1.0000
  C   C157      1.0  0.08594  0.42640  0.79754  1.0000
  S   S56       1.0  0.36887  0.41351  0.95784  1.0000
  H   H252      1.0  0.09497  0.45738  0.83287  1.0000
  H   H253      1.0  0.34778  0.50170  0.90264  1.0000
  H   H254      1.0  0.28979  0.41642  0.86228  1.0000
  H   H255      1.0  0.42057  0.39341  0.78623  1.0000
  C   C158      1.0  0.06845  0.45801  0.75123  1.0000
  H   H256      1.0  0.17147  0.44077  0.83652  1.0000
  H   H257      1.0  0.25443  0.47092  0.88910  1.0000
  C   C159      1.0  0.40535  0.37010  0.79859  1.0000
  H   H258      1.0  0.48000  0.41842  0.87166  1.0000
  H   H259      1.0  0.25325  0.47156  0.82880  1.0000
  H   H260      1.0  0.47383  0.30941  0.71940  1.0000
  H   H261      1.0  0.09604  0.41144  0.80834  1.0000
  H   H262      1.0  0.41063  0.34921  0.79258  1.0000
  C   C160      1.0  0.21648  0.40560  0.95977  1.0000
  C   C161      1.0  0.49583  0.38149  0.93455  1.0000
  H   H263      1.0  0.05326  0.46944  0.74275  1.0000
  H   H264      1.0  0.43396  0.42148  0.65429  1.0000
  C   C162      1.0  0.07330  0.44242  0.81883  1.0000
  H   H265      1.0  0.24779  0.39283  0.82596  1.0000
  H   H266      1.0  0.40447  0.48971  0.65068  1.0000
  H   H267      1.0  0.27401  0.41200  0.71204  1.0000
  C   C163      1.0  0.50051  0.36204  0.76917  1.0000
  H   H268      1.0  0.51181  0.38539  0.83654  1.0000
  C   C164      1.0  0.03160  0.37199  0.79047  1.0000
  H   H269      1.0  0.08263  0.45465  0.73451  1.0000
  S   S57       1.0  0.41948  0.49929  0.91604  1.0000
  H   H270      1.0  0.47453  0.38179  0.94585  1.0000
  H   H271      1.0  0.42056  0.49407  0.81935  1.0000
  H   H272      1.0  0.49235  0.28454  0.73093  1.0000
  H   H273      1.0  0.06102  0.38344  0.73855  1.0000
  C   C165      1.0  0.49182  0.29991  0.71381  1.0000
  H   H274      1.0  0.19646  0.39816  0.68456  1.0000
  C   C166      1.0  0.26596  0.40370  0.97821  1.0000
  C   C167      1.0  0.30278  0.45966  0.82065  1.0000
  S   S58       1.0  0.03820  0.37241  0.91463  1.0000
  N   N11       1.0  0.05956  0.40406  0.77710  1.0000
  H   H275      1.0  0.49860  0.31063  0.65963  1.0000
  S   S59       1.0  0.20956  0.49171  0.67146  1.0000
  C   C168      1.0  0.07787  0.39499  0.75613  1.0000
  H   H276      1.0  0.30973  0.50489  0.89823  1.0000
  C   C169      1.0  0.45254  0.40603  0.86487  1.0000
  C   C170      1.0  0.02692  0.42557  0.68665  1.0000
  H   H277      1.0  0.35512  0.50476  0.81495  1.0000
  H   H278      1.0  0.27969  0.38905  0.68553  1.0000
  H   H279      1.0  0.17968  0.50554  0.75485  1.0000
  C   C171      1.0  0.47510  0.41856  0.81995  1.0000
  H   H280      1.0  0.49010  0.34196  0.84811  1.0000
  H   H281      1.0  0.40346  0.39741  0.83307  1.0000
  C   C172      1.0  0.32499  0.48516  0.86384  1.0000
  C   C173      1.0  0.26634  0.42889  0.67367  1.0000
  H   H282      1.0  0.39312  0.35445  0.83886  1.0000
  C   C174      1.0  0.17548  0.44179  0.79404  1.0000
  H   H283      1.0  0.43449  0.39477  0.90546  1.0000
  H   H284      1.0  0.21359  0.36371  0.65403  1.0000
  S   S60       1.0  0.12889  0.40950  0.94924  1.0000
  H   H285      1.0  0.25350  0.44211  0.68336  1.0000
  Fe  Fe28      1.0  0.15519  0.47195  0.88848  1.0000
  C   C175      1.0  0.47149  0.45107  0.81585  1.0000
  C   C176      1.0  0.42936  0.38055  0.88645  1.0000
  S   S61       1.0  0.12799  0.43279  0.67194  1.0000
  C   C177      1.0  0.17378  0.48675  0.82052  1.0000
  Fe  Fe29      1.0  0.15336  0.46749  0.94977  1.0000
  H   H286      1.0  0.50174  0.42852  0.82795  1.0000
  H   H287      1.0  0.45315  0.35057  0.81708  1.0000
  H   H288      1.0  0.46266  0.32321  0.67936  1.0000
  H   H289      1.0  0.51541  0.31530  0.94908  1.0000
  H   H290      1.0  0.18792  0.41711  0.65602  1.0000
  C   C178      1.0  0.49503  0.15334  0.96029  1.0000
  H   H291      1.0  0.49316  0.33232  0.96937  1.0000
  C   C179      1.0  0.04310  0.42300  0.76428  1.0000
  H   H292      1.0  0.49654  0.17249  0.94558  1.0000
  N   N12       1.0  0.29215  0.46358  0.84820  1.0000
  C   C180      1.0  0.27061  0.48125  0.84639  1.0000
  H   H293      1.0  0.34293  0.47469  0.86130  1.0000
  H   H294      1.0  0.49657  0.39397  0.91546  1.0000
  H   H295      1.0  0.33925  0.51223  0.85630  1.0000
  C   C181      1.0  0.32862  0.49352  0.80644  1.0000
  H   H296      1.0  0.48165  0.28179  0.69690  1.0000
  H   H297      1.0  0.02759  0.45678  0.86906  1.0000
  H   H298      1.0  0.24442  0.50006  0.87230  1.0000
  H   H299      1.0  0.31990  0.51298  0.80664  1.0000
  H   H300      1.0  0.02667  0.42749  0.77855  1.0000
  H   H301      1.0  0.52348  0.12870  0.97425  1.0000
  H   H302      1.0  0.02493  0.40697  0.74839  1.0000
  H   H303      1.0  0.46662  0.64394  0.12486  1.0000
  H   H304      1.0  0.38173  0.63423  0.22703  1.0000
  S   S62       1.0  0.21539  0.59813  0.16901  1.0000
  H   H305      1.0  0.44941  0.77248  0.15058  1.0000
  H   H306      1.0  0.35390  0.55153  0.11563  1.0000
  H   H307      1.0  0.46698  0.69899  0.19700  1.0000
  H   H308      1.0  0.26162  0.57849  0.25822  1.0000
  H   H309      1.0  0.29778  0.66592  0.21832  1.0000
  H   H310      1.0  0.42502  0.82573  0.16030  1.0000
  C   C182      1.0  0.30980  0.60159  0.16235  1.0000
  H   H311      1.0  0.31796  0.62219  0.25425  1.0000
  H   H312      1.0  0.16901  0.53003  0.03823  1.0000
  Fe  Fe30      1.0  0.43068  0.71960  0.04500  1.0000
  S   S63       1.0  0.38933  0.73440  0.04247  1.0000
  S   S64       1.0  0.45811  0.71763  0.00759  1.0000
  Fe  Fe31      1.0  0.42395  0.71198  0.10613  1.0000
  S   S65       1.0  0.38213  0.72612  0.10694  1.0000
  S   S66       1.0  0.44260  0.69923  0.14423  1.0000
  Fe  Fe32      1.0  0.36096  0.69133  0.07168  1.0000
  S   S67       1.0  0.30677  0.64690  0.06568  1.0000
  C   C183      1.0  0.48191  0.61631  0.29929  1.0000
  S   S68       1.0  0.40090  0.67443  0.07234  1.0000
  S   S69       1.0  0.39387  0.72375  0.25670  1.0000
  C   C184      1.0  0.45609  0.80010  0.15151  1.0000
  C   C185      1.0  0.41852  0.56325  0.15217  1.0000
  H   H313      1.0  0.48331  0.96744  0.02074  1.0000
  C   C186      1.0  0.46940  0.90091  0.01646  1.0000
  H   H314      1.0  0.34471  0.59487  0.00678  1.0000
  H   H315      1.0  0.47247  0.90458  0.99492  1.0000
  C   C187      1.0  0.42837  0.70519  0.17553  1.0000
  C   C188      1.0  0.40067  0.71163  0.17796  1.0000
  C   C189      1.0  0.39059  0.71734  0.20292  1.0000
  C   C190      1.0  0.40804  0.71672  0.22582  1.0000
  C   C191      1.0  0.43551  0.70985  0.22354  1.0000
  C   C192      1.0  0.44552  0.70398  0.19851  1.0000
  H   H316      1.0  0.38679  0.71209  0.16065  1.0000
  H   H317      1.0  0.36908  0.72228  0.20448  1.0000
  H   H318      1.0  0.44900  0.70895  0.24104  1.0000
  H   H319      1.0  0.47086  0.97926  0.06378  1.0000
  H   H320      1.0  0.43646  0.80283  0.98386  1.0000
  C   C193      1.0  0.31799  0.63319  0.23454  1.0000
  H   H321      1.0  0.46913  0.86779  0.27166  1.0000
  C   C194      1.0  0.27069  0.57855  0.21523  1.0000
  C   C195      1.0  0.16083  0.51627  0.30124  1.0000
  C   C196      1.0  0.29549  0.65073  0.23630  1.0000
  H   H322      1.0  0.32574  0.53760  0.00675  1.0000
  H   H323      1.0  0.38810  0.59975  0.15083  1.0000
  C   C197      1.0  0.32321  0.60008  0.01095  1.0000
  C   C198      1.0  0.29741  0.57517  0.03177  1.0000
  H   H324      1.0  0.50941  0.93543  0.11926  1.0000
  H   H325      1.0  0.32184  0.56722  0.20245  1.0000
  Fe  Fe33      1.0  0.41561  0.76772  0.07791  1.0000
  H   H326      1.0  0.31442  0.61750  0.14432  1.0000
  C   C199      1.0  0.50693  0.97176  0.29580  1.0000
  H   H327      1.0  0.43827  0.81215  0.21086  1.0000
  Fe  Fe34      1.0  0.42316  0.72973  0.29496  1.0000
  H   H328      1.0  0.37448  0.58499  0.09117  1.0000
  H   H329      1.0  0.24161  0.53480  0.00212  1.0000
  H   H330      1.0  0.50830  0.98133  0.07819  1.0000
  H   H331      1.0  0.34754  0.58818  0.11555  1.0000
  Fe  Fe35      1.0  0.17864  0.54075  0.16929  1.0000
  H   H332      1.0  0.44049  0.59075  0.06345  1.0000
  C   C200      1.0  0.23987  0.61177  0.13990  1.0000
  C   C201      1.0  0.26661  0.64623  0.13752  1.0000
  C   C202      1.0  0.28741  0.65714  0.11483  1.0000
  C   C203      1.0  0.28104  0.63380  0.09423  1.0000
  C   C204      1.0  0.25383  0.59949  0.09638  1.0000
  C   C205      1.0  0.23356  0.58834  0.11935  1.0000
  H   H333      1.0  0.27129  0.66449  0.15326  1.0000
  H   H334      1.0  0.30774  0.68382  0.11300  1.0000
  H   H335      1.0  0.24841  0.58150  0.08032  1.0000
  H   H336      1.0  0.21284  0.56175  0.12102  1.0000
  S   S70       1.0  0.48043  0.74884  0.29537  1.0000
  S   S71       1.0  0.42476  0.82238  0.08272  1.0000
  C   C206      1.0  0.46056  0.62200  0.13852  1.0000
  H   H337      1.0  0.38222  0.51630  0.12934  1.0000
  H   H338      1.0  0.31176  0.58295  0.05078  1.0000
  C   C207      1.0  0.50456  0.91870  0.03089  1.0000
  H   H339      1.0  0.49754  0.92745  0.25542  1.0000
  C   C208      1.0  0.48840  0.96813  0.06268  1.0000
  H   H340      1.0  0.33149  0.54403  0.04121  1.0000
  H   H341      1.0  0.27280  0.54621  0.24746  1.0000
  H   H342      1.0  0.48564  0.66335  0.16756  1.0000
  H   H343      1.0  0.29284  0.51540  0.07773  1.0000
  H   H344      1.0  0.25318  0.58892  0.21017  1.0000
  H   H345      1.0  0.34550  0.52014  0.28004  1.0000
  H   H346      1.0  0.46816  0.62109  0.18132  1.0000
  C   C209      1.0  0.46317  0.63655  0.16659  1.0000
  H   H347      1.0  0.49225  0.82766  0.07646  1.0000
  H   H348      1.0  0.43967  0.63776  0.17228  1.0000
  H   H349      1.0  0.40963  0.78361  0.17614  1.0000
  H   H350      1.0  0.38886  0.70253  0.99042  1.0000
  C   C210      1.0  0.38469  0.52839  0.14890  1.0000
  H   H351      1.0  0.45709  0.79730  0.23486  1.0000
  H   H352      1.0  0.48233  0.61641  0.13633  1.0000
  H   H353      1.0  0.48044  0.84145  0.22452  1.0000
  H   H354      1.0  0.46270  0.80980  0.13091  1.0000
  C   C211      1.0  0.47227  0.88619  0.10219  1.0000
  C   C212      1.0  0.47587  0.64437  0.30014  1.0000
  C   C213      1.0  0.46059  0.65121  0.27853  1.0000
  C   C214      1.0  0.49571  0.85081  0.08605  1.0000
  H   H355      1.0  0.15793  0.53898  0.30299  1.0000
  H   H356      1.0  0.45021  0.88981  0.10576  1.0000
  N   N13       1.0  0.28234  0.53675  0.02684  1.0000
  C   C215      1.0  0.46710  0.85525  0.09068  1.0000
  H   H357      1.0  0.28323  0.57895  0.16067  1.0000
  C   C216      1.0  0.46312  0.81462  0.21748  1.0000
  H   H358      1.0  0.34507  0.65460  0.23183  1.0000
  C   C217      1.0  0.49179  0.88765  0.28293  1.0000
  C   C218      1.0  0.37010  0.61407  0.21148  1.0000
  H   H359      1.0  0.26447  0.55763  0.20060  1.0000
  H   H360      1.0  0.29482  0.63335  0.18396  1.0000
  H   H361      1.0  0.43236  0.62050  0.08204  1.0000
  H   H362      1.0  0.47316  0.85955  0.18142  1.0000
  H   H363      1.0  0.47774  0.57374  0.27623  1.0000
  H   H364      1.0  0.48129  0.89537  0.29984  1.0000
  C   C219      1.0  0.42201  0.79956  0.15843  1.0000
  H   H365      1.0  0.27627  0.58179  0.03364  1.0000
  H   H366      1.0  0.40664  0.55476  0.09804  1.0000
  H   H367      1.0  0.26776  0.63198  0.24024  1.0000
  C   C220      1.0  0.47249  0.59497  0.27693  1.0000
  H   H368      1.0  0.30507  0.66947  0.25296  1.0000
  H   H369      1.0  0.46535  0.77524  0.19441  1.0000
  C   C221      1.0  0.36704  0.57980  0.11224  1.0000
  H   H370      1.0  0.47354  0.62175  0.08458  1.0000
  C   C222      1.0  0.50579  0.91210  0.10972  1.0000
  C   C223      1.0  0.48096  0.80387  0.19627  1.0000
  H   H371      1.0  0.23093  0.54069  0.24095  1.0000
  H   H372      1.0  0.44032  0.55757  0.15354  1.0000
  H   H373      1.0  0.38345  0.59852  0.21270  1.0000
  C   C224      1.0  0.39847  0.60078  0.13068  1.0000
  H   H374      1.0  0.40949  0.62831  0.12443  1.0000
  H   H375      1.0  0.47255  0.94010  0.06714  1.0000
  H   H376      1.0  0.33536  0.62703  0.01870  1.0000
  H   H377      1.0  0.41646  0.57262  0.17207  1.0000
  H   H378      1.0  0.36165  0.53105  0.15332  1.0000
  H   H379      1.0  0.50615  0.87480  0.29030  1.0000
  C   C225      1.0  0.45757  0.60199  0.25520  1.0000
  H   H380      1.0  0.40329  0.78685  0.14203  1.0000
  H   H381      1.0  0.44076  0.63611  0.23905  1.0000
  N   N14       1.0  0.30830  0.60640  0.21312  1.0000
  H   H382      1.0  0.45664  0.87251  0.02015  1.0000
  H   H383      1.0  0.30991  0.60008  0.99244  1.0000
  H   H384      1.0  0.28279  0.54964  0.08421  1.0000
  C   C226      1.0  0.45187  0.63030  0.25593  1.0000
  C   C227      1.0  0.31370  0.62403  0.18675  1.0000
  H   H385      1.0  0.33972  0.64768  0.18571  1.0000
  S   S72       1.0  0.44605  0.57581  0.22696  1.0000
  S   S73       1.0  0.45900  0.75558  0.07897  1.0000
  C   C228      1.0  0.43106  0.57738  0.10515  1.0000
  H   H386      1.0  0.32832  0.57906  0.23609  1.0000
  C   C229      1.0  0.25898  0.56036  0.24220  1.0000
  H   H387      1.0  0.44963  0.56752  0.10713  1.0000
  H   H388      1.0  0.45133  0.90933  0.02407  1.0000
  C   C230      1.0  0.44503  0.60439  0.08268  1.0000
  H   H389      1.0  0.48177  0.94879  0.29048  1.0000
  N   N15       1.0  0.48681  0.82073  0.16945  1.0000
  N   N16       1.0  0.42628  0.59050  0.13138  1.0000
  C   C231      1.0  0.50491  0.97506  0.03499  1.0000
  Fe  Fe36      1.0  0.44028  0.52327  0.23425  1.0000
  H   H390      1.0  0.37625  0.62667  0.19187  1.0000
  C   C232      1.0  0.51448  0.91845  0.26462  1.0000
  C   C233      1.0  0.33074  0.58987  0.21592  1.0000
  H   H391      1.0  0.45598  0.67291  0.27905  1.0000
  H   H392      1.0  0.32908  0.59269  0.16214  1.0000
  H   H393      1.0  0.16806  0.52112  0.25900  1.0000
  S   S74       1.0  0.14405  0.51647  0.20418  1.0000
  H   H394      1.0  0.49897  0.91074  0.05188  1.0000
  H   H395      1.0  0.51438  0.99231  0.28074  1.0000
  H   H396      1.0  0.50592  0.80874  0.20526  1.0000
  H   H397      1.0  0.46793  0.52433  0.10717  1.0000
  H   H398      1.0  0.50452  0.76775  0.16779  1.0000
  C   C234      1.0  0.31168  0.52879  0.02587  1.0000
  C   C235      1.0  0.27245  0.52284  0.07673  1.0000
  C   C236      1.0  0.25680  0.51819  0.04884  1.0000
  H   H399      1.0  0.49392  0.86735  0.15063  1.0000
  H   H400      1.0  0.51935  0.90623  0.02350  1.0000
  C   C237      1.0  0.49398  0.85761  0.17080  1.0000
  H   H401      1.0  0.28016  0.54429  0.98473  1.0000
  H   H402      1.0  0.49691  0.77322  0.13343  1.0000
  H   H403      1.0  0.52139  0.00370  0.03291  1.0000
  H   H404      1.0  0.23734  0.52705  0.04980  1.0000
  C   C238      1.0  0.51795  0.82128  0.15681  1.0000
  C   C239      1.0  0.51416  0.78554  0.15064  1.0000
  C   C240      1.0  0.26292  0.52835  0.00101  1.0000
  H   H405      1.0  0.52246  0.90760  0.24798  1.0000
  H   H406      1.0  0.52201  0.00075  0.98507  1.0000
  S   S75       1.0  0.38406  0.71093  0.39269  1.0000
  H   H407      1.0  0.40152  0.59638  0.62179  1.0000
  H   H408      1.0  0.28941  0.52775  0.55856  1.0000
  H   H409      1.0  0.27634  0.52699  0.34088  1.0000
  C   C241      1.0  0.43059  0.80728  0.40713  1.0000
  H   H410      1.0  0.50650  0.60618  0.38664  1.0000
  C   C242      1.0  0.50717  0.92162  0.36818  1.0000
  C   C243      1.0  0.48270  0.89821  0.59434  1.0000
  H   H411      1.0  0.40884  0.66144  0.37808  1.0000
  H   H412      1.0  0.51702  0.99096  0.49093  1.0000
  C   C244      1.0  0.50015  0.81474  0.45683  1.0000
  Fe  Fe37      1.0  0.46668  0.70737  0.32580  1.0000
  Fe  Fe38      1.0  0.48191  0.78188  0.32953  1.0000
  C   C245      1.0  0.43230  0.71028  0.42716  1.0000
  C   C246      1.0  0.40075  0.70991  0.42420  1.0000
  C   C247      1.0  0.38244  0.70977  0.44687  1.0000
  H   H413      1.0  0.44658  0.71011  0.40999  1.0000
  H   H414      1.0  0.35812  0.70968  0.44475  1.0000
  H   H415      1.0  0.37246  0.56182  0.38029  1.0000
  H   H416      1.0  0.42722  0.56100  0.34517  1.0000
  H   H417      1.0  0.33482  0.56501  0.62249  1.0000
  C   C248      1.0  0.39934  0.63479  0.38563  1.0000
  C   C249      1.0  0.45611  0.59311  0.40306  1.0000
  H   H418      1.0  0.47006  0.71128  0.45453  1.0000
  Fe  Fe39      1.0  0.42404  0.72293  0.54401  1.0000
  S   S76       1.0  0.38683  0.74302  0.54169  1.0000
  S   S77       1.0  0.44609  0.71340  0.50650  1.0000
  Fe  Fe40      1.0  0.42319  0.72299  0.60533  1.0000
  Fe  Fe41      1.0  0.35862  0.70481  0.57405  1.0000
  S   S78       1.0  0.30189  0.66591  0.57089  1.0000
  S   S79       1.0  0.50019  0.95558  0.37838  1.0000
  S   S80       1.0  0.39383  0.68220  0.57456  1.0000
  H   H419      1.0  0.44151  0.83417  0.39974  1.0000
  C   C250      1.0  0.42773  0.71161  0.47513  1.0000
  C   C251      1.0  0.44558  0.71092  0.45248  1.0000
  C   C252      1.0  0.39596  0.71087  0.47222  1.0000
  H   H420      1.0  0.48505  0.77992  0.41055  1.0000
  H   H421      1.0  0.38184  0.71117  0.48948  1.0000
  H   H422      1.0  0.31289  0.53034  0.50043  1.0000
  H   H423      1.0  0.43979  0.81651  0.44842  1.0000
  S   S81       1.0  0.43317  0.83573  0.57423  1.0000
  C   C253      1.0  0.50497  0.80640  0.64254  1.0000
  Fe  Fe42      1.0  0.41772  0.72376  0.35587  1.0000
  H   H424      1.0  0.50096  0.91367  0.48473  1.0000
  C   C254      1.0  0.30389  0.65368  0.62380  1.0000
  C   C255      1.0  0.43100  0.63015  0.39102  1.0000
  H   H425      1.0  0.38199  0.61678  0.37026  1.0000
  H   H426      1.0  0.50242  0.86835  0.40686  1.0000
  C   C256      1.0  0.28501  0.64259  0.60026  1.0000
  C   C257      1.0  0.25206  0.61286  0.60019  1.0000
  H   H427      1.0  0.45291  0.88648  0.36052  1.0000
  H   H428      1.0  0.23737  0.60415  0.58205  1.0000
  C   C258      1.0  0.41082  0.57268  0.34998  1.0000
  H   H429      1.0  0.32935  0.67648  0.62398  1.0000
  H   H430      1.0  0.44711  0.86783  0.50050  1.0000
  H   H431      1.0  0.48196  0.93731  0.55079  1.0000
  H   H432      1.0  0.45886  0.64434  0.63719  1.0000
  H   H433      1.0  0.49162  0.87329  0.64452  1.0000
  H   H434      1.0  0.47748  0.87809  0.52676  1.0000
  C   C259      1.0  0.51778  0.86819  0.34872  1.0000
  S   S82       1.0  0.47441  0.74224  0.36001  1.0000
  C   C260      1.0  0.49638  0.95957  0.53722  1.0000
  H   H435      1.0  0.37816  0.58456  0.42260  1.0000
  H   H436      1.0  0.46769  0.60437  0.42264  1.0000
  H   H437      1.0  0.44727  0.63937  0.37312  1.0000
  H   H438      1.0  0.49702  0.83276  0.57629  1.0000
  S   S83       1.0  0.45805  0.76142  0.57482  1.0000
  H   H439      1.0  0.50183  0.82131  0.49954  1.0000
  C   C261      1.0  0.47888  0.89001  0.35997  1.0000
  C   C262      1.0  0.50193  0.86204  0.42813  1.0000
  Fe  Fe43      1.0  0.41874  0.77916  0.57426  1.0000
  H   H440      1.0  0.36804  0.54247  0.51814  1.0000
  H   H441      1.0  0.40259  0.79720  0.41135  1.0000
  C   C263      1.0  0.49791  0.80866  0.40869  1.0000
  N   N17       1.0  0.27183  0.62458  0.49028  1.0000
  C   C264      1.0  0.30647  0.63046  0.50032  1.0000
  C   C265      1.0  0.27737  0.65933  0.48126  1.0000
  C   C266      1.0  0.26144  0.59987  0.46719  1.0000
  C   C267      1.0  0.24583  0.60909  0.51244  1.0000
  C   C268      1.0  0.30799  0.59764  0.50812  1.0000
  C   C269      1.0  0.28791  0.68714  0.50297  1.0000
  C   C270      1.0  0.23317  0.59813  0.44851  1.0000
  C   C271      1.0  0.21037  0.60736  0.50914  1.0000
  H   H442      1.0  0.32729  0.64459  0.48538  1.0000
  H   H443      1.0  0.31480  0.64724  0.51817  1.0000
  H   H444      1.0  0.25404  0.65728  0.47160  1.0000
  H   H445      1.0  0.29776  0.67021  0.46565  1.0000
  H   H446      1.0  0.28440  0.60655  0.45441  1.0000
  H   H447      1.0  0.25203  0.57287  0.47413  1.0000
  H   H448      1.0  0.23970  0.58202  0.51633  1.0000
  H   H449      1.0  0.25708  0.62246  0.53144  1.0000
  H   H450      1.0  0.33457  0.60569  0.51544  1.0000
  H   H451      1.0  0.28979  0.58328  0.52441  1.0000
  H   H452      1.0  0.30315  0.58023  0.49104  1.0000
  H   H453      1.0  0.28817  0.71034  0.49453  1.0000
  H   H454      1.0  0.26929  0.67807  0.51966  1.0000
  H   H455      1.0  0.31451  0.69602  0.51048  1.0000
  H   H456      1.0  0.41867  0.60762  0.43930  1.0000
  H   H457      1.0  0.20905  0.59252  0.45887  1.0000
  H   H458      1.0  0.22593  0.57656  0.43428  1.0000
  N   N18       1.0  0.51557  0.95119  0.51652  1.0000
  H   H459      1.0  0.21066  0.62752  0.49630  1.0000
  S   S84       1.0  0.48726  0.67053  0.32836  1.0000
  C   C272      1.0  0.34474  0.51878  0.52551  1.0000
  C   C273      1.0  0.50189  0.85722  0.58429  1.0000
  H   H460      1.0  0.48435  0.87032  0.43726  1.0000
  H   H461      1.0  0.43150  0.79037  0.39140  1.0000
  S   S85       1.0  0.38587  0.74314  0.60661  1.0000
  H   H462      1.0  0.43787  0.77771  0.43760  1.0000
  C   C274      1.0  0.23775  0.59465  0.62370  1.0000
  H   H463      1.0  0.49242  0.78669  0.45708  1.0000
  H   H464      1.0  0.38449  0.63252  0.40382  1.0000
  C   C275      1.0  0.46344  0.88827  0.51497  1.0000
  H   H465      1.0  0.45895  0.80105  0.48629  1.0000
  N   N19       1.0  0.48801  0.82356  0.43168  1.0000
  H   H466      1.0  0.49417  0.61123  0.31578  1.0000
  H   H467      1.0  0.44711  0.64926  0.40649  1.0000
  H   H468      1.0  0.46229  0.83935  0.34344  1.0000
  C   C276      1.0  0.48414  0.86328  0.35031  1.0000
  H   H469      1.0  0.42445  0.60012  0.34378  1.0000
  C   C277      1.0  0.44881  0.80553  0.43256  1.0000
  C   C278      1.0  0.47545  0.86563  0.58485  1.0000
  C   C279      1.0  0.39964  0.56679  0.37923  1.0000
  H   H470      1.0  0.52105  0.94635  0.61204  1.0000
  H   H471      1.0  0.46231  0.90487  0.59487  1.0000
  H   H472      1.0  0.33834  0.60758  0.62161  1.0000
  S   S86       1.0  0.42546  0.76591  0.32727  1.0000
  H   H473      1.0  0.47649  0.96444  0.52776  1.0000
  H   H474      1.0  0.39693  0.54123  0.38447  1.0000
  H   H475      1.0  0.40237  0.63644  0.62495  1.0000
  H   H476      1.0  0.48746  0.84731  0.48234  1.0000
  C   C280      1.0  0.39656  0.55217  0.43853  1.0000
  N   N20       1.0  0.42287  0.59412  0.39883  1.0000
  H   H477      1.0  0.45082  0.56584  0.40354  1.0000
  H   H478      1.0  0.24287  0.62212  0.43658  1.0000
  C   C281      1.0  0.40390  0.58623  0.42490  1.0000
  H   H479      1.0  0.44510  0.89173  0.52778  1.0000
  H   H480      1.0  0.43514  0.85995  0.64374  1.0000
  H   H481      1.0  0.50265  0.79093  0.62466  1.0000
  C   C282      1.0  0.38757  0.60863  0.63099  1.0000
  S   S87       1.0  0.40911  0.68575  0.32334  1.0000
  H   H482      1.0  0.21210  0.57211  0.62358  1.0000
  C   C283      1.0  0.48849  0.92183  0.50001  1.0000
  H   H483      1.0  0.19041  0.58147  0.50182  1.0000
  H   H484      1.0  0.47224  0.93040  0.48905  1.0000
  H   H485      1.0  0.33827  0.52550  0.54483  1.0000
  H   H486      1.0  0.35572  0.59402  0.59563  1.0000
  H   H487      1.0  0.20160  0.61143  0.52869  1.0000
  H   H488      1.0  0.50049  0.99497  0.56828  1.0000
  H   H489      1.0  0.47722  0.60550  0.36235  1.0000
  H   H490      1.0  0.48865  0.81373  0.38973  1.0000
  H   H491      1.0  0.19416  0.53942  0.54436  1.0000
  H   H492      1.0  0.49772  0.64119  0.38527  1.0000
  C   C284      1.0  0.48567  0.61264  0.38297  1.0000
  H   H493      1.0  0.44584  0.51932  0.36628  1.0000
  H   H494      1.0  0.46645  0.81741  0.62741  1.0000
  H   H495      1.0  0.38733  0.56023  0.33730  1.0000
  H   H496      1.0  0.37977  0.52903  0.42638  1.0000
  C   C285      1.0  0.35178  0.59266  0.61733  1.0000
  C   C286      1.0  0.48618  0.82179  0.48259  1.0000
  S   S88       1.0  0.44421  0.71220  0.64298  1.0000
  H   H497      1.0  0.42083  0.55217  0.44384  1.0000
  C   C287      1.0  0.51598  0.92178  0.60399  1.0000
  H   H498      1.0  0.38244  0.54936  0.45727  1.0000
  H   H499      1.0  0.41603  0.81654  0.63012  1.0000
  C   C288      1.0  0.51824  0.99064  0.55538  1.0000
  H   H500      1.0  0.38075  0.54301  0.63765  1.0000
  H   H501      1.0  0.42277  0.51683  0.60642  1.0000
  C   C289      1.0  0.47077  0.80721  0.64615  1.0000
  H   H502      1.0  0.31551  0.52383  0.31566  1.0000
  H   H503      1.0  0.44768  0.60085  0.64675  1.0000
  H   H504      1.0  0.50244  0.98210  0.31446  1.0000
  H   H505      1.0  0.37008  0.56767  0.69190  1.0000
  C   C290      1.0  0.43888  0.62121  0.75406  1.0000
  S   S89       1.0  0.23769  0.58555  0.67730  1.0000
  H   H506      1.0  0.47792  0.81225  0.73673  1.0000
  C   C291      1.0  0.42268  0.63631  0.88187  1.0000
  H   H507      1.0  0.45252  0.88745  0.84901  1.0000
  C   C292      1.0  0.46516  0.58910  0.77183  1.0000
  N   N21       1.0  0.26488  0.61656  0.75645  1.0000
  H   H508      1.0  0.48429  0.96660  0.79046  1.0000
  H   H509      1.0  0.51010  0.79339  0.65919  1.0000
  H   H510      1.0  0.28772  0.60188  0.72480  1.0000
  C   C293      1.0  0.45878  0.71742  0.95337  1.0000
  H   H511      1.0  0.50572  0.91731  0.67443  1.0000
  S   S90       1.0  0.39190  0.70599  0.89358  1.0000
  Fe  Fe44      1.0  0.42518  0.73171  0.79475  1.0000
  S   S91       1.0  0.39389  0.72699  0.75774  1.0000
  S   S92       1.0  0.41287  0.68625  0.82111  1.0000
  C   C294      1.0  0.44481  0.71535  0.92805  1.0000
  Fe  Fe45      1.0  0.47048  0.70795  0.82117  1.0000
  H   H512      1.0  0.46070  0.71935  0.91090  1.0000
  H   H513      1.0  0.45300  0.77687  0.90681  1.0000
  C   C295      1.0  0.43783  0.71938  0.72267  1.0000
  C   C296      1.0  0.42104  0.57910  0.88182  1.0000
  C   C297      1.0  0.42462  0.80280  0.89692  1.0000
  C   C298      1.0  0.46570  0.81959  0.72070  1.0000
  C   C299      1.0  0.49508  0.89173  0.68440  1.0000
  C   C300      1.0  0.47297  0.64094  0.79422  1.0000
  C   C301      1.0  0.43578  0.80385  0.96197  1.0000
  H   H514      1.0  0.45196  0.71837  0.73972  1.0000
  C   C302      1.0  0.44512  0.59327  0.75244  1.0000
  H   H515      1.0  0.19508  0.60732  0.74313  1.0000
  H   H516      1.0  0.34047  0.55607  0.66530  1.0000
  C   C303      1.0  0.43031  0.71702  0.67474  1.0000
  C   C304      1.0  0.40119  0.72103  0.67813  1.0000
  C   C305      1.0  0.39061  0.72441  0.70362  1.0000
  C   C306      1.0  0.40872  0.72343  0.72604  1.0000
  H   H517      1.0  0.47056  0.56798  0.77049  1.0000
  C   C307      1.0  0.47923  0.81478  0.69388  1.0000
  H   H518      1.0  0.38657  0.72123  0.66117  1.0000
  H   H519      1.0  0.36825  0.72782  0.70594  1.0000
  H   H520      1.0  0.41005  0.55153  0.84440  1.0000
  H   H521      1.0  0.27625  0.61037  0.82351  1.0000
  H   H522      1.0  0.46462  0.84071  0.83572  1.0000
  C   C308      1.0  0.41053  0.70841  0.92510  1.0000
  Fe  Fe46      1.0  0.42322  0.72214  0.85552  1.0000
  C   C309      1.0  0.47929  0.61307  0.79259  1.0000
  H   H523      1.0  0.44784  0.66650  0.77603  1.0000
  H   H524      1.0  0.42826  0.83255  0.68934  1.0000
  H   H525      1.0  0.43279  0.64442  0.86148  1.0000
  C   C310      1.0  0.50495  0.92242  0.86171  1.0000
  C   C311      1.0  0.28926  0.63592  0.64740  1.0000
  S   S93       1.0  0.48257  0.75139  0.79290  1.0000
  H   H526      1.0  0.17404  0.56686  0.75999  1.0000
  H   H527      1.0  0.47115  0.71315  0.69482  1.0000
  H   H528      1.0  0.37755  0.64926  0.66203  1.0000
  C   C312      1.0  0.25780  0.60124  0.80665  1.0000
  S   S94       1.0  0.49571  0.95535  0.87050  1.0000
  S   S95       1.0  0.42811  0.56436  0.72573  1.0000
  C   C313      1.0  0.39442  0.58144  0.93350  1.0000
  H   H529      1.0  0.40908  0.78105  0.88316  1.0000
  C   C314      1.0  0.36825  0.62804  0.70133  1.0000
  C   C315      1.0  0.38299  0.62117  0.88170  1.0000
  H   H530      1.0  0.42899  0.82687  0.88690  1.0000
  H   H531      1.0  0.30352  0.64523  0.66568  1.0000
  C   C316      1.0  0.25607  0.60652  0.64740  1.0000
  H   H532      1.0  0.46899  0.88563  0.69118  1.0000
  H   H533      1.0  0.22535  0.57604  0.73219  1.0000
  H   H534      1.0  0.42346  0.62458  0.73917  1.0000
  H   H535      1.0  0.41432  0.79198  0.67453  1.0000
  H   H536      1.0  0.41576  0.59390  0.84091  1.0000
  C   C317      1.0  0.42960  0.61137  0.92380  1.0000
  H   H537      1.0  0.49161  0.93353  0.80344  1.0000
  H   H538      1.0  0.39331  0.55601  0.93119  1.0000
  C   C318      1.0  0.26719  0.64546  0.73930  1.0000
  C   C319      1.0  0.45259  0.64489  0.77500  1.0000
  C   C320      1.0  0.50489  0.96100  0.79707  1.0000
  H   H539      1.0  0.26697  0.55219  0.75841  1.0000
  H   H540      1.0  0.39287  0.56288  0.88567  1.0000
  H   H541      1.0  0.43215  0.63585  0.93198  1.0000
  C   C321      1.0  0.45319  0.62647  0.65414  1.0000
  C   C322      1.0  0.30324  0.67835  0.73748  1.0000
  H   H542      1.0  0.32147  0.67370  0.72554  1.0000
  H   H543      1.0  0.42544  0.61495  0.69109  1.0000
  H   H544      1.0  0.41448  0.77846  0.95488  1.0000
  C   C323      1.0  0.48161  0.86184  0.92293  1.0000
  S   S96       1.0  0.49046  0.67047  0.82046  1.0000
  S   S97       1.0  0.42872  0.76557  0.82928  1.0000
  C   C324      1.0  0.47837  0.89107  0.85144  1.0000
  H   H545      1.0  0.49538  0.61017  0.80725  1.0000
  H   H546      1.0  0.22497  0.56348  0.76489  1.0000
  H   H547      1.0  0.30135  0.58279  0.78031  1.0000
  H   H548      1.0  0.46942  0.78643  0.69246  1.0000
  C   C325      1.0  0.44858  0.71625  0.69715  1.0000
  N   N22       1.0  0.46927  0.82752  0.66954  1.0000
  C   C326      1.0  0.38229  0.54536  0.65942  1.0000
  H   H549      1.0  0.30067  0.69906  0.72721  1.0000
  H   H550      1.0  0.46939  0.78512  0.95052  1.0000
  Fe  Fe47      1.0  0.19258  0.53140  0.67270  1.0000
  C   C327      1.0  0.19857  0.59219  0.75907  1.0000
  H   H551      1.0  0.30100  0.64546  0.78787  1.0000
  H   H552      1.0  0.48530  0.72282  0.95542  1.0000
  H   H553      1.0  0.51771  0.97815  0.81423  1.0000
  H   H554      1.0  0.39491  0.64425  0.70910  1.0000
  C   C328      1.0  0.42541  0.57862  0.85163  1.0000
  H   H555      1.0  0.43723  0.80186  0.72256  1.0000
  H   H556      1.0  0.36605  0.51882  0.66753  1.0000
  C   C329      1.0  0.47111  0.81092  0.95096  1.0000
  H   H557      1.0  0.31136  0.57186  0.74915  1.0000
  H   H558      1.0  0.25378  0.57545  0.80118  1.0000
  H   H559      1.0  0.49128  0.68816  0.89247  1.0000
  C   C330      1.0  0.36754  0.62319  0.67114  1.0000
  H   H560      1.0  0.17664  0.52936  0.79840  1.0000
  H   H561      1.0  0.49858  0.87972  0.96376  1.0000
  H   H562      1.0  0.39183  0.58483  0.95494  1.0000
  H   H563      1.0  0.25881  0.63618  0.71873  1.0000
  H   H564      1.0  0.35394  0.64195  0.70616  1.0000
  H   H565      1.0  0.33954  0.60820  0.66569  1.0000
  N   N23       1.0  0.48192  0.82808  0.92430  1.0000
  H   H566      1.0  0.44956  0.60755  0.93432  1.0000
  H   H567      1.0  0.51175  0.89457  0.70157  1.0000
  H   H568      1.0  0.37190  0.58075  0.92360  1.0000
  H   H569      1.0  0.35527  0.60293  0.71192  1.0000
  C   C331      1.0  0.48514  0.86450  0.84400  1.0000
  C   C332      1.0  0.50445  0.88968  0.94329  1.0000
  H   H570      1.0  0.37601  0.63309  0.86528  1.0000
  H   H571      1.0  0.43278  0.56444  0.89087  1.0000
  H   H572      1.0  0.26148  0.64649  0.78876  1.0000
  Fe  Fe48      1.0  0.48541  0.78220  0.82906  1.0000
  H   H573      1.0  0.47351  0.81065  0.88352  1.0000
  C   C333      1.0  0.40462  0.70619  0.97316  1.0000
  H   H574      1.0  0.36390  0.69802  0.94583  1.0000
  H   H575      1.0  0.40909  0.55415  0.66631  1.0000
  H   H576      1.0  0.47188  0.84655  0.72437  1.0000
  C   C334      1.0  0.42389  0.62520  0.67144  1.0000
  H   H577      1.0  0.40850  0.79819  0.91466  1.0000
  H   H578      1.0  0.48160  0.63611  0.86890  1.0000
  C   C335      1.0  0.27244  0.62917  0.78467  1.0000
  H   H579      1.0  0.24923  0.65442  0.74643  1.0000
  H   H580      1.0  0.31465  0.68859  0.75716  1.0000
  H   H581      1.0  0.49555  0.95531  0.97741  1.0000
  H   H582      1.0  0.31823  0.62977  0.74885  1.0000
  S   S98       1.0  0.47999  0.74073  0.85706  1.0000
  H   H583      1.0  0.37411  0.62719  0.90045  1.0000
  C   C336      1.0  0.45933  0.80392  0.90269  1.0000
  N   N24       1.0  0.43617  0.61451  0.89436  1.0000
  H   H584      1.0  0.50800  0.82696  0.69550  1.0000
  C   C337      1.0  0.43231  0.82029  0.67170  1.0000
  C   C338      1.0  0.29216  0.57668  0.75964  1.0000
  N   N25       1.0  0.38716  0.60596  0.66068  1.0000
  C   C339      1.0  0.47501  0.63254  0.89019  1.0000
  H   H585      1.0  0.43222  0.65291  0.67492  1.0000
  H   H586      1.0  0.45509  0.85808  0.92501  1.0000
  H   H587      1.0  0.36813  0.59302  0.87780  1.0000
  H   H588      1.0  0.45278  0.58770  0.84609  1.0000
  H   H589      1.0  0.20188  0.60544  0.77824  1.0000
  H   H590      1.0  0.48580  0.61632  0.89793  1.0000
  C   C340      1.0  0.39047  0.70352  0.94781  1.0000
  C   C341      1.0  0.29143  0.60750  0.74639  1.0000
  H   H591      1.0  0.43310  0.66149  0.89231  1.0000
  H   H592      1.0  0.49021  0.87358  0.90305  1.0000
  C   C342      1.0  0.22898  0.58579  0.75283  1.0000
  H   H593      1.0  0.51422  0.95175  0.75737  1.0000
  C   C343      1.0  0.51854  0.86912  0.84690  1.0000
  H   H594      1.0  0.23321  0.59839  0.81473  1.0000
  H   H595      1.0  0.47737  0.63713  0.66608  1.0000
  H   H596      1.0  0.49916  0.91161  0.94187  1.0000
  H   H597      1.0  0.49132  0.82513  0.96624  1.0000
  H   H598      1.0  0.42946  0.82443  0.95762  1.0000
  H   H599      1.0  0.49154  0.66912  0.92411  1.0000
  C   C344      1.0  0.49473  0.86529  0.66460  1.0000
  C   C345      1.0  0.36865  0.56882  0.67003  1.0000
  C   C346      1.0  0.49622  0.66894  0.90266  1.0000
  H   H600      1.0  0.39226  0.82731  0.65269  1.0000
  C   C347      1.0  0.43894  0.71332  0.97609  1.0000
  H   H601      1.0  0.44206  0.52166  0.86301  1.0000
  C   C348      1.0  0.51884  0.83629  0.91927  1.0000
  H   H602      1.0  0.51957  0.79084  0.93646  1.0000
  C   C349      1.0  0.41871  0.83192  0.64805  1.0000
  H   H603      1.0  0.44943  0.77982  0.64715  1.0000
  H   H604      1.0  0.50903  0.78665  0.90163  1.0000
  H   H605      1.0  0.52183  0.86999  0.66431  1.0000
  C   C350      1.0  0.52244  0.97654  0.98041  1.0000
  Fe  Fe49      1.0  0.81889  0.31200  0.19118  1.0000
  S   S99       1.0  0.83569  0.27234  0.18745  1.0000
  S   S100      1.0  0.80750  0.33340  0.15386  1.0000
  Fe  Fe50      1.0  0.82619  0.31395  0.25252  1.0000
  S   S101      1.0  0.84438  0.27517  0.25188  1.0000
  S   S102      1.0  0.81869  0.33389  0.29211  1.0000
  Fe  Fe51      1.0  0.87669  0.30517  0.21703  1.0000
  S   S103      1.0  0.93174  0.31633  0.21048  1.0000
  Fe  Fe52      1.0  0.80150  0.24731  0.22257  1.0000
  S   S104      1.0  0.76011  0.19225  0.22976  1.0000
  S   S105      1.0  0.86165  0.34638  0.21942  1.0000
  S   S106      1.0  0.78158  0.28472  0.22454  1.0000
  Fe  Fe53      1.0  0.58860  0.05320  0.09768  1.0000
  H   H606      1.0  0.60122  0.13618  0.19712  1.0000
  H   H607      1.0  0.62246  0.34540  0.13195  1.0000
  Fe  Fe54      1.0  0.58564  0.04594  0.15877  1.0000
  H   H608      1.0  0.00947  0.39240  0.24247  1.0000
  S   S107      1.0  0.56242  0.05212  0.19711  1.0000
  Fe  Fe55      1.0  0.65142  0.06495  0.12905  1.0000
  S   S108      1.0  0.70897  0.09971  0.12737  1.0000
  S   S109      1.0  0.61141  0.37116  0.08219  1.0000
  S   S110      1.0  0.61814  0.08975  0.13090  1.0000
  H   H609      1.0  0.01340  0.42741  0.10718  1.0000
  C   C351      1.0  0.52746  0.39148  0.28342  1.0000
  S   S111      1.0  0.80378  0.27089  0.03967  1.0000
  Fe  Fe56      1.0  0.64506  0.36684  0.05135  1.0000
  S   S112      1.0  0.70248  0.39224  0.05709  1.0000
  C   C352      1.0  0.72137  0.38686  0.02845  1.0000
  C   C353      1.0  0.75670  0.39696  0.02818  1.0000
  H   H610      1.0  0.87250  0.40266  0.13550  1.0000
  H   H611      1.0  0.77251  0.40891  0.04545  1.0000
  H   H612      1.0  0.73703  0.34191  0.16783  1.0000
  C   C354      1.0  0.95863  0.38685  0.20518  1.0000
  C   C355      1.0  0.58362  0.05866  0.22793  1.0000
  C   C356      1.0  0.61791  0.06545  0.22985  1.0000
  C   C357      1.0  0.63408  0.07105  0.25470  1.0000
  C   C358      1.0  0.61597  0.06933  0.27793  1.0000
  C   C359      1.0  0.58171  0.06269  0.27599  1.0000
  C   C360      1.0  0.56572  0.05757  0.25111  1.0000
  H   H613      1.0  0.63205  0.06653  0.21218  1.0000
  H   H614      1.0  0.66059  0.07619  0.25589  1.0000
  C   C361      1.0  0.62502  0.15489  0.23663  1.0000
  H   H615      1.0  0.68504  0.35154  0.13289  1.0000
  C   C362      1.0  0.58859  0.06819  0.02864  1.0000
  C   C363      1.0  0.55000  0.42349  0.19138  1.0000
  C   C364      1.0  0.57264  0.07199  0.00591  1.0000
  H   H616      1.0  0.54309  0.21314  0.98254  1.0000
  H   H617      1.0  0.65264  0.05950  0.99848  1.0000
  C   C365      1.0  0.56088  0.20264  0.98628  1.0000
  H   H618      1.0  0.67042  0.17267  0.02920  1.0000
  H   H619      1.0  0.53421  0.15605  0.01220  1.0000
  H   H620      1.0  0.79941  0.16642  0.29702  1.0000
  C   C366      1.0  0.80820  0.31648  0.12226  1.0000
  C   C367      1.0  0.80985  0.33538  0.09956  1.0000
  C   C368      1.0  0.80934  0.32218  0.07417  1.0000
  C   C369      1.0  0.80703  0.28978  0.07118  1.0000
  C   C370      1.0  0.80610  0.27124  0.09389  1.0000
  C   C371      1.0  0.80662  0.28442  0.11925  1.0000
  H   H621      1.0  0.81171  0.36049  0.10156  1.0000
  H   H622      1.0  0.81009  0.33683  0.05692  1.0000
  H   H623      1.0  0.80509  0.24656  0.09194  1.0000
  H   H624      1.0  0.80512  0.26937  0.13642  1.0000
  C   C372      1.0  0.74600  0.16722  0.20099  1.0000
  C   C373      1.0  0.71272  0.13805  0.20026  1.0000
  C   C374      1.0  0.70106  0.11764  0.17743  1.0000
  C   C375      1.0  0.72303  0.12582  0.15559  1.0000
  C   C376      1.0  0.75634  0.15493  0.15633  1.0000
  C   C377      1.0  0.76771  0.17582  0.17896  1.0000
  H   H625      1.0  0.69593  0.13126  0.21732  1.0000
  H   H626      1.0  0.67533  0.09522  0.17688  1.0000
  H   H627      1.0  0.77343  0.16121  0.13951  1.0000
  H   H628      1.0  0.79362  0.19794  0.17961  1.0000
  C   C378      1.0  0.99558  0.36407  0.19136  1.0000
  C   C379      1.0  0.96380  0.35855  0.20155  1.0000
  C   C380      1.0  0.75124  0.37648  0.98315  1.0000
  H   H629      1.0  0.93462  0.38306  0.21349  1.0000
  H   H630      1.0  0.59355  0.43627  0.23630  1.0000
  H   H631      1.0  0.63357  0.14759  0.28829  1.0000
  H   H632      1.0  0.98554  0.33810  0.02051  1.0000
  H   H633      1.0  0.56126  0.12120  0.25798  1.0000
  C   C381      1.0  0.58874  0.40126  0.20340  1.0000
  C   C382      1.0  0.70843  0.26085  0.11248  1.0000
  H   H634      1.0  0.70127  0.20131  0.00576  1.0000
  H   H635      1.0  0.98089  0.44223  0.20166  1.0000
  C   C383      1.0  0.59555  0.41276  0.23254  1.0000
  H   H636      1.0  0.56748  0.06150  0.29361  1.0000
  H   H637      1.0  0.69966  0.23642  0.12370  1.0000
  C   C384      1.0  0.01669  0.42594  0.18838  1.0000
  H   H638      1.0  0.59424  0.37962  0.20124  1.0000
  H   H639      1.0  0.60937  0.42288  0.19173  1.0000
  C   C385      1.0  0.69406  0.17799  0.01805  1.0000
  H   H640      1.0  0.75303  0.11098  0.30698  1.0000
  H   H641      1.0  0.89456  0.29736  0.14838  1.0000
  C   C386      1.0  0.01660  0.39123  0.03577  1.0000
  H   H642      1.0  0.57783  0.44817  0.98405  1.0000
  H   H643      1.0  0.72946  0.36402  0.30833  1.0000
  H   H644      1.0  0.57826  0.39172  0.24615  1.0000
  H   H645      1.0  0.62250  0.41930  0.23768  1.0000
  H   H646      1.0  0.00265  0.37062  0.99490  1.0000
  C   C387      1.0  0.99005  0.38672  0.28205  1.0000
  N   N26       1.0  0.69941  0.31421  0.11871  1.0000
  N   N27       1.0  0.55322  0.39130  0.19274  1.0000
  S   S113      1.0  0.53578  0.19931  0.29391  1.0000
  H   H647      1.0  0.59909  0.24325  0.22352  1.0000
  H   H648      1.0  0.94381  0.41936  0.15871  1.0000
  C   C388      1.0  0.61757  0.06383  0.02576  1.0000
  N   N28       1.0  0.60411  0.17109  0.24641  1.0000
  C   C389      1.0  0.55204  0.18435  0.01339  1.0000
  C   C390      1.0  0.61206  0.20253  0.23000  1.0000
  H   H649      1.0  0.89584  0.43157  0.16173  1.0000
  C   C391      1.0  0.72673  0.35712  0.15782  1.0000
  H   H650      1.0  0.59932  0.41396  0.14815  1.0000
  H   H651      1.0  0.53841  0.19464  0.02567  1.0000
  S   S114      1.0  0.57118  0.06844  0.06012  1.0000
  H   H652      1.0  0.61156  0.25752  0.10380  1.0000
  C   C392      1.0  0.73215  0.32869  0.07365  1.0000
  H   H653      1.0  0.55731  0.35471  0.16671  1.0000
  H   H654      1.0  0.72380  0.32769  0.28938  1.0000
  H   H655      1.0  0.64270  0.20599  0.27447  1.0000
  H   H656      1.0  0.81401  0.21139  0.30431  1.0000
  H   H657      1.0  0.55022  0.07538  0.00789  1.0000
  H   H658      1.0  0.88632  0.32601  0.08871  1.0000
  H   H659      1.0  0.74767  0.37843  0.14624  1.0000
  C   C393      1.0  0.72956  0.14172  0.29248  1.0000
  C   C394      1.0  0.70803  0.28839  0.13085  1.0000
  N   N29       1.0  0.72024  0.15643  0.05412  1.0000
  H   H660      1.0  0.65258  0.17045  0.24321  1.0000
  C   C395      1.0  0.75001  0.17067  0.07347  1.0000
  C   C396      1.0  0.68657  0.14132  0.06921  1.0000
  C   C397      1.0  0.71966  0.12823  0.03724  1.0000
  H   H661      1.0  0.93964  0.32848  0.14797  1.0000
  C   C398      1.0  0.78575  0.17971  0.06200  1.0000
  H   H662      1.0  0.68797  0.15632  0.00427  1.0000
  C   C399      1.0  0.71724  0.09672  0.05210  1.0000
  H   H663      1.0  0.59923  0.19319  0.28336  1.0000
  H   H664      1.0  0.74796  0.19426  0.02348  1.0000
  H   H665      1.0  0.74467  0.15273  0.09029  1.0000
  H   H666      1.0  0.75323  0.19472  0.08289  1.0000
  C   C400      1.0  0.71681  0.20335  0.28579  1.0000
  H   H667      1.0  0.68373  0.12001  0.08234  1.0000
  H   H668      1.0  0.69682  0.11724  0.02383  1.0000
  H   H669      1.0  0.74215  0.13853  0.02343  1.0000
  H   H670      1.0  0.63021  0.06104  0.04298  1.0000
  H   H671      1.0  0.76785  0.20983  0.28490  1.0000
  C   C401      1.0  0.70103  0.37161  0.00603  1.0000
  H   H672      1.0  0.78635  0.15625  0.05531  1.0000
  H   H673      1.0  0.79367  0.19869  0.04566  1.0000
  H   H674      1.0  0.80570  0.19179  0.07772  1.0000
  H   H675      1.0  0.68471  0.18971  0.07591  1.0000
  H   H676      1.0  0.64273  0.17618  0.19670  1.0000
  H   H677      1.0  0.64038  0.13566  0.20277  1.0000
  H   H678      1.0  0.68978  0.07699  0.05610  1.0000
  H   H679      1.0  0.73150  0.10360  0.07102  1.0000
  H   H680      1.0  0.72943  0.08477  0.04003  1.0000
  H   H681      1.0  0.75711  0.34876  0.06500  1.0000
  C   C402      1.0  0.61569  0.18353  0.27431  1.0000
  H   H682      1.0  0.69064  0.25367  0.09547  1.0000
  C   C403      1.0  0.91443  0.32128  0.13838  1.0000
  N   N30       1.0  0.92538  0.38309  0.12605  1.0000
  C   C404      1.0  0.92649  0.41290  0.14126  1.0000
  C   C405      1.0  0.96236  0.39080  0.12254  1.0000
  C   C406      1.0  0.90502  0.35022  0.14202  1.0000
  C   C407      1.0  0.90795  0.38068  0.09996  1.0000
  H   H683      1.0  0.87946  0.38644  0.16629  1.0000
  C   C408      1.0  0.02197  0.39769  0.18475  1.0000
  H   H684      1.0  0.72682  0.22879  0.27574  1.0000
  C   C409      1.0  0.90431  0.35220  0.08084  1.0000
  H   H685      1.0  0.71137  0.32712  0.06054  1.0000
  H   H686      1.0  0.93769  0.43687  0.12904  1.0000
  H   H687      1.0  0.96365  0.37037  0.11085  1.0000
  H   H688      1.0  0.97373  0.39066  0.14211  1.0000
  H   H689      1.0  0.90847  0.35595  0.16355  1.0000
  H   H690      1.0  0.87666  0.33862  0.13839  1.0000
  H   H691      1.0  0.88114  0.37582  0.10303  1.0000
  H   H692      1.0  0.92163  0.40579  0.08924  1.0000
  H   H693      1.0  0.72721  0.36411  0.09915  1.0000
  H   H694      1.0  0.99981  0.34228  0.18861  1.0000
  H   H695      1.0  0.60011  0.23395  0.25749  1.0000
  C   C410      1.0  0.98500  0.42040  0.19863  1.0000
  C   C411      1.0  0.71608  0.36699  0.98322  1.0000
  H   H696      1.0  0.71694  0.08848  0.28533  1.0000
  H   H697      1.0  0.73070  0.20928  0.04811  1.0000
  H   H698      1.0  0.66862  0.28562  0.08444  1.0000
  C   C412      1.0  0.99224  0.36494  0.01514  1.0000
  C   C413      1.0  0.53270  0.42298  0.27284  1.0000
  H   H699      1.0  0.97902  0.42820  0.08941  1.0000
  C   C414      1.0  0.57591  0.29363  0.19504  1.0000
  H   H700      1.0  0.70400  0.13444  0.28336  1.0000
  S   S115      1.0  0.61551  0.30885  0.04898  1.0000
  S   S116      1.0  0.61760  0.37535  0.01752  1.0000
  H   H701      1.0  0.60658  0.19615  0.20881  1.0000
  H   H702      1.0  0.53244  0.45240  0.03018  1.0000
  H   H703      1.0  0.56239  0.41890  0.13899  1.0000
  H   H704      1.0  0.79880  0.39902  0.00552  1.0000
  H   H705      1.0  0.64774  0.36799  0.17612  1.0000
  H   H706      1.0  0.73514  0.26957  0.10521  1.0000
  H   H707      1.0  0.54822  0.39073  0.29398  1.0000
  Fe  Fe57      1.0  0.59521  0.32124  0.26699  1.0000
  C   C415      1.0  0.54661  0.13178  0.22072  1.0000
  H   H708      1.0  0.55766  0.44629  0.27506  1.0000
  H   H709      1.0  0.96784  0.36621  0.01407  1.0000
  H   H710      1.0  0.58238  0.15480  0.98634  1.0000
  Fe  Fe58      1.0  0.57990  0.37272  0.04822  1.0000
  H   H711      1.0  0.70547  0.18318  0.27026  1.0000
  C   C416      1.0  0.62367  0.34360  0.17449  1.0000
  C   C417      1.0  0.60923  0.33095  0.14940  1.0000
  C   C418      1.0  0.57114  0.40004  0.14361  1.0000
  H   H712      1.0  0.89248  0.35451  0.06216  1.0000
  H   H713      1.0  0.59788  0.42433  0.99686  1.0000
  H   H714      1.0  0.00788  0.37759  0.05497  1.0000
  H   H715      1.0  0.70066  0.17586  0.10371  1.0000
  H   H716      1.0  0.58865  0.13356  0.29599  1.0000
  S   S117      1.0  0.62534  0.34290  0.22875  1.0000
  Fe  Fe59      1.0  0.57983  0.31364  0.07817  1.0000
  Fe  Fe60      1.0  0.58540  0.31738  0.01686  1.0000
  S   S118      1.0  0.56060  0.41101  0.04900  1.0000
  S   S119      1.0  0.53906  0.28101  0.26542  1.0000
  C   C419      1.0  0.58517  0.07087  0.98058  1.0000
  H   H717      1.0  0.97966  0.40449  0.27850  1.0000
  H   H718      1.0  0.73262  0.30413  0.07299  1.0000
  H   H719      1.0  0.73420  0.30202  0.14010  1.0000
  H   H720      1.0  0.67371  0.36336  0.00619  1.0000
  H   H721      1.0  0.91554  0.31451  0.11760  1.0000
  S   S120      1.0  0.62114  0.02349  0.15890  1.0000
  H   H722      1.0  0.66380  0.12866  0.05572  1.0000
  S   S121      1.0  0.55953  0.28190  0.11573  1.0000
  C   C420      1.0  0.63426  0.26799  0.11733  1.0000
  H   H723      1.0  0.00993  0.41225  0.03736  1.0000
  H   H724      1.0  0.55706  0.15084  0.20453  1.0000
  C   C421      1.0  0.61497  0.15639  0.29381  1.0000
  C   C422      1.0  0.60696  0.32517  0.19749  1.0000
  H   H725      1.0  0.57216  0.44493  0.18064  1.0000
  H   H726      1.0  0.74841  0.15164  0.27587  1.0000
  C   C423      1.0  0.69437  0.33416  0.14082  1.0000
  H   H727      1.0  0.99232  0.44814  0.12187  1.0000
  C   C424      1.0  0.68209  0.16704  0.08695  1.0000
  S   S122      1.0  0.62431  0.03155  0.09428  1.0000
  H   H728      1.0  0.92967  0.35463  0.07561  1.0000
  H   H729      1.0  0.96804  0.36004  0.27867  1.0000
  S   S123      1.0  0.83855  0.36045  0.00269  1.0000
  H   H730      1.0  0.64041  0.22168  0.23076  1.0000
  S   S124      1.0  0.63681  0.07484  0.30882  1.0000
  C   C425      1.0  0.89135  0.40755  0.15153  1.0000
  H   H731      1.0  0.53773  0.25629  0.16831  1.0000
  C   C426      1.0  0.72723  0.10752  0.30177  1.0000
  S   S125      1.0  0.60909  0.29407  0.29819  1.0000
  H   H732      1.0  0.55202  0.43450  0.21145  1.0000
  H   H733      1.0  0.55123  0.15450  0.25918  1.0000
  H   H734      1.0  0.71925  0.36956  0.17358  1.0000
  S   S126      1.0  0.58759  0.35428  0.29710  1.0000
  C   C427      1.0  0.63029  0.06304  0.00047  1.0000
  C   C428      1.0  0.57808  0.29944  0.14697  1.0000
  Fe  Fe61      1.0  0.81841  0.30313  0.00191  1.0000
  H   H735      1.0  0.54610  0.10756  0.21449  1.0000
  C   C429      1.0  0.62697  0.15075  0.20657  1.0000
  C   C430      1.0  0.72485  0.18574  0.03643  1.0000
  C   C431      1.0  0.66608  0.29719  0.10305  1.0000
  S   S127      1.0  0.54555  0.31508  0.04585  1.0000
  Fe  Fe62      1.0  0.55209  0.25563  0.29815  1.0000
  H   H736      1.0  0.65556  0.15359  0.09555  1.0000
  H   H737      1.0  0.65919  0.31704  0.09659  1.0000
  C   C432      1.0  0.56167  0.28081  0.16994  1.0000
  H   H738      1.0  0.56289  0.27891  0.21245  1.0000
  H   H739      1.0  0.69626  0.20053  0.29964  1.0000
  C   C433      1.0  0.74728  0.20284  0.30005  1.0000
  C   C434      1.0  0.72897  0.34010  0.10177  1.0000
  H   H740      1.0  0.67399  0.31641  0.15483  1.0000
  C   C435      1.0  0.98768  0.42571  0.10938  1.0000
  H   H741      1.0  0.56762  0.38477  0.12535  1.0000
  H   H742      1.0  0.62688  0.27738  0.13505  1.0000
  C   C436      1.0  0.77152  0.39125  0.00566  1.0000
  H   H743      1.0  0.75429  0.34859  0.11172  1.0000
  H   H744      1.0  0.69049  0.27455  0.14773  1.0000
  C   C437      1.0  0.54954  0.37503  0.16593  1.0000
  H   H745      1.0  0.56384  0.20464  0.23689  1.0000
  C   C438      1.0  0.56581  0.14489  0.24723  1.0000
  H   H746      1.0  0.61514  0.12877  0.24540  1.0000
  H   H747      1.0  0.82569  0.27350  0.30610  1.0000
  C   C439      1.0  0.59244  0.22180  0.23773  1.0000
  H   H748      1.0  0.55020  0.33669  0.22518  1.0000
  H   H749      1.0  0.63830  0.24608  0.12275  1.0000
  H   H750      1.0  0.58654  0.22646  0.98898  1.0000
  C   C440      1.0  0.01949  0.39340  0.26268  1.0000
  H   H751      1.0  0.57606  0.18905  0.02379  1.0000
  Fe  Fe63      1.0  0.53198  0.31190  0.29734  1.0000
  H   H752      1.0  0.53924  0.05251  0.24982  1.0000
  H   H753      1.0  0.54948  0.37495  0.98931  1.0000
  H   H754      1.0  0.99828  0.38826  0.30285  1.0000
  C   C441      1.0  0.52561  0.33174  0.21580  1.0000
  H   H755      1.0  0.02291  0.37036  0.26377  1.0000
  H   H756      1.0  0.52501  0.37739  0.22959  1.0000
  C   C442      1.0  0.52483  0.36547  0.21036  1.0000
  H   H757      1.0  0.52476  0.13132  0.30393  1.0000
  C   C443      1.0  0.71671  0.33526  0.30829  1.0000
  H   H758      1.0  0.68818  0.32437  0.30860  1.0000
  C   C444      1.0  0.80331  0.18511  0.31293  1.0000
  H   H759      1.0  0.62266  0.16837  0.31369  1.0000
  N   N31       1.0  0.73880  0.16919  0.31335  1.0000
  H   H760      1.0  0.65169  0.37819  0.41630  1.0000
  Fe  Fe64      1.0  0.61275  0.05761  0.40887  1.0000
  S   S128      1.0  0.64307  0.05851  0.44520  1.0000
  H   H761      1.0  0.56543  0.18886  0.48287  1.0000
  H   H762      1.0  0.75855  0.33950  0.33224  1.0000
  S   S129      1.0  0.62675  0.10218  0.38130  1.0000
  Fe  Fe65      1.0  0.87826  0.36131  0.47444  1.0000
  S   S130      1.0  0.86385  0.30531  0.47718  1.0000
  Fe  Fe66      1.0  0.80309  0.34265  0.46372  1.0000
  S   S131      1.0  0.78421  0.28588  0.46693  1.0000
  S   S132      1.0  0.76015  0.35176  0.45011  1.0000
  Fe  Fe67      1.0  0.81952  0.30034  0.50239  1.0000
  Fe  Fe68      1.0  0.83030  0.29814  0.44143  1.0000
  S   S133      1.0  0.82594  0.26941  0.40299  1.0000
  S   S134      1.0  0.83511  0.35666  0.50080  1.0000
  S   S135      1.0  0.84798  0.35450  0.43734  1.0000
  C   C445      1.0  0.74870  0.37163  0.47481  1.0000
  C   C446      1.0  0.71408  0.36367  0.47721  1.0000
  C   C447      1.0  0.70410  0.37725  0.49820  1.0000
  H   H763      1.0  0.69483  0.34644  0.46323  1.0000
  H   H764      1.0  0.67721  0.37035  0.50032  1.0000
  C   C448      1.0  0.73590  0.31682  0.53155  1.0000
  H   H765      1.0  0.78716  0.36009  0.56855  1.0000
  C   C449      1.0  0.96184  0.36348  0.46769  1.0000
  C   C450      1.0  0.98834  0.35745  0.45868  1.0000
  H   H766      1.0  0.93704  0.34187  0.47324  1.0000
  H   H767      1.0  0.98362  0.33114  0.45725  1.0000
  C   C451      1.0  0.55184  0.19559  0.44348  1.0000
  H   H768      1.0  0.60769  0.25440  0.50999  1.0000
  H   H769      1.0  0.55112  0.39520  0.39129  1.0000
  C   C452      1.0  0.63958  0.05381  0.49919  1.0000
  C   C453      1.0  0.62928  0.06455  0.47657  1.0000
  C   C454      1.0  0.60829  0.07969  0.47945  1.0000
  H   H770      1.0  0.99791  0.37032  0.39606  1.0000
  H   H771      1.0  0.56410  0.36406  0.63085  1.0000
  C   C455      1.0  0.82339  0.28730  0.37226  1.0000
  C   C456      1.0  0.81991  0.31689  0.37081  1.0000
  H   H772      1.0  0.59420  0.16527  0.45659  1.0000
  H   H773      1.0  0.81782  0.32896  0.38861  1.0000
  H   H774      1.0  0.75310  0.29777  0.56381  1.0000
  C   C457      1.0  0.70132  0.33240  0.57820  1.0000
  Fe  Fe69      1.0  0.60676  0.05961  0.59665  1.0000
  H   H775      1.0  0.66716  0.28796  0.38003  1.0000
  S   S136      1.0  0.59498  0.07973  0.55895  1.0000
  C   C458      1.0  0.91875  0.38505  0.35790  1.0000
  H   H776      1.0  0.56756  0.28329  0.38585  1.0000
  Fe  Fe70      1.0  0.66546  0.06657  0.63125  1.0000
  S   S137      1.0  0.72343  0.09937  0.63340  1.0000
  S   S138      1.0  0.62257  0.38752  0.51489  1.0000
  S   S139      1.0  0.63518  0.09461  0.63088  1.0000
  S   S140      1.0  0.62643  0.34738  0.36548  1.0000
  S   S141      1.0  0.80123  0.27061  0.54144  1.0000
  Fe  Fe71      1.0  0.65791  0.38525  0.54541  1.0000
  S   S142      1.0  0.71593  0.41438  0.54372  1.0000
  C   C459      1.0  0.72889  0.39963  0.51635  1.0000
  C   C460      1.0  0.76376  0.40870  0.51331  1.0000
  C   C461      1.0  0.77360  0.39431  0.49273  1.0000
  H   H777      1.0  0.78304  0.42632  0.52715  1.0000
  H   H778      1.0  0.80046  0.40089  0.49066  1.0000
  H   H779      1.0  0.62278  0.27182  0.45189  1.0000
  C   C462      1.0  0.60849  0.07364  0.52742  1.0000
  C   C463      1.0  0.62908  0.05814  0.52442  1.0000
  C   C464      1.0  0.59812  0.08437  0.50478  1.0000
  H   H780      1.0  0.82359  0.18603  0.32632  1.0000
  C   C465      1.0  0.82100  0.32384  0.62307  1.0000
  C   C466      1.0  0.83407  0.34389  0.60006  1.0000
  C   C467      1.0  0.82945  0.32803  0.57510  1.0000
  C   C468      1.0  0.81099  0.29183  0.57275  1.0000
  C   C469      1.0  0.79809  0.27188  0.59583  1.0000
  C   C470      1.0  0.80351  0.28767  0.62081  1.0000
  H   H781      1.0  0.84760  0.37189  0.60148  1.0000
  H   H782      1.0  0.83968  0.34390  0.55768  1.0000
  H   H783      1.0  0.78318  0.24405  0.59450  1.0000
  H   H784      1.0  0.93310  0.41354  0.35447  1.0000
  H   H785      1.0  0.63474  0.24404  0.34822  1.0000
  C   C471      1.0  0.91084  0.36877  0.33007  1.0000
  C   C472      1.0  0.70918  0.36423  0.39058  1.0000
  H   H786      1.0  0.55378  0.44545  0.61417  1.0000
  H   H787      1.0  0.60102  0.40297  0.44505  1.0000
  H   H788      1.0  0.73654  0.33178  0.62407  1.0000
  H   H789      1.0  0.67773  0.30629  0.57695  1.0000
  C   C473      1.0  0.73372  0.31498  0.37921  1.0000
  C   C474      1.0  0.00010  0.42510  0.46236  1.0000
  Fe  Fe72      1.0  0.59351  0.32960  0.51839  1.0000
  Fe  Fe73      1.0  0.60038  0.33275  0.57959  1.0000
  N   N32       1.0  0.54504  0.37890  0.44710  1.0000
  H   H790      1.0  0.68400  0.34260  0.39744  1.0000
  H   H791      1.0  0.70674  0.38794  0.39010  1.0000
  C   C475      1.0  0.82388  0.28560  0.32401  1.0000
  H   H792      1.0  0.00894  0.44339  0.52037  1.0000
  H   H793      1.0  0.89351  0.37909  0.36710  1.0000
  H   H794      1.0  0.93847  0.43849  0.39491  1.0000
  C   C476      1.0  0.99710  0.42407  0.53631  1.0000
  C   C477      1.0  0.71903  0.35763  0.36284  1.0000
  S   S143      1.0  0.56858  0.42242  0.55147  1.0000
  H   H795      1.0  0.91285  0.32155  0.36080  1.0000
  C   C478      1.0  0.67550  0.29573  0.35926  1.0000
  H   H796      1.0  0.59034  0.42472  0.48865  1.0000
  H   H797      1.0  0.65970  0.30743  0.35248  1.0000
  H   H798      1.0  0.74260  0.27580  0.35889  1.0000
  H   H799      1.0  0.80449  0.41258  0.59453  1.0000
  C   C479      1.0  0.56467  0.18654  0.36687  1.0000
  H   H800      1.0  0.70226  0.34552  0.55935  1.0000
  Fe  Fe74      1.0  0.60810  0.06355  0.34800  1.0000
  S   S144      1.0  0.62947  0.39068  0.57987  1.0000
  C   C480      1.0  0.72980  0.32240  0.33155  1.0000
  C   C481      1.0  0.64887  0.18855  0.45207  1.0000
  H   H801      1.0  0.68386  0.14944  0.32059  1.0000
  C   C482      1.0  0.61772  0.34188  0.44551  1.0000
  S   S145      1.0  0.55769  0.04473  0.41455  1.0000
  H   H802      1.0  0.57290  0.44777  0.47054  1.0000
  S   S146      1.0  0.93370  0.40556  0.47764  1.0000
  C   C483      1.0  0.96741  0.39729  0.46909  1.0000
  H   H803      1.0  0.00469  0.45138  0.46353  1.0000
  H   H804      1.0  0.63203  0.35822  0.46199  1.0000
  C   C484      1.0  0.55838  0.20144  0.34464  1.0000
  N   N33       1.0  0.74197  0.14863  0.55375  1.0000
  C   C485      1.0  0.77492  0.15291  0.56599  1.0000
  C   C486      1.0  0.71351  0.11175  0.55834  1.0000
  C   C487      1.0  0.73144  0.17294  0.56595  1.0000
  C   C488      1.0  0.74814  0.15683  0.52475  1.0000
  C   C489      1.0  0.80616  0.19014  0.56681  1.0000
  C   C490      1.0  0.71612  0.08385  0.54197  1.0000
  C   C491      1.0  0.72616  0.16994  0.59608  1.0000
  C   C492      1.0  0.71634  0.15182  0.50857  1.0000
  H   H805      1.0  0.77027  0.14275  0.58656  1.0000
  H   H806      1.0  0.78404  0.13711  0.55522  1.0000
  H   H807      1.0  0.68730  0.10867  0.55514  1.0000
  H   H808      1.0  0.71298  0.10437  0.57932  1.0000
  H   H809      1.0  0.75058  0.20038  0.56116  1.0000
  H   H810      1.0  0.70650  0.16861  0.55732  1.0000
  H   H811      1.0  0.76835  0.18445  0.52178  1.0000
  H   H812      1.0  0.75948  0.14222  0.51505  1.0000
  H   H813      1.0  0.82883  0.18941  0.57542  1.0000
  H   H814      1.0  0.81414  0.20194  0.54698  1.0000
  H   H815      1.0  0.80120  0.20728  0.57969  1.0000
  H   H816      1.0  0.69544  0.05780  0.54841  1.0000
  H   H817      1.0  0.71201  0.08612  0.52066  1.0000
  H   H818      1.0  0.74121  0.08457  0.54498  1.0000
  H   H819      1.0  0.71939  0.18962  0.60286  1.0000
  H   H820      1.0  0.74996  0.17498  0.60686  1.0000
  H   H821      1.0  0.70434  0.14422  0.60181  1.0000
  H   H822      1.0  0.71610  0.17665  0.50709  1.0000
  H   H823      1.0  0.69106  0.13199  0.51669  1.0000
  H   H824      1.0  0.71757  0.14273  0.48838  1.0000
  C   C493      1.0  0.73455  0.31435  0.60773  1.0000
  C   C494      1.0  0.70364  0.27828  0.61440  1.0000
  H   H825      1.0  0.53952  0.43612  0.42595  1.0000
  H   H826      1.0  0.75839  0.31229  0.60917  1.0000
  C   C495      1.0  0.70829  0.15741  0.33178  1.0000
  H   H827      1.0  0.58204  0.09623  0.50681  1.0000
  N   N34       1.0  0.93892  0.37439  0.37598  1.0000
  H   H828      1.0  0.72977  0.36915  0.40517  1.0000
  C   C496      1.0  0.94266  0.39190  0.40221  1.0000
  C   C497      1.0  0.91723  0.33566  0.37975  1.0000
  C   C498      1.0  0.97351  0.38420  0.36337  1.0000
  C   C499      1.0  0.55696  0.15188  0.36627  1.0000
  H   H829      1.0  0.89838  0.38062  0.31815  1.0000
  C   C500      1.0  0.93145  0.31854  0.39855  1.0000
  S   S147      1.0  0.53843  0.28162  0.33030  1.0000
  H   H830      1.0  0.98294  0.40810  0.35121  1.0000
  H   H831      1.0  0.93465  0.37352  0.31952  1.0000
  H   H832      1.0  0.54750  0.26358  0.43162  1.0000
  H   H833      1.0  0.91702  0.38104  0.41228  1.0000
  H   H834      1.0  0.89109  0.32902  0.38730  1.0000
  C   C501      1.0  0.71153  0.18392  0.35294  1.0000
  H   H835      1.0  0.54943  0.33826  0.42670  1.0000
  C   C502      1.0  0.02054  0.38514  0.45090  1.0000
  Fe  Fe75      1.0  0.59477  0.32220  0.32836  1.0000
  H   H836      1.0  0.66920  0.35112  0.59589  1.0000
  H   H837      1.0  0.67261  0.21289  0.44673  1.0000
  H   H838      1.0  0.93737  0.33037  0.41839  1.0000
  H   H839      1.0  0.95416  0.31800  0.38998  1.0000
  H   H840      1.0  0.91104  0.29100  0.40141  1.0000
  H   H841      1.0  0.98261  0.39763  0.52765  1.0000
  H   H842      1.0  0.70301  0.25774  0.60158  1.0000
  H   H843      1.0  0.58505  0.38498  0.39780  1.0000
  N   N35       1.0  0.71395  0.32181  0.35801  1.0000
  H   H844      1.0  0.67678  0.24825  0.34652  1.0000
  H   H845      1.0  0.77716  0.19556  0.34388  1.0000
  H   H846      1.0  0.95887  0.38664  0.41590  1.0000
  H   H847      1.0  0.69193  0.34104  0.61970  1.0000
  H   H848      1.0  0.96636  0.44241  0.42146  1.0000
  H   H849      1.0  0.54672  0.35476  0.38082  1.0000
  C   C503      1.0  0.73309  0.28006  0.37794  1.0000
  H   H850      1.0  0.72365  0.31565  0.39913  1.0000
  C   C504      1.0  0.81861  0.33082  0.34619  1.0000
  H   H851      1.0  0.57378  0.23134  0.47537  1.0000
  H   H852      1.0  0.79275  0.27180  0.63823  1.0000
  C   C505      1.0  0.00404  0.39151  0.38197  1.0000
  C   C506      1.0  0.54395  0.18149  0.32194  1.0000
  H   H853      1.0  0.75080  0.27993  0.39342  1.0000
  H   H854      1.0  0.97737  0.42883  0.54600  1.0000
  H   H855      1.0  0.60020  0.08815  0.46219  1.0000
  H   H856      1.0  0.70735  0.27923  0.56122  1.0000
  C   C507      1.0  0.53916  0.35620  0.42316  1.0000
  H   H857      1.0  0.72587  0.29653  0.32606  1.0000
  H   H858      1.0  0.70703  0.25815  0.38275  1.0000
  H   H859      1.0  0.76395  0.15118  0.34082  1.0000
  C   C508      1.0  0.59018  0.43641  0.46941  1.0000
  H   H860      1.0  0.65549  0.04175  0.49713  1.0000
  H   H861      1.0  0.64877  0.26329  0.52254  1.0000
  H   H862      1.0  0.53644  0.10535  0.34296  1.0000
  H   H863      1.0  0.76150  0.33594  0.37934  1.0000
  H   H864      1.0  0.64550  0.37233  0.63308  1.0000
  S   S148      1.0  0.63117  0.32721  0.54660  1.0000
  C   C509      1.0  0.62892  0.35311  0.41954  1.0000
  C   C510      1.0  0.58068  0.41076  0.44616  1.0000
  S   S149      1.0  0.56593  0.01922  0.62322  1.0000
  H   H865      1.0  0.68685  0.17281  0.36425  1.0000
  H   H866      1.0  0.63683  0.04931  0.54153  1.0000
  H   H867      1.0  0.76147  0.34013  0.52781  1.0000
  Fe  Fe76      1.0  0.59062  0.38642  0.54963  1.0000
  H   H868      1.0  0.00845  0.40423  0.57077  1.0000
  C   C511      1.0  0.66228  0.26209  0.34292  1.0000
  C   C512      1.0  0.58834  0.30953  0.45005  1.0000
  C   C513      1.0  0.62904  0.25193  0.44462  1.0000
  H   H869      1.0  0.61635  0.24500  0.42492  1.0000
  C   C514      1.0  0.61093  0.33220  0.39780  1.0000
  S   S150      1.0  0.58949  0.30271  0.61804  1.0000
  C   C515      1.0  0.66834  0.27006  0.43901  1.0000
  H   H870      1.0  0.57550  0.20186  0.38448  1.0000
  C   C516      1.0  0.82033  0.31517  0.32261  1.0000
  C   C517      1.0  0.53565  0.35073  0.63451  1.0000
  H   H871      1.0  0.68428  0.27191  0.45634  1.0000
  H   H872      1.0  0.74661  0.37790  0.35931  1.0000
  H   H873      1.0  0.64729  0.16790  0.43875  1.0000
  H   H874      1.0  0.61943  0.20516  0.50176  1.0000
  H   H875      1.0  0.67399  0.25725  0.42250  1.0000
  H   H876      1.0  0.70323  0.36339  0.34878  1.0000
  H   H877      1.0  0.78608  0.16303  0.64569  1.0000
  C   C518      1.0  0.58161  0.29977  0.40234  1.0000
  S   S151      1.0  0.57331  0.29431  0.48240  1.0000
  H   H878      1.0  0.61029  0.19043  0.42751  1.0000
  S   S152      1.0  0.55886  0.32837  0.55155  1.0000
  C   C519      1.0  0.69442  0.35247  0.59989  1.0000
  N   N36       1.0  0.61418  0.22057  0.46235  1.0000
  C   C520      1.0  0.63223  0.22845  0.48877  1.0000
  H   H879      1.0  0.82942  0.24972  0.34957  1.0000
  C   C521      1.0  0.57044  0.28851  0.42834  1.0000
  C   C522      1.0  0.82567  0.27195  0.34869  1.0000
  H   H880      1.0  0.76136  0.37947  0.56214  1.0000
  C   C523      1.0  0.54307  0.13222  0.34340  1.0000
  H   H881      1.0  0.65948  0.23414  0.48709  1.0000
  H   H882      1.0  0.71481  0.32192  0.52563  1.0000
  H   H883      1.0  0.61698  0.45833  0.46640  1.0000
  H   H884      1.0  0.64742  0.28392  0.49278  1.0000
  C   C524      1.0  0.57650  0.20950  0.46749  1.0000
  H   H885      1.0  0.79424  0.37601  0.61478  1.0000
  C   C525      1.0  0.76998  0.17467  0.32905  1.0000
  C   C526      1.0  0.61533  0.19064  0.44904  1.0000
  C   C527      1.0  0.78277  0.38725  0.60128  1.0000
  H   H886      1.0  0.89212  0.34063  0.33052  1.0000
  H   H887      1.0  0.65139  0.18082  0.47242  1.0000
  H   H888      1.0  0.71410  0.38034  0.59971  1.0000
  C   C528      1.0  0.76600  0.36379  0.57697  1.0000
  H   H889      1.0  0.76477  0.39270  0.61252  1.0000
  C   C529      1.0  0.73220  0.30428  0.56039  1.0000
  C   C530      1.0  0.95826  0.43162  0.40129  1.0000
  H   H890      1.0  0.73445  0.29625  0.51825  1.0000
  C   C531      1.0  0.63381  0.25930  0.50405  1.0000
  Fe  Fe77      1.0  0.57074  0.08727  0.38519  1.0000
  N   N37       1.0  0.73338  0.32915  0.58127  1.0000
  H   H891      1.0  0.98129  0.44446  0.38825  1.0000
  H   H892      1.0  0.67750  0.29748  0.43357  1.0000
  S   S153      1.0  0.56442  0.13340  0.39430  1.0000
  H   H893      1.0  0.71572  0.20862  0.34436  1.0000
  H   H894      1.0  0.81657  0.35408  0.34544  1.0000
  H   H895      1.0  0.01317  0.41596  0.39319  1.0000
  S   S154      1.0  0.55273  0.05119  0.35029  1.0000
  S   S155      1.0  0.60111  0.02039  0.37510  1.0000
  H   H896      1.0  0.58427  0.42631  0.42813  1.0000
  H   H897      1.0  0.70688  0.27154  0.63491  1.0000
  C   C532      1.0  0.53634  0.14693  0.32134  1.0000
  H   H898      1.0  0.67841  0.27777  0.61358  1.0000
  S   S156      1.0  0.63961  0.03446  0.59550  1.0000
  H   H899      1.0  0.97063  0.36362  0.34936  1.0000
  H   H900      1.0  0.73235  0.18922  0.36742  1.0000
  H   H901      1.0  0.56701  0.35521  0.47213  1.0000
  H   H902      1.0  0.54974  0.17143  0.43539  1.0000
  H   H903      1.0  0.70344  0.13371  0.34270  1.0000
  C   C533      1.0  0.55647  0.37430  0.39695  1.0000
  H   H904      1.0  0.53858  0.45881  0.52603  1.0000
  H   H905      1.0  0.54483  0.37272  0.48961  1.0000
  H   H906      1.0  0.55936  0.21512  0.42762  1.0000
  H   H907      1.0  0.52744  0.46028  0.57750  1.0000
  H   H908      1.0  0.66256  0.26713  0.32149  1.0000
  H   H909      1.0  0.70926  0.09564  0.31860  1.0000
  C   C534      1.0  0.54378  0.35853  0.47132  1.0000
  H   H910      1.0  0.56426  0.22816  0.34517  1.0000
  C   C535      1.0  0.52926  0.40738  0.53454  1.0000
  H   H911      1.0  0.52743  0.44870  0.33844  1.0000
  C   C536      1.0  0.52522  0.43055  0.61099  1.0000
  H   H912      1.0  0.52578  0.47907  0.60803  1.0000
  H   H913      1.0  0.75859  0.22479  0.31428  1.0000
  H   H914      1.0  0.52530  0.18905  0.44986  1.0000
  H   H915      1.0  0.53384  0.01508  0.54437  1.0000
  H   H916      1.0  0.52646  0.36975  0.63371  1.0000
  Fe  Fe78      1.0  0.82959  0.32141  0.69114  1.0000
  Fe  Fe79      1.0  0.83227  0.32262  0.75261  1.0000
  S   S157      1.0  0.84829  0.28225  0.75338  1.0000
  S   S158      1.0  0.82135  0.34247  0.79102  1.0000
  Fe  Fe80      1.0  0.88385  0.31182  0.71973  1.0000
  S   S159      1.0  0.93938  0.32237  0.71892  1.0000
  Fe  Fe81      1.0  0.80724  0.25571  0.72256  1.0000
  S   S160      1.0  0.76285  0.20194  0.72998  1.0000
  S   S161      1.0  0.87073  0.35449  0.72091  1.0000
  S   S162      1.0  0.78955  0.29496  0.72292  1.0000
  S   S163      1.0  0.57299  0.05836  0.69439  1.0000
  Fe  Fe82      1.0  0.60371  0.06710  0.84724  1.0000
  S   S164      1.0  0.63693  0.07956  0.81014  1.0000
  Fe  Fe83      1.0  0.60164  0.06042  0.90837  1.0000
  H   H917      1.0  0.73173  0.37457  0.65569  1.0000
  H   H918      1.0  0.75990  0.33318  0.75775  1.0000
  H   H919      1.0  0.90482  0.36540  0.89676  1.0000
  S   S165      1.0  0.61609  0.10506  0.88061  1.0000
  H   H920      1.0  0.58077  0.12373  0.71205  1.0000
  C   C537      1.0  0.63611  0.35643  0.65056  1.0000
  C   C538      1.0  0.55672  0.20525  0.83887  1.0000
  S   S166      1.0  0.78264  0.29297  0.96729  1.0000
  S   S167      1.0  0.76935  0.36916  0.95494  1.0000
  H   H921      1.0  0.93968  0.44268  0.88279  1.0000
  Fe  Fe84      1.0  0.82734  0.30313  0.94081  1.0000
  S   S168      1.0  0.82187  0.27502  0.90201  1.0000
  H   H922      1.0  0.98608  0.32131  0.78386  1.0000
  S   S169      1.0  0.84893  0.36031  0.93829  1.0000
  C   C539      1.0  0.55021  0.36472  0.96950  1.0000
  N   N38       1.0  0.62096  0.17583  0.72264  1.0000
  C   C540      1.0  0.79019  0.38839  0.71868  1.0000
  H   H923      1.0  0.70033  0.35549  0.96585  1.0000
  H   H924      1.0  0.80034  0.38915  0.76236  1.0000
  S   S170      1.0  0.54507  0.04364  0.90989  1.0000
  C   C541      1.0  0.02151  0.41465  0.94325  1.0000
  C   C542      1.0  0.95335  0.36163  0.95227  1.0000
  C   C543      1.0  0.97659  0.35472  0.93846  1.0000
  S   S171      1.0  0.59608  0.02428  0.87504  1.0000
  H   H925      1.0  0.96807  0.32881  0.93116  1.0000
  H   H926      1.0  0.70686  0.32928  0.82469  1.0000
  H   H927      1.0  0.74309  0.32356  0.81718  1.0000
  C   C544      1.0  0.53163  0.39359  0.76751  1.0000
  C   C545      1.0  0.59131  0.06389  0.72629  1.0000
  C   C546      1.0  0.62494  0.06947  0.73032  1.0000
  C   C547      1.0  0.63883  0.07481  0.75603  1.0000
  C   C548      1.0  0.61909  0.07408  0.77799  1.0000
  C   C549      1.0  0.58561  0.06879  0.77388  1.0000
  C   C550      1.0  0.92122  0.41896  0.89348  1.0000
  C   C551      1.0  0.61151  0.31607  0.69635  1.0000
  H   H928      1.0  0.77616  0.46208  0.75323  1.0000
  H   H929      1.0  0.90874  0.41876  0.84232  1.0000
  C   C552      1.0  0.65506  0.24312  0.72879  1.0000
  H   H930      1.0  0.60433  0.16737  0.92769  1.0000
  H   H931      1.0  0.61459  0.19506  0.97371  1.0000
  C   C553      1.0  0.95273  0.35639  0.86915  1.0000
  H   H932      1.0  0.64031  0.06984  0.71364  1.0000
  C   C554      1.0  0.82288  0.32442  0.82191  1.0000
  C   C555      1.0  0.82960  0.29688  0.82370  1.0000
  C   C556      1.0  0.82970  0.28245  0.84836  1.0000
  C   C557      1.0  0.82322  0.29537  0.87163  1.0000
  C   C558      1.0  0.81707  0.32334  0.86999  1.0000
  C   C559      1.0  0.81693  0.33778  0.84523  1.0000
  H   H933      1.0  0.83448  0.28638  0.80613  1.0000
  H   H934      1.0  0.83510  0.26125  0.84941  1.0000
  H   H935      1.0  0.81187  0.33353  0.88771  1.0000
  H   H936      1.0  0.81206  0.35933  0.84418  1.0000
  H   H937      1.0  0.74426  0.39770  0.89498  1.0000
  C   C560      1.0  0.71965  0.14384  0.70191  1.0000
  H   H938      1.0  0.58814  0.36671  0.68057  1.0000
  H   H939      1.0  0.70131  0.13795  0.71779  1.0000
  H   H940      1.0  0.75939  0.36114  0.67114  1.0000
  H   H941      1.0  0.80027  0.45404  0.72855  1.0000
  C   C561      1.0  0.97224  0.36181  0.70545  1.0000
  C   C562      1.0  0.57258  0.37947  0.68446  1.0000
  H   H942      1.0  0.94085  0.38619  0.70260  1.0000
  C   C563      1.0  0.60954  0.32182  0.64852  1.0000
  N   N39       1.0  0.75401  0.38291  0.72273  1.0000
  C   C564      1.0  0.96632  0.38926  0.69976  1.0000
  H   H943      1.0  0.74932  0.35703  0.83945  1.0000
  C   C565      1.0  0.56974  0.20320  0.93861  1.0000
  H   H944      1.0  0.69824  0.37199  0.89257  1.0000
  C   C566      1.0  0.56848  0.40145  0.89833  1.0000
  H   H945      1.0  0.80156  0.20382  0.68332  1.0000
  H   H946      1.0  0.61122  0.25445  0.95265  1.0000
  C   C567      1.0  0.57891  0.17250  0.81592  1.0000
  H   H947      1.0  0.59052  0.16823  0.79864  1.0000
  H   H948      1.0  0.88936  0.38842  0.81616  1.0000
  H   H949      1.0  0.73506  0.35037  0.77427  1.0000
  S   S172      1.0  0.82130  0.34412  0.65343  1.0000
  C   C568      1.0  0.77614  0.18096  0.68249  1.0000
  C   C569      1.0  0.73619  0.36405  0.67421  1.0000
  C   C570      1.0  0.96406  0.39508  0.96157  1.0000
  H   H950      1.0  0.66990  0.39784  0.67688  1.0000
  Fe  Fe85      1.0  0.60877  0.34044  0.82715  1.0000
  H   H951      1.0  0.57023  0.06863  0.79046  1.0000
  H   H952      1.0  0.52657  0.13665  0.94020  1.0000
  S   S173      1.0  0.63090  0.06484  0.94633  1.0000
  H   H953      1.0  0.80470  0.40975  0.70427  1.0000
  H   H954      1.0  0.93274  0.30163  0.87719  1.0000
  H   H955      1.0  0.98873  0.44209  0.68614  1.0000
  C   C571      1.0  0.75265  0.40746  0.74267  1.0000
  H   H956      1.0  0.63207  0.24918  0.87056  1.0000
  H   H957      1.0  0.76156  0.40473  0.76242  1.0000
  H   H958      1.0  0.55480  0.41660  0.89824  1.0000
  H   H959      1.0  0.59701  0.41936  0.89807  1.0000
  H   H960      1.0  0.72485  0.37902  0.86391  1.0000
  H   H961      1.0  0.62709  0.22838  0.93675  1.0000
  C   C572      1.0  0.77370  0.44630  0.73549  1.0000
  H   H962      1.0  0.59035  0.38727  0.72592  1.0000
  C   C573      1.0  0.67617  0.18349  0.74655  1.0000
  H   H963      1.0  0.68184  0.20328  0.76199  1.0000
  C   C574      1.0  0.99821  0.42156  0.95710  1.0000
  H   H964      1.0  0.01745  0.41472  0.87969  1.0000
  H   H965      1.0  0.65239  0.26750  0.83896  1.0000
  H   H966      1.0  0.54652  0.31914  0.70847  1.0000
  H   H967      1.0  0.92356  0.42720  0.91445  1.0000
  H   H968      1.0  0.97190  0.36298  0.88528  1.0000
  C   C575      1.0  0.63855  0.15279  0.68200  1.0000
  H   H969      1.0  0.60837  0.24886  0.91789  1.0000
  C   C576      1.0  0.99355  0.42099  0.69041  1.0000
  S   S174      1.0  0.60046  0.37112  0.79521  1.0000
  H   H970      1.0  0.61280  0.41416  0.95176  1.0000
  S   S175      1.0  0.56647  0.29929  0.75982  1.0000
  H   H971      1.0  0.55109  0.21290  0.93632  1.0000
  H   H972      1.0  0.72525  0.40118  0.74589  1.0000
  C   C577      1.0  0.97586  0.41686  0.85700  1.0000
  C   C578      1.0  0.58932  0.17181  0.96864  1.0000
  N   N40       1.0  0.73054  0.18568  0.82532  1.0000
  C   C579      1.0  0.73779  0.15631  0.82023  1.0000
  C   C580      1.0  0.74705  0.20186  0.85137  1.0000
  C   C581      1.0  0.74803  0.21205  0.80364  1.0000
  C   C582      1.0  0.69165  0.17124  0.82527  1.0000
  C   C583      1.0  0.72775  0.13940  0.79265  1.0000
  C   C584      1.0  0.73606  0.17667  0.87500  1.0000
  C   C585      1.0  0.74492  0.24502  0.80481  1.0000
  C   C586      1.0  0.67738  0.19107  0.84129  1.0000
  H   H973      1.0  0.76592  0.16515  0.82310  1.0000
  H   H974      1.0  0.72358  0.13481  0.83459  1.0000
  H   H975      1.0  0.74207  0.22315  0.85694  1.0000
  H   H976      1.0  0.77583  0.21432  0.84994  1.0000
  H   H977      1.0  0.77630  0.22047  0.80283  1.0000
  H   H978      1.0  0.73747  0.20057  0.78401  1.0000
  H   H979      1.0  0.68175  0.16855  0.80475  1.0000
  H   H980      1.0  0.67799  0.14446  0.83342  1.0000
  H   H981      1.0  0.70177  0.13433  0.78629  1.0000
  H   H982      1.0  0.74739  0.15558  0.77763  1.0000
  H   H983      1.0  0.72705  0.11405  0.79305  1.0000
  H   H984      1.0  0.74395  0.19186  0.89364  1.0000
  H   H985      1.0  0.70765  0.15861  0.87575  1.0000
  H   H986      1.0  0.74962  0.16133  0.87452  1.0000
  H   H987      1.0  0.71843  0.23938  0.79937  1.0000
  H   H988      1.0  0.76257  0.26352  0.78970  1.0000
  H   H989      1.0  0.75296  0.25863  0.82399  1.0000
  H   H990      1.0  0.67997  0.18866  0.86282  1.0000
  H   H991      1.0  0.64909  0.17924  0.83728  1.0000
  H   H992      1.0  0.68947  0.21873  0.83613  1.0000
  C   C587      1.0  0.76742  0.15780  0.66125  1.0000
  H   H993      1.0  0.93513  0.41601  0.81612  1.0000
  H   H994      1.0  0.65038  0.14079  0.69432  1.0000
  H   H995      1.0  0.60021  0.21097  0.72621  1.0000
  H   H996      1.0  0.66548  0.20462  0.69660  1.0000
  C   C588      1.0  0.91577  0.37266  0.84439  1.0000
  H   H997      1.0  0.62462  0.15738  0.76136  1.0000
  H   H998      1.0  0.55539  0.39571  0.77501  1.0000
  C   C589      1.0  0.59785  0.30164  0.67150  1.0000
  C   C590      1.0  0.57151  0.19969  0.81635  1.0000
  H   H999      1.0  0.57169  0.29593  0.88092  1.0000
  C   C591      1.0  0.52633  0.33075  0.66085  1.0000
  S   S176      1.0  0.86076  0.30624  0.97548  1.0000
  H   H1000     1.0  0.71422  0.30742  0.76166  1.0000
  Fe  Fe86      1.0  0.61905  0.34527  0.76617  1.0000
  H   H1001     1.0  0.65463  0.16240  0.66386  1.0000
  H   H1002     1.0  0.60216  0.30005  0.71373  1.0000
  C   C592      1.0  0.72902  0.34602  0.73083  1.0000
  C   C593      1.0  0.74122  0.38930  0.69686  1.0000
  H   H1003     1.0  0.92017  0.35741  0.82889  1.0000
  C   C594      1.0  0.55501  0.15521  0.85989  1.0000
  C   C595      1.0  0.59245  0.42190  0.95342  1.0000
  H   H1004     1.0  0.94706  0.39204  0.90805  1.0000
  H   H1005     1.0  0.52673  0.39585  0.67579  1.0000
  H   H1006     1.0  0.99867  0.43786  0.89618  1.0000
  H   H1007     1.0  0.57285  0.41472  0.71545  1.0000
  H   H1008     1.0  0.98677  0.35440  0.76373  1.0000
  H   H1009     1.0  0.57831  0.39791  0.66785  1.0000
  H   H1010     1.0  0.65658  0.25089  0.70781  1.0000
  H   H1011     1.0  0.00647  0.44759  0.96396  1.0000
  H   H1012     1.0  0.55616  0.44719  0.75537  1.0000
  H   H1013     1.0  0.71276  0.33830  0.67732  1.0000
  C   C596      1.0  0.58511  0.30857  0.89889  1.0000
  H   H1014     1.0  0.98569  0.41190  0.83820  1.0000
  H   H1015     1.0  0.75953  0.41567  0.68916  1.0000
  H   H1016     1.0  0.71601  0.38868  0.69963  1.0000
  C   C597      1.0  0.57081  0.15036  0.83769  1.0000
  C   C598      1.0  0.81387  0.39817  0.74329  1.0000
  H   H1017     1.0  0.92716  0.34107  0.95550  1.0000
  C   C599      1.0  0.53033  0.40317  0.94971  1.0000
  H   H1018     1.0  0.57224  0.12672  0.94213  1.0000
  H   H1019     1.0  0.63097  0.13500  0.73587  1.0000
  C   C600      1.0  0.62209  0.20790  0.73396  1.0000
  H   H1020     1.0  0.61222  0.13271  0.67559  1.0000
  H   H1021     1.0  0.57249  0.07355  0.96328  1.0000
  C   C601      1.0  0.57165  0.29268  0.92346  1.0000
  H   H1022     1.0  0.70186  0.34140  0.73100  1.0000
  H   H1023     1.0  0.74502  0.30336  0.92008  1.0000
  N   N41       1.0  0.56187  0.18162  0.96330  1.0000
  N   N42       1.0  0.70295  0.30842  0.87925  1.0000
  C   C602      1.0  0.69490  0.27917  0.89821  1.0000
  C   C603      1.0  0.66893  0.30592  0.87146  1.0000
  C   C604      1.0  0.72566  0.34225  0.89359  1.0000
  C   C605      1.0  0.72168  0.30439  0.85592  1.0000
  C   C606      1.0  0.72669  0.27862  0.91024  1.0000
  C   C607      1.0  0.64218  0.27219  0.85753  1.0000
  C   C608      1.0  0.72293  0.37429  0.88537  1.0000
  C   C609      1.0  0.73037  0.33029  0.83321  1.0000
  H   H1024     1.0  0.67905  0.27993  0.91500  1.0000
  H   H1025     1.0  0.67917  0.25347  0.88859  1.0000
  H   H1026     1.0  0.67300  0.32731  0.85801  1.0000
  H   H1027     1.0  0.65595  0.30906  0.88923  1.0000
  H   H1028     1.0  0.71928  0.33941  0.91503  1.0000
  H   H1029     1.0  0.75360  0.34957  0.89247  1.0000
  H   H1030     1.0  0.74688  0.30700  0.86210  1.0000
  H   H1031     1.0  0.70651  0.27791  0.84746  1.0000
  Fe  Fe87      1.0  0.87903  0.36321  0.97458  1.0000
  H   H1032     1.0  0.54043  0.31579  0.66122  1.0000
  H   H1033     1.0  0.74093  0.27207  0.89541  1.0000
  H   H1034     1.0  0.91044  0.31897  0.89515  1.0000
  C   C610      1.0  0.91245  0.40099  0.82923  1.0000
  C   C611      1.0  0.75233  0.17385  0.70292  1.0000
  C   C612      1.0  0.65007  0.37082  0.67547  1.0000
  C   C613      1.0  0.73546  0.33427  0.75776  1.0000
  S   S177      1.0  0.84436  0.28008  0.68869  1.0000
  H   H1035     1.0  0.57765  0.27473  0.67013  1.0000
  H   H1036     1.0  0.65637  0.38151  0.92077  1.0000
  H   H1037     1.0  0.90217  0.30956  0.86023  1.0000
  H   H1038     1.0  0.72933  0.32733  0.71638  1.0000
  H   H1039     1.0  0.56213  0.38635  0.87967  1.0000
  C   C614      1.0  0.55964  0.13969  0.74333  1.0000
  H   H1040     1.0  0.61933  0.27482  0.85199  1.0000
  H   H1041     1.0  0.63275  0.35328  0.96392  1.0000
  H   H1042     1.0  0.59911  0.44244  0.93835  1.0000
  C   C615      1.0  0.53200  0.42279  0.75642  1.0000
  H   H1043     1.0  0.97083  0.43835  0.85239  1.0000
  C   C616      1.0  0.55788  0.37627  0.92189  1.0000
  H   H1044     1.0  0.78906  0.36498  0.70961  1.0000
  S   S178      1.0  0.65264  0.37058  0.72988  1.0000
  S   S179      1.0  0.63289  0.36251  0.86729  1.0000
  C   C617      1.0  0.63270  0.35663  0.92137  1.0000
  S   S180      1.0  0.63397  0.32078  0.79862  1.0000
  C   C618      1.0  0.61920  0.34076  0.94593  1.0000
  H   H1045     1.0  0.56607  0.18727  0.92069  1.0000
  Fe  Fe88      1.0  0.58021  0.27588  0.79360  1.0000
  C   C619      1.0  0.61556  0.34085  0.89770  1.0000
  C   C620      1.0  0.63714  0.35095  0.69859  1.0000
  C   C621      1.0  0.58839  0.30880  0.94713  1.0000
  C   C622      1.0  0.92951  0.38922  0.89151  1.0000
  H   H1046     1.0  0.57643  0.36637  0.92252  1.0000
  H   H1047     1.0  0.57198  0.35905  0.97020  1.0000
  S   S181      1.0  0.58026  0.22569  0.78820  1.0000
  C   C623      1.0  0.63807  0.18347  0.69587  1.0000
  C   C624      1.0  0.54834  0.18292  0.86060  1.0000
  C   C625      1.0  0.60635  0.23537  0.93680  1.0000
  H   H1048     1.0  0.55859  0.16242  0.75126  1.0000
  N   N43       1.0  0.94331  0.38449  0.86560  1.0000
  H   H1049     1.0  0.89426  0.41026  0.88679  1.0000
  H   H1050     1.0  0.68602  0.16614  0.75318  1.0000
  H   H1051     1.0  0.88974  0.35466  0.85277  1.0000
  S   S182      1.0  0.55559  0.29389  0.82387  1.0000
  S   S183      1.0  0.54729  0.05122  0.84527  1.0000
  C   C626      1.0  0.63684  0.16148  0.74157  1.0000
  Fe  Fe89      1.0  0.59837  0.05144  0.65757  1.0000
  C   C627      1.0  0.58795  0.40218  0.70929  1.0000
  H   H1052     1.0  0.67925  0.24339  0.73447  1.0000
  C   C628      1.0  0.00624  0.43192  0.87687  1.0000
  H   H1053     1.0  0.96563  0.35382  0.85110  1.0000
  N   N44       1.0  0.55676  0.39117  0.94838  1.0000
  H   H1054     1.0  0.53544  0.34570  0.72773  1.0000
  H   H1055     1.0  0.66482  0.07897  0.75888  1.0000
  H   H1056     1.0  0.61834  0.20537  0.75570  1.0000
  C   C629      1.0  0.92241  0.31982  0.87576  1.0000
  H   H1057     1.0  0.68531  0.09821  0.67958  1.0000
  H   H1058     1.0  0.62500  0.19318  0.68231  1.0000
  H   H1059     1.0  0.56729  0.12763  0.75916  1.0000
  C   C630      1.0  0.71060  0.12125  0.68034  1.0000
  H   H1060     1.0  0.55075  0.22606  0.83925  1.0000
  H   H1061     1.0  0.69149  0.19602  0.72865  1.0000
  H   H1062     1.0  0.65348  0.26334  0.74068  1.0000
  H   H1063     1.0  0.83206  0.42657  0.74406  1.0000
  H   H1064     1.0  0.76003  0.45309  0.72030  1.0000
  Fe  Fe90      1.0  0.55894  0.08617  0.88038  1.0000
  C   C631      1.0  0.57189  0.06385  0.74819  1.0000
  H   H1065     1.0  0.83073  0.38638  0.74142  1.0000
  C   C632      1.0  0.58327  0.14866  0.71879  1.0000
  H   H1066     1.0  0.53283  0.35320  0.91668  1.0000
  N   N45       1.0  0.53442  0.35271  0.68541  1.0000
  H   H1067     1.0  0.01020  0.34502  0.70544  1.0000
  S   S184      1.0  0.63067  0.02561  0.66004  1.0000
  C   C633      1.0  0.00346  0.34476  0.77217  1.0000
  Fe  Fe91      1.0  0.54841  0.32331  0.79041  1.0000
  H   H1068     1.0  0.61480  0.42317  0.70485  1.0000
  Fe  Fe92      1.0  0.80617  0.35074  0.96625  1.0000
  C   C634      1.0  0.00551  0.36626  0.70138  1.0000
  C   C635      1.0  0.61407  0.06633  0.97773  1.0000
  H   H1069     1.0  0.71754  0.25813  0.92561  1.0000
  H   H1070     1.0  0.54784  0.26796  0.92411  1.0000
  C   C636      1.0  0.73459  0.12800  0.66014  1.0000
  H   H1071     1.0  0.57613  0.12912  0.83706  1.0000
  C   C637      1.0  0.52738  0.14889  0.95954  1.0000
  C   C638      1.0  0.01064  0.38124  0.93380  1.0000
  H   H1072     1.0  0.01427  0.33619  0.75603  1.0000
  C   C639      1.0  0.59567  0.15213  0.94619  1.0000
  H   H1073     1.0  0.61650  0.14656  0.95223  1.0000
  S   S185      1.0  0.93521  0.40436  0.97857  1.0000
  H   H1074     1.0  0.54596  0.05984  0.74527  1.0000
  H   H1075     1.0  0.57126  0.15671  0.70297  1.0000
  H   H1076     1.0  0.01729  0.37886  0.80504  1.0000
  H   H1077     1.0  0.54176  0.43000  0.94171  1.0000
  C   C640      1.0  0.52883  0.33024  0.70927  1.0000
  H   H1078     1.0  0.53267  0.12021  0.73762  1.0000
  S   S186      1.0  0.57003  0.28807  0.97764  1.0000
  S   S187      1.0  0.54322  0.12659  0.88668  1.0000
  H   H1079     1.0  0.53591  0.18662  0.87766  1.0000
  H   H1080     1.0  0.52366  0.40494  0.97060  1.0000
  H   H1081     1.0  0.62339  0.46437  0.98043  1.0000
  C   C641      1.0  0.59760  0.44034  0.98026  1.0000
  H   H1082     1.0  0.60315  0.98984  0.22691  1.0000
  H   H1083     1.0  0.56986  0.99889  0.04941  1.0000
  S   S188      1.0  0.57590  0.93681  0.11739  1.0000
  H   H1084     1.0  0.54548  0.98538  0.25003  1.0000
  C   C642      1.0  0.53414  0.90690  0.10597  1.0000
  C   C643      1.0  0.56969  0.93547  0.28712  1.0000
  H   H1085     1.0  0.60156  0.96870  0.06004  1.0000
  Fe  Fe93      1.0  0.58972  0.99236  0.12409  1.0000
  H   H1086     1.0  0.58515  0.00021  0.26630  1.0000
  H   H1087     1.0  0.62053  0.95139  0.30398  1.0000
  H   H1088     1.0  0.55095  0.87240  0.09070  1.0000
  C   C644      1.0  0.52875  0.88388  0.18372  1.0000
  H   H1089     1.0  0.55074  0.89117  0.16985  1.0000
  H   H1090     1.0  0.56867  0.92859  0.04718  1.0000
  H   H1091     1.0  0.52829  0.90811  0.18824  1.0000
  H   H1092     1.0  0.54130  0.83478  0.16965  1.0000
  H   H1093     1.0  0.62192  0.97927  0.27811  1.0000
  C   C645      1.0  0.58108  0.95709  0.04466  1.0000
  H   H1094     1.0  0.59440  0.96492  0.02532  1.0000
  H   H1095     1.0  0.53996  0.78899  0.14520  1.0000
  N   N46       1.0  0.54582  0.94818  0.27735  1.0000
  H   H1096     1.0  0.54452  0.96183  0.06908  1.0000
  H   H1097     1.0  0.57255  0.91848  0.27241  1.0000
  H   H1098     1.0  0.55949  0.96250  0.21537  1.0000
  C   C646      1.0  0.55487  0.97004  0.04881  1.0000
  C   C647      1.0  0.60648  0.96390  0.29530  1.0000
  H   H1099     1.0  0.52490  0.83622  0.13800  1.0000
  H   H1100     1.0  0.53372  0.87384  0.20224  1.0000
  H   H1101     1.0  0.56801  0.99303  0.00302  1.0000
  C   C648      1.0  0.57738  0.96753  0.23225  1.0000
  H   H1102     1.0  0.55831  0.91844  0.30463  1.0000
  H   H1103     1.0  0.54847  0.94903  0.99336  1.0000
  H   H1104     1.0  0.55857  0.98658  0.30820  1.0000
  C   C649      1.0  0.56351  0.97660  0.25725  1.0000
  C   C650      1.0  0.52904  0.87640  0.09387  1.0000
  H   H1105     1.0  0.58122  0.94493  0.23452  1.0000
  C   C651      1.0  0.54244  0.96863  0.00172  1.0000
  C   C652      1.0  0.53573  0.96251  0.30062  1.0000
  S   S189      1.0  0.55176  0.01167  0.12568  1.0000
  H   H1106     1.0  0.60592  0.98154  0.31053  1.0000
  N   N47       1.0  0.52592  0.95769  0.02876  1.0000
  H   H1107     1.0  0.54368  0.92305  0.51479  1.0000
  H   H1108     1.0  0.56241  0.94954  0.37443  1.0000
  H   H1109     1.0  0.57768  0.99323  0.54278  1.0000
  S   S190      1.0  0.52606  0.83670  0.33494  1.0000
  H   H1110     1.0  0.55850  0.88084  0.43252  1.0000
  C   C653      1.0  0.54197  0.91262  0.60439  1.0000
  C   C654      1.0  0.57535  0.96795  0.53810  1.0000
  H   H1111     1.0  0.54666  0.91369  0.43246  1.0000
  H   H1112     1.0  0.56874  0.96461  0.47974  1.0000
  H   H1113     1.0  0.55547  0.00484  0.50895  1.0000
  H   H1114     1.0  0.58247  0.95918  0.55642  1.0000
  H   H1115     1.0  0.57194  0.90317  0.35671  1.0000
  H   H1116     1.0  0.53992  0.80659  0.38859  1.0000
  H   H1117     1.0  0.55013  0.84927  0.39693  1.0000
  S   S191      1.0  0.58274  0.93946  0.61878  1.0000
  C   C655      1.0  0.54588  0.89936  0.35764  1.0000
  H   H1118     1.0  0.53844  0.88746  0.46114  1.0000
  H   H1119     1.0  0.59545  0.97166  0.52337  1.0000
  H   H1120     1.0  0.55497  0.87333  0.59438  1.0000
  H   H1121     1.0  0.52588  0.92244  0.54626  1.0000
  Fe  Fe94      1.0  0.60090  0.99628  0.62406  1.0000
  C   C656      1.0  0.54057  0.92587  0.36747  1.0000
  H   H1122     1.0  0.53473  0.98535  0.56884  1.0000
  C   C657      1.0  0.53693  0.82226  0.40440  1.0000
  Fe  Fe95      1.0  0.54646  0.01005  0.37930  1.0000
  C   C658      1.0  0.53845  0.88692  0.43929  1.0000
  H   H1123     1.0  0.56955  0.00135  0.46465  1.0000
  H   H1124     1.0  0.52711  0.94411  0.31743  1.0000
  H   H1125     1.0  0.55023  0.81977  0.42203  1.0000
  C   C659      1.0  0.53488  0.88044  0.59430  1.0000
  C   C660      1.0  0.55239  0.97605  0.47429  1.0000
  H   H1126     1.0  0.53304  0.95983  0.45913  1.0000
  H   H1127     1.0  0.52762  0.83257  0.63933  1.0000
  C   C661      1.0  0.53487  0.98201  0.49849  1.0000
  C   C662      1.0  0.53892  0.93940  0.52897  1.0000
  H   H1128     1.0  0.52890  0.82870  0.45832  1.0000
  H   H1129     1.0  0.62535  0.00265  0.82807  1.0000
  H   H1130     1.0  0.62051  0.96847  0.80699  1.0000
  H   H1131     1.0  0.55836  0.88233  0.78000  1.0000
  C   C663      1.0  0.61672  0.99117  0.80814  1.0000
  C   C664      1.0  0.56935  0.95722  0.72970  1.0000
  H   H1132     1.0  0.54015  0.99543  0.76780  1.0000
  C   C665      1.0  0.53817  0.92674  0.86503  1.0000
  H   H1133     1.0  0.56035  0.92910  0.73070  1.0000
  H   H1134     1.0  0.60854  0.97404  0.75933  1.0000
  H   H1135     1.0  0.57973  0.91105  0.80715  1.0000
  H   H1136     1.0  0.59015  0.96850  0.71450  1.0000
  H   H1137     1.0  0.53628  0.98114  0.96126  1.0000
  C   C666      1.0  0.57860  0.98203  0.80411  1.0000
  H   H1138     1.0  0.55863  0.95037  0.87350  1.0000
  H   H1139     1.0  0.59372  0.00341  0.75346  1.0000
  C   C667      1.0  0.54547  0.92341  0.78382  1.0000
  C   C668      1.0  0.58449  0.97535  0.75624  1.0000
  H   H1140     1.0  0.57084  0.90394  0.85993  1.0000
  Fe  Fe96      1.0  0.54011  0.01042  0.87485  1.0000
  C   C669      1.0  0.53036  0.96809  0.77403  1.0000
  C   C670      1.0  0.57135  0.90991  0.78637  1.0000
  H   H1141     1.0  0.59441  0.92329  0.77354  1.0000
  C   C671      1.0  0.54497  0.90028  0.85748  1.0000
  H   H1142     1.0  0.56412  0.96812  0.82210  1.0000
  N   N48       1.0  0.56029  0.96182  0.77960  1.0000
  H   H1143     1.0  0.54828  0.96175  0.72260  1.0000
  S   S192      1.0  0.52850  0.83697  0.83726  1.0000
  H   H1144     1.0  0.53252  0.90070  0.93904  1.0000
  H   H1145     1.0  0.52979  0.91507  0.80221  1.0000
  H   H1146     1.0  0.55235  0.81429  0.91242  1.0000
  H   H1147     1.0  0.52620  0.90785  0.76831  1.0000
  H   H1148     1.0  0.53659  0.85303  0.93511  1.0000
  H   H1149     1.0  0.57907  0.00733  0.80455  1.0000
  C   C672      1.0  0.52469  0.80487  0.91744  1.0000
  H   H1150     1.0  0.52885  0.85121  0.90057  1.0000
  H   H1151     1.0  0.63420  0.01130  0.79390  1.0000
  H   H1152     1.0  0.52433  0.67800  0.90006  1.0000
