data_image0
_chemical_formula_structural       H3CH2CHCH7FeSHFeS2FeHFeS3FeS2FeSFeSFeHS2H2CH4C2H2C6H5C3H2C2H2CH8CHCH4CH2NHCHC3H2CH2NH3CH4CHCHC2H2CH2FeS2FeS2FeSHS2FeS2Fe2CHS2CH2C6H3NC6H4C3H2C6H6CHCH3C3HCH5CH9C2NCH3CH5CFe2NHC3H3NH2C2H2SH4C2H5C3H3CH5CH3CH5CH3SH6CHC2H2SHCSCH2CHFeS2FeCFeH2SH2FeS2FeHFeHS2H2C6H5C2SCFeHSHC6H3CH2CH6SHNH2CH4C2HFeH3NCH4CH2CHCHC2H3CH3CH2C2SH6CNCS2H2CH6C6HCHC2HC2H2SCH2CSCHNHCH7SH5NC8H5CH2CH3CH4CHSHCH3C2HCH2C2HCH2NCSC2H2C6H4CH2CH4C2H2CSCHCH3CNHCSC2H2CHCHCHC2SH6CH3C2HNHC3HCH4SH2CH6SH4SCHFeS2HSFeHS2FeS2H2FeSFeHSC6H4FeCH2C2HC3H3C6H2NH2C3HSCHCHCH9CHCH6CHNC2H5FeHC3HNC3SH6SCFeCH4CH2CFeS2FeS2HFeS4FeSFeS2FeSFeS2C7H4C6H4C6H2C2HCH3SH4NC3H2C2H7CH3C2FeHC2H3C4HCHCH2CHNH2CH3CH4C2H3CHCH8C2H3NH9C2H3CH5CFeS2FeSHFeSFeHS3HFeSFeS2FeHFeS3H3C4H2C6H6CH5C2HC2H2SHC2H2CHCHCH5CHCH5CH2CH3CH3NSNHC3H5CH2CH4CHCHCHCH5CNH2CH2CHCH2C3H2NCH2CHSHCH2SCH3C3H7CH2C2HCH2C3H4SC2H8
_chemical_formula_sum              "H576 C336 Fe48 S96 N24"
_cell_length_a       45.4373
_cell_length_b       45.557
_cell_length_c       31.7527
_cell_angle_alpha    89.9249
_cell_angle_beta     90.1189
_cell_angle_gamma    120.161

_space_group_name_H-M_alt    "P 1"
_space_group_IT_number       1

loop_
  _space_group_symop_operation_xyz
  'x, y, z'

loop_
  _atom_site_type_symbol
  _atom_site_label
  _atom_site_symmetry_multiplicity
  _atom_site_fract_x
  _atom_site_fract_y
  _atom_site_fract_z
  _atom_site_occupancy
  H   H1        1.0  0.44986  0.98023  0.48870  1.0000
  H   H2        1.0  0.41756  0.07495  0.12759  1.0000
  H   H3        1.0  0.39889  0.07993  0.17449  1.0000
  C   C1        1.0  0.42343  0.08617  0.15946  1.0000
  H   H4        1.0  0.43214  0.13706  0.15038  1.0000
  H   H5        1.0  0.42356  0.10638  0.07351  1.0000
  C   C2        1.0  0.45000  0.11898  0.06166  1.0000
  H   H6        1.0  0.43438  0.07339  0.17832  1.0000
  C   C3        1.0  0.44740  0.12512  0.15981  1.0000
  H   H7        1.0  0.45342  0.13137  0.19384  1.0000
  H   H8        1.0  0.44952  0.12923  0.03004  1.0000
  H   H9        1.0  0.44954  0.02289  0.64280  1.0000
  H   H10       1.0  0.44824  0.99494  0.60103  1.0000
  H   H11       1.0  0.39353  0.28826  0.66377  1.0000
  H   H12       1.0  0.36483  0.29728  0.63577  1.0000
  H   H13       1.0  0.45615  0.98958  0.69203  1.0000
  Fe  Fe1       1.0  0.14465  0.54282  0.45955  1.0000
  S   S1        1.0  0.11904  0.57170  0.43804  1.0000
  H   H14       1.0  0.03263  0.44669  0.33520  1.0000
  Fe  Fe2       1.0  0.16489  0.53493  0.36974  1.0000
  S   S2        1.0  0.14058  0.56290  0.34265  1.0000
  S   S3        1.0  0.18539  0.51044  0.32458  1.0000
  Fe  Fe3       1.0  0.16506  0.59917  0.39619  1.0000
  H   H15       1.0  0.34493  0.47357  0.04836  1.0000
  Fe  Fe4       1.0  0.09621  0.53256  0.38607  1.0000
  S   S4        1.0  0.04492  0.51410  0.35242  1.0000
  S   S5        1.0  0.19245  0.57325  0.42094  1.0000
  S   S6        1.0  0.11904  0.50183  0.41015  1.0000
  Fe  Fe5       1.0  0.35237  0.56424  0.18055  1.0000
  S   S7        1.0  0.40415  0.57296  0.19926  1.0000
  S   S8        1.0  0.32714  0.58414  0.22593  1.0000
  Fe  Fe6       1.0  0.36286  0.54894  0.08816  1.0000
  S   S9        1.0  0.41496  0.55728  0.10112  1.0000
  Fe  Fe7       1.0  0.39234  0.52689  0.16018  1.0000
  S   S10       1.0  0.39809  0.48109  0.17901  1.0000
  Fe  Fe8       1.0  0.42164  0.60206  0.13854  1.0000
  H   H16       1.0  0.27465  0.53453  0.05260  1.0000
  S   S11       1.0  0.33878  0.51592  0.14533  1.0000
  S   S12       1.0  0.37121  0.59573  0.12153  1.0000
  H   H17       1.0  0.98520  0.49648  0.30333  1.0000
  H   H18       1.0  0.25385  0.62834  0.26403  1.0000
  C   C4        1.0  0.03029  0.43438  0.30420  1.0000
  H   H19       1.0  0.24801  0.60033  0.05574  1.0000
  H   H20       1.0  0.04213  0.39396  0.25062  1.0000
  H   H21       1.0  0.36628  0.47725  0.09780  1.0000
  H   H22       1.0  0.44063  0.40098  0.27654  1.0000
  C   C5        1.0  0.99925  0.39816  0.30747  1.0000
  C   C6        1.0  0.08687  0.49695  0.26075  1.0000
  H   H23       1.0  0.18820  0.60901  0.51617  1.0000
  H   H24       1.0  0.12224  0.42911  0.30258  1.0000
  C   C7        1.0  0.22503  0.53137  0.29766  1.0000
  C   C8        1.0  0.24848  0.56584  0.30375  1.0000
  C   C9        1.0  0.27960  0.58144  0.28161  1.0000
  C   C10       1.0  0.28770  0.56282  0.25324  1.0000
  C   C11       1.0  0.26428  0.52835  0.24721  1.0000
  C   C12       1.0  0.23314  0.51276  0.26932  1.0000
  H   H25       1.0  0.24270  0.58036  0.32572  1.0000
  H   H26       1.0  0.29763  0.60804  0.28672  1.0000
  H   H27       1.0  0.27017  0.51370  0.22558  1.0000
  H   H28       1.0  0.21526  0.48606  0.26451  1.0000
  H   H29       1.0  0.12268  0.45153  0.34961  1.0000
  C   C13       1.0  0.00157  0.48135  0.35890  1.0000
  C   C14       1.0  0.99098  0.45744  0.39150  1.0000
  C   C15       1.0  0.97737  0.47827  0.32879  1.0000
  H   H30       1.0  0.00921  0.45929  0.41483  1.0000
  H   H31       1.0  0.10920  0.52299  0.26319  1.0000
  C   C16       1.0  0.06024  0.42179  0.24970  1.0000
  C   C17       1.0  0.09287  0.42586  0.22926  1.0000
  H   H32       1.0  0.99248  0.38499  0.27663  1.0000
  H   H33       1.0  0.06242  0.42041  0.35736  1.0000
  C   C18       1.0  0.10865  0.42722  0.33215  1.0000
  H   H34       1.0  0.08673  0.48818  0.22821  1.0000
  H   H35       1.0  0.02303  0.44810  0.28124  1.0000
  H   H36       1.0  0.28237  0.57585  0.06443  1.0000
  H   H37       1.0  0.42213  0.39064  0.32756  1.0000
  H   H38       1.0  0.36952  0.42503  0.07906  1.0000
  H   H39       1.0  0.21012  0.60610  0.27740  1.0000
  H   H40       1.0  0.06413  0.49945  0.26620  1.0000
  H   H41       1.0  0.09024  0.42562  0.19444  1.0000
  C   C19       1.0  0.43376  0.47466  0.17964  1.0000
  H   H42       1.0  0.42724  0.46383  0.09383  1.0000
  C   C20       1.0  0.09045  0.47426  0.29413  1.0000
  H   H43       1.0  0.40283  0.42130  0.19372  1.0000
  H   H44       1.0  0.00289  0.38255  0.33144  1.0000
  H   H45       1.0  0.11657  0.47860  0.29063  1.0000
  H   H46       1.0  0.41955  0.34204  0.28876  1.0000
  C   C21       1.0  0.42837  0.44186  0.18759  1.0000
  H   H47       1.0  0.32639  0.44069  0.08673  1.0000
  H   H48       1.0  0.97685  0.40007  0.31766  1.0000
  N   N1        1.0  0.06380  0.43704  0.29279  1.0000
  H   H49       1.0  0.09050  0.48503  0.32558  1.0000
  C   C22       1.0  0.42795  0.48164  0.06931  1.0000
  H   H50       1.0  0.04803  0.43116  0.22707  1.0000
  C   C23       1.0  0.36827  0.44097  0.05328  1.0000
  C   C24       1.0  0.26728  0.55359  0.04378  1.0000
  C   C25       1.0  0.35096  0.45965  0.07233  1.0000
  H   H51       1.0  0.09705  0.40472  0.23856  1.0000
  H   H52       1.0  0.10972  0.40771  0.35207  1.0000
  C   C26       1.0  0.07119  0.41748  0.32563  1.0000
  H   H53       1.0  0.11604  0.45034  0.23625  1.0000
  H   H54       1.0  0.05670  0.38976  0.31879  1.0000
  N   N2        1.0  0.40306  0.46310  0.03427  1.0000
  H   H55       1.0  0.42048  0.49781  0.08705  1.0000
  H   H56       1.0  0.40251  0.40315  0.06095  1.0000
  H   H57       1.0  0.44113  0.34876  0.33787  1.0000
  C   C27       1.0  0.42249  0.41864  0.03760  1.0000
  H   H58       1.0  0.22163  0.61812  0.22432  1.0000
  H   H59       1.0  0.23974  0.54173  0.05054  1.0000
  H   H60       1.0  0.44864  0.44535  0.35453  1.0000
  H   H61       1.0  0.44713  0.43437  0.05409  1.0000
  C   C28       1.0  0.26741  0.62439  0.04134  1.0000
  H   H62       1.0  0.45105  0.40995  0.19333  1.0000
  C   C29       1.0  0.22935  0.62686  0.25724  1.0000
  H   H63       1.0  0.22741  0.60984  0.50974  1.0000
  C   C30       1.0  0.45569  0.43532  0.18745  1.0000
  C   C31       1.0  0.44291  0.36006  0.30632  1.0000
  H   H64       1.0  0.44083  0.45014  0.27785  1.0000
  H   H65       1.0  0.39905  0.62532  0.03295  1.0000
  C   C32       1.0  0.44481  0.39482  0.30917  1.0000
  H   H66       1.0  0.35021  0.42267  0.02972  1.0000
  H   H67       1.0  0.28761  0.63777  0.06545  1.0000
  Fe  Fe9       1.0  0.17593  0.55758  0.82618  1.0000
  S   S13       1.0  0.19290  0.61008  0.80227  1.0000
  S   S14       1.0  0.21758  0.54728  0.84669  1.0000
  Fe  Fe10      1.0  0.10013  0.53849  0.83225  1.0000
  S   S15       1.0  0.11309  0.59074  0.81119  1.0000
  S   S16       1.0  0.04659  0.49259  0.84431  1.0000
  Fe  Fe11      1.0  0.14560  0.58470  0.76213  1.0000
  S   S17       1.0  0.14120  0.59973  0.69488  1.0000
  H   H68       1.0  0.38305  0.45797  0.94671  1.0000
  S   S18       1.0  0.13146  0.53184  0.78175  1.0000
  S   S19       1.0  0.14371  0.55912  0.87874  1.0000
  Fe  Fe12      1.0  0.36245  0.54538  0.72990  1.0000
  S   S20       1.0  0.38773  0.59325  0.76805  1.0000
  S   S21       1.0  0.30620  0.52003  0.71544  1.0000
  Fe  Fe13      1.0  0.43000  0.54874  0.70730  1.0000
  Fe  Fe14      1.0  0.41947  0.57227  0.79363  1.0000
  C   C33       1.0  0.98602  0.45412  0.74042  1.0000
  H   H69       1.0  0.16557  0.63549  0.55390  1.0000
  S   S22       1.0  0.39147  0.52228  0.75905  1.0000
  S   S23       1.0  0.39804  0.56747  0.67497  1.0000
  C   C34       1.0  0.29242  0.58092  0.64771  1.0000
  H   H70       1.0  0.05886  0.50670  0.75390  1.0000
  H   H71       1.0  0.05930  0.45917  0.73445  1.0000
  C   C35       1.0  0.40944  0.56764  0.90562  1.0000
  C   C36       1.0  0.37415  0.55280  0.90105  1.0000
  C   C37       1.0  0.35319  0.54396  0.93699  1.0000
  C   C38       1.0  0.36736  0.55024  0.97766  1.0000
  C   C39       1.0  0.40269  0.56576  0.98208  1.0000
  C   C40       1.0  0.42354  0.57406  0.94627  1.0000
  H   H72       1.0  0.36298  0.54770  0.86987  1.0000
  H   H73       1.0  0.32587  0.53187  0.93319  1.0000
  H   H74       1.0  0.22664  0.59732  0.71074  1.0000
  N   N3        1.0  0.43921  0.36270  0.68123  1.0000
  C   C41       1.0  0.24179  0.54002  0.80926  1.0000
  C   C42       1.0  0.22885  0.52691  0.76932  1.0000
  C   C43       1.0  0.24836  0.51988  0.74107  1.0000
  C   C44       1.0  0.28129  0.52706  0.75210  1.0000
  C   C45       1.0  0.29425  0.54047  0.79185  1.0000
  C   C46       1.0  0.27440  0.54650  0.82047  1.0000
  H   H75       1.0  0.20350  0.52131  0.76069  1.0000
  H   H76       1.0  0.23795  0.50897  0.71060  1.0000
  H   H77       1.0  0.31924  0.54537  0.80100  1.0000
  H   H78       1.0  0.28440  0.55606  0.85145  1.0000
  C   C47       1.0  0.00414  0.48532  0.84800  1.0000
  C   C48       1.0  0.97704  0.45183  0.85352  1.0000
  C   C49       1.0  0.99656  0.51148  0.84497  1.0000
  H   H79       1.0  0.98246  0.43131  0.85582  1.0000
  H   H80       1.0  0.01698  0.53738  0.84083  1.0000
  C   C50       1.0  0.14412  0.54597  0.57393  1.0000
  C   C51       1.0  0.13100  0.56790  0.57356  1.0000
  C   C52       1.0  0.12941  0.58343  0.61116  1.0000
  C   C53       1.0  0.14062  0.57697  0.64948  1.0000
  C   C54       1.0  0.15252  0.55403  0.65021  1.0000
  C   C55       1.0  0.15432  0.53867  0.61254  1.0000
  H   H81       1.0  0.37999  0.49536  0.94784  1.0000
  H   H82       1.0  0.11978  0.60085  0.61045  1.0000
  H   H83       1.0  0.16106  0.54868  0.67956  1.0000
  H   H84       1.0  0.16421  0.52145  0.61317  1.0000
  H   H85       1.0  0.39896  0.62928  0.62281  1.0000
  H   H86       1.0  0.23266  0.57907  0.66465  1.0000
  C   C56       1.0  0.41276  0.44059  0.01036  1.0000
  H   H87       1.0  0.22570  0.61804  0.97177  1.0000
  C   C57       1.0  0.28387  0.62093  0.00036  1.0000
  H   H88       1.0  0.05169  0.51687  0.59174  1.0000
  H   H89       1.0  0.01723  0.51969  0.75962  1.0000
  H   H90       1.0  0.38843  0.32967  0.70527  1.0000
  C   C58       1.0  0.06656  0.47714  0.70756  1.0000
  C   C59       1.0  0.43837  0.39020  0.60927  1.0000
  C   C60       1.0  0.42921  0.41090  0.70819  1.0000
  H   H91       1.0  0.06106  0.54838  0.65678  1.0000
  C   C61       1.0  0.04796  0.50371  0.62245  1.0000
  H   H92       1.0  0.32061  0.61362  0.89015  1.0000
  H   H93       1.0  0.04089  0.57859  0.75393  1.0000
  H   H94       1.0  0.09425  0.48728  0.70276  1.0000
  H   H95       1.0  0.43457  0.37468  0.74595  1.0000
  H   H96       1.0  0.21088  0.60579  0.56144  1.0000
  C   C62       1.0  0.22782  0.57060  0.97786  1.0000
  H   H97       1.0  0.08452  0.53090  0.71113  1.0000
  H   H98       1.0  0.12249  0.57320  0.54416  1.0000
  H   H99       1.0  0.99648  0.52583  0.71588  1.0000
  H   H100      1.0  0.01708  0.52453  0.64318  1.0000
  H   H101      1.0  0.05387  0.46295  0.67869  1.0000
  H   H102      1.0  0.26411  0.53851  0.97882  1.0000
  H   H103      1.0  0.40154  0.39661  0.70163  1.0000
  H   H104      1.0  0.45513  0.56790  0.54543  1.0000
  H   H105      1.0  0.00308  0.45422  0.67753  1.0000
  C   C63       1.0  0.27730  0.59235  0.93255  1.0000
  C   C64       1.0  0.24465  0.60224  0.68440  1.0000
  N   N4        1.0  0.30612  0.61334  0.67272  1.0000
  C   C65       1.0  0.44472  0.38803  0.71537  1.0000
  H   H106      1.0  0.26431  0.56776  0.91526  1.0000
  H   H107      1.0  0.26977  0.60919  0.91621  1.0000
  H   H108      1.0  0.00653  0.45489  0.76019  1.0000
  C   C66       1.0  0.37759  0.47413  0.96758  1.0000
  H   H109      1.0  0.42757  0.40495  0.62308  1.0000
  H   H110      1.0  0.30379  0.57315  0.99504  1.0000
  H   H111      1.0  0.38947  0.35327  0.66064  1.0000
  H   H112      1.0  0.02767  0.47704  0.61747  1.0000
  H   H113      1.0  0.21550  0.59317  0.92392  1.0000
  C   C67       1.0  0.96242  0.50412  0.84725  1.0000
  Fe  Fe15      1.0  0.42509  0.61406  0.71477  1.0000
  Fe  Fe16      1.0  0.15948  0.61098  0.85346  1.0000
  N   N5        1.0  0.03036  0.50681  0.69940  1.0000
  H   H114      1.0  0.39146  0.42267  0.98965  1.0000
  C   C68       1.0  0.99921  0.47186  0.69747  1.0000
  C   C69       1.0  0.02113  0.52839  0.72628  1.0000
  C   C70       1.0  0.27592  0.56276  0.99699  1.0000
  H   H115      1.0  0.18585  0.57973  0.96599  1.0000
  H   H116      1.0  0.96673  0.42700  0.73521  1.0000
  H   H117      1.0  0.21679  0.56304  0.00971  1.0000
  N   N6        1.0  0.26614  0.58707  0.97808  1.0000
  H   H118      1.0  0.41402  0.57118  0.01305  1.0000
  H   H119      1.0  0.43417  0.45553  0.98827  1.0000
  C   C71       1.0  0.97623  0.52057  0.98863  1.0000
  C   C72       1.0  0.21346  0.59201  0.95877  1.0000
  H   H120      1.0  0.42868  0.50467  0.99000  1.0000
  H   H121      1.0  0.27165  0.57729  0.62610  1.0000
  S   S24       1.0  0.43709  0.57888  0.86187  1.0000
  H   H122      1.0  0.33430  0.57030  0.64102  1.0000
  H   H123      1.0  0.44305  0.42998  0.68336  1.0000
  H   H124      1.0  0.30494  0.62513  0.58004  1.0000
  H   H125      1.0  0.40751  0.62797  0.95586  1.0000
  C   C73       1.0  0.33570  0.61710  0.69878  1.0000
  C   C74       1.0  0.31878  0.57738  0.62097  1.0000
  H   H126      1.0  0.30528  0.55647  0.59786  1.0000
  H   H127      1.0  0.27376  0.58993  0.72684  1.0000
  H   H128      1.0  0.07348  0.57171  0.73341  1.0000
  H   H129      1.0  0.07261  0.50531  0.62979  1.0000
  H   H130      1.0  0.28046  0.55854  0.66904  1.0000
  C   C75       1.0  0.06073  0.50691  0.71892  1.0000
  C   C76       1.0  0.04736  0.56672  0.72768  1.0000
  C   C77       1.0  0.31588  0.60841  0.92442  1.0000
  H   H131      1.0  0.41780  0.36755  0.59321  1.0000
  H   H132      1.0  0.24677  0.62433  0.66712  1.0000
  H   H133      1.0  0.04685  0.57966  0.69828  1.0000
  C   C78       1.0  0.40154  0.33951  0.67449  1.0000
  H   H134      1.0  0.99416  0.53902  0.96522  1.0000
  H   H135      1.0  0.43263  0.42577  0.73735  1.0000
  H   H136      1.0  0.97777  0.47305  0.68199  1.0000
  H   H137      1.0  0.39833  0.50735  0.02168  1.0000
  H   H138      1.0  0.45081  0.58557  0.95004  1.0000
  C   C79       1.0  0.03870  0.52218  0.65586  1.0000
  H   H139      1.0  0.33584  0.60087  0.60337  1.0000
  H   H140      1.0  0.32812  0.59365  0.71749  1.0000
  H   H141      1.0  0.32533  0.59092  0.93256  1.0000
  C   C80       1.0  0.27916  0.61012  0.70318  1.0000
  H   H142      1.0  0.33097  0.63302  0.94084  1.0000
  H   H143      1.0  0.35083  0.45976  0.97847  1.0000
  H   H144      1.0  0.21624  0.54625  0.95988  1.0000
  H   H145      1.0  0.98289  0.50040  0.99200  1.0000
  H   H146      1.0  0.35698  0.62034  0.67839  1.0000
  C   C81       1.0  0.40311  0.48888  0.00448  1.0000
  H   H147      1.0  0.28820  0.63386  0.72167  1.0000
  H   H148      1.0  0.98087  0.53437  0.01889  1.0000
  H   H149      1.0  0.42576  0.40083  0.01692  1.0000
  S   S25       1.0  0.45376  0.52654  0.66266  1.0000
  H   H150      1.0  0.43615  0.61672  0.58841  1.0000
  H   H151      1.0  0.27167  0.62823  0.60673  1.0000
  H   H152      1.0  0.41411  0.56180  0.55662  1.0000
  H   H153      1.0  0.43978  0.56306  0.59941  1.0000
  H   H154      1.0  0.20118  0.63504  0.60887  1.0000
  H   H155      1.0  0.45366  0.62041  0.53735  1.0000
  C   C82       1.0  0.21358  0.61836  0.53067  1.0000
  H   H156      1.0  0.97308  0.46539  0.75820  1.0000
  C   C83       1.0  0.44079  0.57433  0.56823  1.0000
  C   C84       1.0  0.45483  0.61284  0.57033  1.0000
  H   H157      1.0  0.31061  0.62819  0.00801  1.0000
  H   H158      1.0  0.43845  0.32506  0.72417  1.0000
  S   S26       1.0  0.34030  0.53793  0.02217  1.0000
  H   H159      1.0  0.36215  0.61785  0.00493  1.0000
  C   C85       1.0  0.38865  0.63768  0.01244  1.0000
  S   S27       1.0  0.14932  0.52806  0.52700  1.0000
  C   C86       1.0  0.39173  0.30839  0.64612  1.0000
  H   H160      1.0  0.45647  0.40636  0.58438  1.0000
  H   H161      1.0  0.45225  0.32318  0.67235  1.0000
  C   C87       1.0  0.45363  0.34116  0.69711  1.0000
  H   H162      1.0  0.40786  0.31499  0.61758  1.0000
  Fe  Fe17      1.0  0.36300  0.78924  0.47324  1.0000
  S   S28       1.0  0.37669  0.75431  0.44092  1.0000
  S   S29       1.0  0.30871  0.77759  0.47607  1.0000
  Fe  Fe18      1.0  0.43636  0.84073  0.49713  1.0000
  C   C88       1.0  0.39557  0.68755  0.30182  1.0000
  Fe  Fe19      1.0  0.41993  0.80175  0.41386  1.0000
  H   H163      1.0  0.41272  0.91823  0.37924  1.0000
  H   H164      1.0  0.36202  0.72936  0.19114  1.0000
  S   S30       1.0  0.40366  0.83658  0.44166  1.0000
  H   H165      1.0  0.43593  0.92031  0.49765  1.0000
  H   H166      1.0  0.22544  0.74498  0.27771  1.0000
  Fe  Fe20      1.0  0.36584  0.79507  0.12458  1.0000
  S   S31       1.0  0.41957  0.83590  0.11026  1.0000
  S   S32       1.0  0.34284  0.78671  0.19018  1.0000
  Fe  Fe21      1.0  0.39847  0.84253  0.04896  1.0000
  H   H167      1.0  0.41252  0.66676  0.12419  1.0000
  Fe  Fe22      1.0  0.42221  0.79321  0.07838  1.0000
  H   H168      1.0  0.29321  0.67489  0.23746  1.0000
  S   S33       1.0  0.34365  0.80410  0.06518  1.0000
  S   S34       1.0  0.37006  0.75220  0.09618  1.0000
  H   H169      1.0  0.29935  0.71107  0.45252  1.0000
  H   H170      1.0  0.24807  0.67028  0.18225  1.0000
  C   C89       1.0  0.37035  0.79456  0.23366  1.0000
  C   C90       1.0  0.35758  0.79032  0.27487  1.0000
  C   C91       1.0  0.37841  0.79450  0.30989  1.0000
  C   C92       1.0  0.41244  0.80361  0.30394  1.0000
  C   C93       1.0  0.42549  0.80878  0.26286  1.0000
  C   C94       1.0  0.40449  0.80395  0.22785  1.0000
  H   H171      1.0  0.33159  0.78409  0.27987  1.0000
  H   H172      1.0  0.36818  0.79082  0.34145  1.0000
  H   H173      1.0  0.40399  0.73724  0.18283  1.0000
  H   H174      1.0  0.41473  0.80734  0.19638  1.0000
  H   H175      1.0  0.37117  0.66285  0.29938  1.0000
  C   C95       1.0  0.43620  0.68980  0.11830  1.0000
  C   C96       1.0  0.43608  0.72000  0.10855  1.0000
  S   S35       1.0  0.18838  0.65454  0.37872  1.0000
  C   C97       1.0  0.28616  0.69466  0.23318  1.0000
  Fe  Fe23      1.0  0.35267  0.76429  0.03553  1.0000
  H   H176      1.0  0.41231  0.71988  0.10641  1.0000
  S   S36       1.0  0.40363  0.71258  0.52107  1.0000
  H   H177      1.0  0.24927  0.74045  0.31912  1.0000
  C   C98       1.0  0.22302  0.68782  0.40542  1.0000
  C   C99       1.0  0.22341  0.71854  0.40967  1.0000
  C   C100      1.0  0.25022  0.74595  0.43060  1.0000
  C   C101      1.0  0.27780  0.74356  0.44591  1.0000
  C   C102      1.0  0.27832  0.71326  0.44025  1.0000
  C   C103      1.0  0.25063  0.68515  0.42045  1.0000
  H   H178      1.0  0.20238  0.72091  0.39766  1.0000
  H   H179      1.0  0.24956  0.76917  0.43502  1.0000
  H   H180      1.0  0.42603  0.65134  0.27001  1.0000
  C   C104      1.0  0.25446  0.72135  0.25732  1.0000
  H   H181      1.0  0.21087  0.66034  0.24119  1.0000
  H   H182      1.0  0.37092  0.71549  0.32702  1.0000
  C   C105      1.0  0.22803  0.65964  0.26580  1.0000
  H   H183      1.0  0.45191  0.81625  0.25803  1.0000
  H   H184      1.0  0.26147  0.69989  0.33367  1.0000
  H   H185      1.0  0.43842  0.93290  0.08547  1.0000
  H   H186      1.0  0.31072  0.71909  0.23599  1.0000
  H   H187      1.0  0.38163  0.69382  0.36538  1.0000
  H   H188      1.0  0.26473  0.64855  0.33204  1.0000
  S   S37       1.0  0.43917  0.80772  0.34673  1.0000
  H   H189      1.0  0.25069  0.66158  0.41670  1.0000
  N   N7        1.0  0.26148  0.69281  0.26626  1.0000
  H   H190      1.0  0.21031  0.70391  0.30039  1.0000
  H   H191      1.0  0.15097  0.65942  0.49394  1.0000
  C   C106      1.0  0.27412  0.69199  0.18717  1.0000
  H   H192      1.0  0.25627  0.64092  0.03589  1.0000
  H   H193      1.0  0.38086  0.65456  0.22905  1.0000
  H   H194      1.0  0.30185  0.72478  0.30964  1.0000
  H   H195      1.0  0.27864  0.74583  0.25267  1.0000
  C   C107      1.0  0.27833  0.69932  0.30891  1.0000
  C   C108      1.0  0.17825  0.66823  0.50001  1.0000
  H   H196      1.0  0.30483  0.66972  0.30314  1.0000
  Fe  Fe24      1.0  0.41007  0.76309  0.49774  1.0000
  H   H197      1.0  0.41468  0.73234  0.34365  1.0000
  H   H198      1.0  0.36794  0.69455  0.17885  1.0000
  H   H199      1.0  0.45508  0.66049  0.03431  1.0000
  N   N8        1.0  0.40670  0.70390  0.25895  1.0000
  C   C109      1.0  0.38084  0.71326  0.24415  1.0000
  H   H200      1.0  0.35468  0.69301  0.25293  1.0000
  H   H201      1.0  0.21434  0.65599  0.29611  1.0000
  H   H202      1.0  0.41158  0.68647  0.19698  1.0000
  H   H203      1.0  0.38487  0.73668  0.26018  1.0000
  C   C110      1.0  0.28784  0.67322  0.32486  1.0000
  H   H204      1.0  0.24017  0.71683  0.22725  1.0000
  H   H205      1.0  0.19279  0.69542  0.49117  1.0000
  C   C111      1.0  0.44148  0.73504  0.26358  1.0000
  H   H206      1.0  0.43196  0.90881  0.42196  1.0000
  C   C112      1.0  0.39051  0.70889  0.33584  1.0000
  H   H207      1.0  0.41441  0.68131  0.31522  1.0000
  C   C113      1.0  0.37911  0.71885  0.19649  1.0000
  C   C114      1.0  0.23362  0.72760  0.29087  1.0000
  H   H208      1.0  0.29162  0.68840  0.16622  1.0000
  H   H209      1.0  0.43981  0.75491  0.28200  1.0000
  H   H210      1.0  0.30188  0.68254  0.35510  1.0000
  C   C115      1.0  0.40663  0.67768  0.22995  1.0000
  H   H211      1.0  0.18511  0.65321  0.47899  1.0000
  H   H212      1.0  0.27530  0.71587  0.17685  1.0000
  H   H213      1.0  0.44887  0.95211  0.40453  1.0000
  C   C116      1.0  0.44672  0.94941  0.05825  1.0000
  H   H214      1.0  0.44471  0.89384  0.35020  1.0000
  H   H215      1.0  0.23859  0.66747  0.50147  1.0000
  C   C117      1.0  0.43758  0.92537  0.39413  1.0000
  C   C118      1.0  0.43250  0.66625  0.24043  1.0000
  S   S38       1.0  0.45512  0.80797  0.46742  1.0000
  H   H216      1.0  0.24454  0.71868  0.52160  1.0000
  H   H217      1.0  0.45642  0.73545  0.19639  1.0000
  H   H218      1.0  0.43171  0.64918  0.21495  1.0000
  H   H219      1.0  0.44151  0.70296  0.03174  1.0000
  H   H220      1.0  0.45489  0.77262  0.21268  1.0000
  H   H221      1.0  0.38736  0.65791  0.03022  1.0000
  C   C119      1.0  0.24024  0.71169  0.55550  1.0000
  N   N9        1.0  0.21875  0.67369  0.56057  1.0000
  C   C120      1.0  0.27582  0.72852  0.57606  1.0000
  S   S39       1.0  0.44384  0.66816  0.69228  1.0000
  S   S40       1.0  0.32454  0.72174  0.98710  1.0000
  H   H222      1.0  0.31775  0.66524  0.66274  1.0000
  H   H223      1.0  0.24992  0.78704  0.88305  1.0000
  C   C121      1.0  0.29950  0.64007  0.60307  1.0000
  H   H224      1.0  0.43719  0.64196  0.89607  1.0000
  H   H225      1.0  0.27379  0.76774  0.86865  1.0000
  H   H226      1.0  0.28794  0.78836  0.99611  1.0000
  H   H227      1.0  0.32128  0.86137  0.96198  1.0000
  H   H228      1.0  0.22692  0.72489  0.56738  1.0000
  H   H229      1.0  0.33497  0.64267  0.75739  1.0000
  C   C122      1.0  0.21916  0.67432  0.92310  1.0000
  C   C123      1.0  0.22637  0.69553  0.95843  1.0000
  C   C124      1.0  0.25850  0.71048  0.97837  1.0000
  C   C125      1.0  0.28394  0.70475  0.96273  1.0000
  C   C126      1.0  0.27694  0.68414  0.92689  1.0000
  C   C127      1.0  0.24475  0.66888  0.90730  1.0000
  H   H230      1.0  0.20675  0.69991  0.97085  1.0000
  C   C128      1.0  0.35158  0.64739  0.72964  1.0000
  H   H231      1.0  0.29648  0.67972  0.91429  1.0000
  C   C129      1.0  0.23412  0.65741  0.53401  1.0000
  C   C130      1.0  0.40875  0.65593  0.61675  1.0000
  H   H232      1.0  0.26498  0.77095  0.92330  1.0000
  C   C131      1.0  0.40075  0.66643  0.57880  1.0000
  C   C132      1.0  0.42998  0.68000  0.64635  1.0000
  H   H233      1.0  0.35768  0.67163  0.71422  1.0000
  H   H234      1.0  0.33218  0.78090  0.86766  1.0000
  S   S41       1.0  0.17816  0.65540  0.89941  1.0000
  C   C133      1.0  0.44772  0.70882  0.99806  1.0000
  H   H235      1.0  0.28852  0.82395  0.01967  1.0000
  H   H236      1.0  0.28932  0.75614  0.56883  1.0000
  C   C134      1.0  0.41324  0.70104  0.57038  1.0000
  S   S42       1.0  0.40588  0.80290  0.01591  1.0000
  C   C135      1.0  0.18292  0.66270  0.54689  1.0000
  H   H237      1.0  0.38494  0.64767  0.55562  1.0000
  N   N10       1.0  0.44539  0.67860  0.97558  1.0000
  H   H238      1.0  0.21460  0.67848  0.66966  1.0000
  C   C136      1.0  0.44224  0.71458  0.63816  1.0000
  H   H239      1.0  0.30901  0.66551  0.58867  1.0000
  H   H240      1.0  0.26335  0.72595  0.00617  1.0000
  H   H241      1.0  0.28596  0.64120  0.97891  1.0000
  H   H242      1.0  0.17260  0.67634  0.56523  1.0000
  H   H243      1.0  0.26714  0.80910  0.97066  1.0000
  H   H244      1.0  0.44365  0.75180  0.59436  1.0000
  H   H245      1.0  0.23968  0.65285  0.87999  1.0000
  S   S43       1.0  0.41387  0.89038  0.00887  1.0000
  H   H246      1.0  0.29175  0.71859  0.56310  1.0000
  H   H247      1.0  0.21142  0.70492  0.63142  1.0000
  H   H248      1.0  0.37598  0.65063  0.74184  1.0000
  H   H249      1.0  0.27440  0.72610  0.61084  1.0000
  H   H250      1.0  0.25970  0.66404  0.54602  1.0000
  N   N11       1.0  0.33105  0.82661  0.92602  1.0000
  C   C137      1.0  0.36523  0.85473  0.91082  1.0000
  C   C138      1.0  0.33495  0.79616  0.93446  1.0000
  C   C139      1.0  0.32305  0.83814  0.96677  1.0000
  C   C140      1.0  0.30452  0.81999  0.89285  1.0000
  C   C141      1.0  0.36914  0.89028  0.90662  1.0000
  C   C142      1.0  0.34686  0.78352  0.89667  1.0000
  C   C143      1.0  0.28963  0.81294  0.98890  1.0000
  C   C144      1.0  0.27197  0.78439  0.89279  1.0000
  H   H251      1.0  0.38606  0.85740  0.93196  1.0000
  H   H252      1.0  0.37140  0.84864  0.87928  1.0000
  H   H253      1.0  0.31120  0.77423  0.94602  1.0000
  H   H254      1.0  0.35349  0.80173  0.96050  1.0000
  H   H255      1.0  0.34407  0.84527  0.98984  1.0000
  C   C145      1.0  0.20392  0.67824  0.63805  1.0000
  H   H256      1.0  0.29637  0.83928  0.89496  1.0000
  H   H257      1.0  0.31575  0.82305  0.86085  1.0000
  C   C146      1.0  0.31839  0.64444  0.64515  1.0000
  H   H258      1.0  0.37190  0.90220  0.93799  1.0000
  H   H259      1.0  0.39303  0.90717  0.88930  1.0000
  H   H260      1.0  0.24308  0.66751  0.61654  1.0000
  C   C147      1.0  0.42504  0.72247  0.98094  1.0000
  H   H261      1.0  0.37445  0.80052  0.89066  1.0000
  H   H262      1.0  0.34781  0.88973  0.88896  1.0000
  H   H263      1.0  0.34331  0.75811  0.90416  1.0000
  H   H264      1.0  0.42981  0.74489  0.00006  1.0000
  C   C148      1.0  0.21784  0.66299  0.60567  1.0000
  H   H265      1.0  0.34566  0.65514  0.63648  1.0000
  S   S44       1.0  0.39378  0.79593  0.53171  1.0000
  H   H266      1.0  0.39470  0.65832  0.94936  1.0000
  C   C149      1.0  0.40891  0.65061  0.97099  1.0000
  H   H267      1.0  0.39751  0.70380  0.98396  1.0000
  H   H268      1.0  0.17570  0.66293  0.63977  1.0000
  H   H269      1.0  0.43118  0.73127  0.94790  1.0000
  C   C150      1.0  0.43884  0.93524  0.01782  1.0000
  C   C151      1.0  0.43372  0.72508  0.60051  1.0000
  H   H270      1.0  0.44390  0.94692  0.95146  1.0000
  C   C152      1.0  0.44979  0.95740  0.98291  1.0000
  H   H271      1.0  0.44566  0.69813  0.91328  1.0000
  H   H272      1.0  0.65366  0.24935  0.08372  1.0000
  C   C153      1.0  0.49602  0.19827  0.16559  1.0000
  C   C154      1.0  0.47579  0.00727  0.02865  1.0000
  H   H273      1.0  0.47431  0.09025  0.11872  1.0000
  C   C155      1.0  0.55915  0.28330  0.12308  1.0000
  H   H274      1.0  0.49163  0.25225  0.05627  1.0000
  H   H275      1.0  0.68157  0.17147  0.09909  1.0000
  N   N12       1.0  0.82006  0.28014  0.41402  1.0000
  C   C156      1.0  0.55926  0.24108  0.07533  1.0000
  S   S45       1.0  0.72770  0.26758  0.34588  1.0000
  C   C157      1.0  0.51474  0.25581  0.07088  1.0000
  C   C158      1.0  0.52969  0.23707  0.05625  1.0000
  H   H276      1.0  0.74916  0.22825  0.41370  1.0000
  H   H277      1.0  0.53689  0.99726  0.34745  1.0000
  C   C159      1.0  0.70636  0.25424  0.39499  1.0000
  C   C160      1.0  0.68052  0.22018  0.39964  1.0000
  C   C161      1.0  0.66562  0.20724  0.43922  1.0000
  C   C162      1.0  0.67707  0.22804  0.47484  1.0000
  C   C163      1.0  0.70234  0.26237  0.47007  1.0000
  C   C164      1.0  0.71638  0.27562  0.43017  1.0000
  H   H278      1.0  0.67251  0.20345  0.37264  1.0000
  H   H279      1.0  0.64633  0.18076  0.44246  1.0000
  H   H280      1.0  0.71150  0.27863  0.49745  1.0000
  H   H281      1.0  0.59674  0.26757  0.12378  1.0000
  C   C165      1.0  0.67602  0.25905  0.06219  1.0000
  H   H282      1.0  0.73439  0.27358  0.16488  1.0000
  H   H283      1.0  0.69218  0.28598  0.07122  1.0000
  C   C166      1.0  0.46475  0.98510  0.06355  1.0000
  H   H284      1.0  0.77259  0.20567  0.41797  1.0000
  H   H285      1.0  0.81199  0.22781  0.49798  1.0000
  H   H286      1.0  0.77637  0.27639  0.44731  1.0000
  H   H287      1.0  0.81453  0.24278  0.36746  1.0000
  C   C167      1.0  0.79940  0.25319  0.38178  1.0000
  C   C168      1.0  0.49281  0.11478  0.13358  1.0000
  H   H288      1.0  0.52972  0.18505  0.13527  1.0000
  H   H289      1.0  0.85601  0.28731  0.46318  1.0000
  C   C169      1.0  0.72419  0.25006  0.03944  1.0000
  S   S46       1.0  0.56388  0.14632  0.50044  1.0000
  C   C170      1.0  0.83245  0.26628  0.44871  1.0000
  H   H290      1.0  0.45845  0.10022  0.05683  1.0000
  C   C171      1.0  0.70399  0.24063  0.11362  1.0000
  H   H291      1.0  0.83982  0.24824  0.43553  1.0000
  H   H292      1.0  0.51824  0.22103  0.17943  1.0000
  H   H293      1.0  0.54840  0.14884  0.12566  1.0000
  C   C172      1.0  0.46912  0.97493  0.50034  1.0000
  N   N13       1.0  0.69384  0.23888  0.06801  1.0000
  H   H294      1.0  0.86136  0.28471  0.33786  1.0000
  C   C173      1.0  0.57400  0.26444  0.10861  1.0000
  S   S47       1.0  0.51045  0.04459  0.50229  1.0000
  C   C174      1.0  0.47435  0.14859  0.09020  1.0000
  C   C175      1.0  0.50653  0.17163  0.15521  1.0000
  H   H295      1.0  0.81398  0.26613  0.51281  1.0000
  H   H296      1.0  0.49904  0.16282  0.07328  1.0000
  C   C176      1.0  0.61040  0.26978  0.52280  1.0000
  H   H297      1.0  0.65994  0.15129  0.05172  1.0000
  C   C177      1.0  0.52921  0.27886  0.10453  1.0000
  H   H298      1.0  0.73591  0.30198  0.42698  1.0000
  C   C178      1.0  0.50155  0.00217  0.51088  1.0000
  H   H299      1.0  0.52470  0.13248  0.07694  1.0000
  C   C179      1.0  0.73050  0.27584  0.13071  1.0000
  C   C180      1.0  0.67955  0.17604  0.06518  1.0000
  S   S48       1.0  0.57799  0.21656  0.06038  1.0000
  H   H300      1.0  0.64420  0.19367  0.07676  1.0000
  H   H301      1.0  0.71545  0.22444  0.11949  1.0000
  H   H302      1.0  0.88077  0.28246  0.38712  1.0000
  H   H303      1.0  0.68109  0.23052  0.13426  1.0000
  H   H304      1.0  0.51507  0.16565  0.18533  1.0000
  H   H305      1.0  0.78045  0.23631  0.47848  1.0000
  C   C181      1.0  0.79928  0.29518  0.43010  1.0000
  H   H306      1.0  0.49628  0.10833  0.16640  1.0000
  H   H307      1.0  0.49535  0.99020  0.36241  1.0000
  H   H308      1.0  0.79208  0.26438  0.35528  1.0000
  C   C182      1.0  0.76669  0.22180  0.39752  1.0000
  C   C183      1.0  0.51932  0.99233  0.37417  1.0000
  H   H309      1.0  0.53252  0.10580  0.11039  1.0000
  N   N14       1.0  0.47977  0.13943  0.13411  1.0000
  H   H310      1.0  0.52212  0.25578  0.51342  1.0000
  C   C184      1.0  0.66799  0.20227  0.05819  1.0000
  C   C185      1.0  0.52663  0.12672  0.11031  1.0000
  C   C186      1.0  0.80784  0.24837  0.48596  1.0000
  H   H311      1.0  0.48856  0.20712  0.13722  1.0000
  C   C187      1.0  0.74693  0.28860  0.03117  1.0000
  H   H312      1.0  0.75244  0.20604  0.36990  1.0000
  H   H313      1.0  0.74094  0.24060  0.05154  1.0000
  H   H314      1.0  0.47017  0.99561  0.09500  1.0000
  H   H315      1.0  0.53152  0.01502  0.39498  1.0000
  S   S49       1.0  0.49705  0.05220  0.03760  1.0000
  H   H316      1.0  0.47530  0.18903  0.18918  1.0000
  H   H317      1.0  0.62819  0.29277  0.50486  1.0000
  C   C188      1.0  0.87351  0.29805  0.36768  1.0000
  H   H318      1.0  0.61687  0.24950  0.51802  1.0000
  H   H319      1.0  0.70370  0.18310  0.04867  1.0000
  H   H320      1.0  0.57041  0.30072  0.14918  1.0000
  H   H321      1.0  0.58466  0.25994  0.50895  1.0000
  H   H322      1.0  0.75572  0.28524  0.11577  1.0000
  H   H323      1.0  0.78917  0.30320  0.40315  1.0000
  S   S50       1.0  0.50816  0.30019  0.12351  1.0000
  H   H324      1.0  0.72243  0.29498  0.12798  1.0000
  H   H325      1.0  0.51817  0.21937  0.03047  1.0000
  H   H326      1.0  0.77405  0.29529  0.03203  1.0000
  H   H327      1.0  0.46409  0.16617  0.09115  1.0000
  S   S51       1.0  0.66317  0.21143  0.52617  1.0000
  C   C189      1.0  0.52623  0.99482  0.52549  1.0000
  H   H328      1.0  0.52031  0.05016  0.73146  1.0000
  Fe  Fe25      1.0  0.56706  0.13138  0.62014  1.0000
  S   S52       1.0  0.51776  0.11013  0.58445  1.0000
  S   S53       1.0  0.57229  0.11738  0.68732  1.0000
  H   H329      1.0  0.73024  0.27703  0.82062  1.0000
  S   S54       1.0  0.51232  0.13699  0.98160  1.0000
  Fe  Fe26      1.0  0.54143  0.16131  0.55327  1.0000
  H   H330      1.0  0.51407  0.05621  0.63733  1.0000
  S   S55       1.0  0.59298  0.11584  0.57183  1.0000
  S   S56       1.0  0.58813  0.18369  0.59355  1.0000
  Fe  Fe27      1.0  0.54058  0.14564  0.91983  1.0000
  S   S57       1.0  0.55366  0.10475  0.93147  1.0000
  S   S58       1.0  0.52361  0.15519  0.85639  1.0000
  H   H331      1.0  0.67565  0.28508  0.77374  1.0000
  H   H332      1.0  0.71584  0.27683  0.91700  1.0000
  Fe  Fe28      1.0  0.60096  0.14777  0.96039  1.0000
  S   S59       1.0  0.65301  0.15425  0.95140  1.0000
  Fe  Fe29      1.0  0.52896  0.09863  0.99502  1.0000
  H   H333      1.0  0.55152  0.01541  0.53274  1.0000
  S   S60       1.0  0.58934  0.18874  0.94551  1.0000
  C   C190      1.0  0.55793  0.12802  0.73345  1.0000
  C   C191      1.0  0.54050  0.14606  0.73231  1.0000
  C   C192      1.0  0.52992  0.15411  0.77016  1.0000
  C   C193      1.0  0.53676  0.14430  0.80933  1.0000
  C   C194      1.0  0.55410  0.12621  0.81028  1.0000
  C   C195      1.0  0.56446  0.11800  0.77255  1.0000
  H   H334      1.0  0.53514  0.15376  0.70236  1.0000
  H   H335      1.0  0.51641  0.16803  0.76912  1.0000
  H   H336      1.0  0.55952  0.11846  0.84009  1.0000
  H   H337      1.0  0.57784  0.10395  0.77374  1.0000
  Fe  Fe30      1.0  0.54416  0.09625  0.53488  1.0000
  C   C196      1.0  0.63445  0.27306  0.83979  1.0000
  H   H338      1.0  0.68326  0.26785  0.99348  1.0000
  H   H339      1.0  0.62107  0.26855  0.64953  1.0000
  C   C197      1.0  0.52218  0.27568  0.61671  1.0000
  C   C198      1.0  0.52369  0.27932  0.57293  1.0000
  H   H340      1.0  0.59326  0.25184  0.58553  1.0000
  C   C199      1.0  0.52069  0.22463  0.56540  1.0000
  C   C200      1.0  0.52053  0.22161  0.60924  1.0000
  C   C201      1.0  0.52054  0.24678  0.63483  1.0000
  H   H341      1.0  0.59528  0.21759  0.72337  1.0000
  H   H342      1.0  0.51916  0.19931  0.62333  1.0000
  H   H343      1.0  0.51933  0.24387  0.66871  1.0000
  C   C202      1.0  0.74755  0.25421  0.91339  1.0000
  C   C203      1.0  0.74847  0.22416  0.91787  1.0000
  C   C204      1.0  0.71923  0.19392  0.92935  1.0000
  C   C205      1.0  0.68848  0.19314  0.93607  1.0000
  C   C206      1.0  0.68714  0.22306  0.93128  1.0000
  C   C207      1.0  0.71680  0.25375  0.92029  1.0000
  H   H344      1.0  0.77204  0.22425  0.91255  1.0000
  H   H345      1.0  0.56542  0.04194  0.60689  1.0000
  N   N15       1.0  0.65544  0.23539  0.80368  1.0000
  H   H346      1.0  0.64158  0.23352  0.00849  1.0000
  H   H347      1.0  0.74290  0.29519  0.99879  1.0000
  C   C208      1.0  0.62956  0.21611  0.76972  1.0000
  C   C209      1.0  0.56318  0.02296  0.63049  1.0000
  C   C210      1.0  0.64493  0.17799  0.83425  1.0000
  H   H348      1.0  0.65424  0.24471  0.87010  1.0000
  S   S61       1.0  0.78557  0.29112  0.89870  1.0000
  C   C211      1.0  0.66284  0.25888  0.01733  1.0000
  H   H349      1.0  0.66014  0.19929  0.02456  1.0000
  C   C212      1.0  0.52216  0.25347  0.54734  1.0000
  H   H350      1.0  0.65212  0.27600  0.01624  1.0000
  C   C213      1.0  0.67033  0.21371  0.81725  1.0000
  H   H351      1.0  0.68938  0.22628  0.84268  1.0000
  H   H352      1.0  0.60862  0.19175  0.78218  1.0000
  H   H353      1.0  0.61335  0.21889  0.84732  1.0000
  H   H354      1.0  0.64136  0.20913  0.74371  1.0000
  H   H355      1.0  0.69486  0.26189  0.75708  1.0000
  H   H356      1.0  0.62975  0.16052  0.80846  1.0000
  H   H357      1.0  0.65938  0.16691  0.84899  1.0000
  H   H358      1.0  0.48846  0.98793  0.72118  1.0000
  H   H359      1.0  0.61005  0.26665  0.85536  1.0000
  C   C214      1.0  0.66322  0.27937  0.58378  1.0000
  H   H360      1.0  0.66347  0.22261  0.93653  1.0000
  C   C215      1.0  0.63581  0.29550  0.63881  1.0000
  H   H361      1.0  0.54358  0.00592  0.69341  1.0000
  H   H362      1.0  0.58930  0.03193  0.64258  1.0000
  H   H363      1.0  0.66807  0.27913  0.54951  1.0000
  H   H364      1.0  0.55145  0.04681  0.68002  1.0000
  H   H365      1.0  0.72050  0.17095  0.93295  1.0000
  H   H366      1.0  0.51194  0.02968  0.59578  1.0000
  C   C216      1.0  0.63891  0.24151  0.84129  1.0000
  H   H367      1.0  0.59407  0.23555  0.77246  1.0000
  N   N16       1.0  0.64322  0.29699  0.59228  1.0000
  C   C217      1.0  0.48415  0.00337  0.69748  1.0000
  C   C218      1.0  0.61155  0.23367  0.74968  1.0000
  H   H368      1.0  0.58963  0.29998  0.63986  1.0000
  H   H369      1.0  0.46412  0.03860  0.59104  1.0000
  H   H370      1.0  0.62787  0.17837  0.85888  1.0000
  H   H371      1.0  0.68445  0.21031  0.79079  1.0000
  H   H372      1.0  0.64826  0.25223  0.59351  1.0000
  Fe  Fe31      1.0  0.56280  0.17674  0.00823  1.0000
  H   H373      1.0  0.48990  0.05484  0.69943  1.0000
  C   C219      1.0  0.49983  0.02944  0.62625  1.0000
  C   C220      1.0  0.69855  0.29441  0.60445  1.0000
  C   C221      1.0  0.54020  0.02054  0.66762  1.0000
  H   H374      1.0  0.62941  0.25877  0.73592  1.0000
  N   N17       1.0  0.50305  0.00617  0.65731  1.0000
  C   C222      1.0  0.49374  0.03719  0.71966  1.0000
  C   C223      1.0  0.60925  0.27698  0.57014  1.0000
  C   C224      1.0  0.68423  0.26770  0.78540  1.0000
  S   S62       1.0  0.51823  0.19258  0.53225  1.0000
  H   H375      1.0  0.47646  0.00961  0.96100  1.0000
  H   H376      1.0  0.63356  0.28248  0.80806  1.0000
  H   H377      1.0  0.71569  0.23811  0.00800  1.0000
  H   H378      1.0  0.52480  0.30146  0.55875  1.0000
  H   H379      1.0  0.70592  0.29352  0.84616  1.0000
  H   H380      1.0  0.55457  0.99824  0.61485  1.0000
  S   S63       1.0  0.57819  0.13830  0.02461  1.0000
  C   C225      1.0  0.71434  0.28890  0.81545  1.0000
  Fe  Fe32      1.0  0.61019  0.16711  0.54172  1.0000
  C   C226      1.0  0.46837  0.99308  0.98820  1.0000
  H   H381      1.0  0.47721  0.03186  0.74768  1.0000
  H   H382      1.0  0.59431  0.29017  0.57247  1.0000
  H   H383      1.0  0.69770  0.29492  0.63926  1.0000
  H   H384      1.0  0.65459  0.29419  0.85863  1.0000
  C   C227      1.0  0.46314  0.02052  0.61526  1.0000
  H   H385      1.0  0.70919  0.27784  0.59632  1.0000
  H   H386      1.0  0.49696  0.97298  0.60507  1.0000
  C   C228      1.0  0.48788  0.97134  0.63787  1.0000
  Fe  Fe33      1.0  0.84176  0.38081  0.32917  1.0000
  S   S64       1.0  0.81566  0.33139  0.29329  1.0000
  S   S65       1.0  0.88970  0.39353  0.36785  1.0000
  Fe  Fe34      1.0  0.78262  0.39286  0.30996  1.0000
  S   S66       1.0  0.75318  0.34505  0.27255  1.0000
  S   S67       1.0  0.76166  0.42757  0.32316  1.0000
  H   H387      1.0  0.66255  0.32340  0.41682  1.0000
  Fe  Fe35      1.0  0.80389  0.35962  0.24403  1.0000
  S   S68       1.0  0.80982  0.34796  0.17591  1.0000
  S   S69       1.0  0.79351  0.36807  0.36441  1.0000
  S   S70       1.0  0.83300  0.40981  0.27775  1.0000
  S   S71       1.0  0.59647  0.43287  0.49313  1.0000
  Fe  Fe36      1.0  0.53016  0.34311  0.17192  1.0000
  S   S72       1.0  0.56410  0.39678  0.15005  1.0000
  Fe  Fe37      1.0  0.53557  0.36580  0.26392  1.0000
  S   S73       1.0  0.57070  0.42052  0.24812  1.0000
  S   S74       1.0  0.51723  0.34793  0.33070  1.0000
  Fe  Fe38      1.0  0.53484  0.41175  0.19408  1.0000
  S   S75       1.0  0.52460  0.45526  0.17860  1.0000
  Fe  Fe39      1.0  0.59605  0.40049  0.20604  1.0000
  S   S76       1.0  0.65280  0.42597  0.19739  1.0000
  S   S77       1.0  0.56381  0.34617  0.22560  1.0000
  C   C229      1.0  0.53926  0.37188  0.37568  1.0000
  C   C230      1.0  0.52859  0.35759  0.41594  1.0000
  C   C231      1.0  0.54551  0.37604  0.45240  1.0000
  C   C232      1.0  0.57309  0.40911  0.44878  1.0000
  C   C233      1.0  0.58334  0.42359  0.40855  1.0000
  C   C234      1.0  0.56660  0.40505  0.37217  1.0000
  C   C235      1.0  0.53977  0.46532  0.30357  1.0000
  H   H388      1.0  0.53743  0.36458  0.48319  1.0000
  H   H389      1.0  0.60462  0.44919  0.40549  1.0000
  H   H390      1.0  0.57499  0.41639  0.34145  1.0000
  H   H391      1.0  0.89734  0.32152  0.35856  1.0000
  C   C236      1.0  0.67884  0.42412  0.23726  1.0000
  C   C237      1.0  0.70302  0.45435  0.25646  1.0000
  C   C238      1.0  0.72784  0.45484  0.28321  1.0000
  C   C239      1.0  0.72965  0.42541  0.28969  1.0000
  C   C240      1.0  0.70525  0.39491  0.27092  1.0000
  C   C241      1.0  0.67964  0.39420  0.24508  1.0000
  H   H392      1.0  0.70303  0.47768  0.24994  1.0000
  H   H393      1.0  0.74645  0.47842  0.29783  1.0000
  H   H394      1.0  0.70593  0.37187  0.27659  1.0000
  H   H395      1.0  0.66103  0.37068  0.23053  1.0000
  C   C242      1.0  0.79460  0.39825  0.05887  1.0000
  C   C243      1.0  0.79241  0.40961  0.09922  1.0000
  C   C244      1.0  0.79703  0.39456  0.13555  1.0000
  C   C245      1.0  0.80477  0.36860  0.13162  1.0000
  C   C246      1.0  0.80831  0.35826  0.09121  1.0000
  C   C247      1.0  0.80307  0.37286  0.05497  1.0000
  H   H396      1.0  0.78714  0.43012  0.10239  1.0000
  H   H397      1.0  0.79477  0.40310  0.16654  1.0000
  C   C248      1.0  0.51010  0.43889  0.39908  1.0000
  C   C249      1.0  0.46692  0.50087  0.17146  1.0000
  H   H398      1.0  0.79935  0.33141  0.47478  1.0000
  C   C250      1.0  0.93246  0.42799  0.36373  1.0000
  H   H399      1.0  0.60655  0.33654  0.40516  1.0000
  H   H400      1.0  0.67313  0.32148  0.17046  1.0000
  H   H401      1.0  0.92487  0.45003  0.30778  1.0000
  S   S78       1.0  0.49812  0.35757  0.21198  1.0000
  H   H402      1.0  0.50242  0.45688  0.41113  1.0000
  H   H403      1.0  0.74621  0.44904  0.07347  1.0000
  H   H404      1.0  0.71155  0.47154  0.41731  1.0000
  H   H405      1.0  0.64725  0.35286  0.47094  1.0000
  N   N18       1.0  0.68498  0.38690  0.10138  1.0000
  C   C251      1.0  0.71358  0.41602  0.12513  1.0000
  C   C252      1.0  0.66727  0.35768  0.13182  1.0000
  C   C253      1.0  0.66061  0.39820  0.08623  1.0000
  H   H406      1.0  0.61009  0.35986  0.10977  1.0000
  H   H407      1.0  0.91361  0.51681  0.04104  1.0000
  C   C254      1.0  0.62020  0.36219  0.41931  1.0000
  C   C255      1.0  0.94307  0.45188  0.33118  1.0000
  H   H408      1.0  0.53824  0.48484  0.32227  1.0000
  H   H409      1.0  0.70411  0.42078  0.15512  1.0000
  H   H410      1.0  0.59539  0.34260  0.33915  1.0000
  H   H411      1.0  0.45884  0.39918  0.38824  1.0000
  H   H412      1.0  0.65570  0.36491  0.15777  1.0000
  H   H413      1.0  0.65936  0.41599  0.10928  1.0000
  H   H414      1.0  0.69306  0.38115  0.42119  1.0000
  C   C256      1.0  0.66290  0.33550  0.38628  1.0000
  H   H415      1.0  0.55935  0.46071  0.31809  1.0000
  H   H416      1.0  0.68064  0.33174  0.36592  1.0000
  H   H417      1.0  0.64956  0.42828  0.42391  1.0000
  C   C257      1.0  0.95670  0.43093  0.39377  1.0000
  C   C258      1.0  0.88211  0.46819  0.07107  1.0000
  Fe  Fe40      1.0  0.76711  0.32104  0.32495  1.0000
  H   H418      1.0  0.86981  0.44093  0.06297  1.0000
  C   C259      1.0  0.66841  0.41991  0.41781  1.0000
  C   C260      1.0  0.73248  0.45031  0.10161  1.0000
  H   H419      1.0  0.64541  0.33526  0.11714  1.0000
  H   H420      1.0  0.84244  0.32130  0.36885  1.0000
  H   H421      1.0  0.66480  0.40863  0.33270  1.0000
  C   C261      1.0  0.67722  0.37408  0.39207  1.0000
  C   C262      1.0  0.62012  0.36067  0.32448  1.0000
  C   C263      1.0  0.48887  0.46158  0.17928  1.0000
  C   C264      1.0  0.62571  0.35743  0.46622  1.0000
  H   H422      1.0  0.72208  0.37518  0.07454  1.0000
  C   C265      1.0  0.46541  0.46799  0.29310  1.0000
  H   H423      1.0  0.51250  0.41101  0.29902  1.0000
  C   C266      1.0  0.50591  0.43144  0.29772  1.0000
  H   H424      1.0  0.50735  0.33196  0.41894  1.0000
  H   H425      1.0  0.71881  0.44298  0.38654  1.0000
  C   C267      1.0  0.48296  0.41181  0.36980  1.0000
  H   H426      1.0  0.46474  0.36158  0.28906  1.0000
  N   N19       1.0  0.65181  0.38619  0.39504  1.0000
  H   H427      1.0  0.62764  0.40606  0.35436  1.0000
  H   H428      1.0  0.54953  0.47704  0.27218  1.0000
  C   C268      1.0  0.64188  0.39213  0.35185  1.0000
  H   H429      1.0  0.73338  0.40982  0.13460  1.0000
  H   H430      1.0  0.74426  0.30535  0.05395  1.0000
  H   H431      1.0  0.60928  0.38181  0.06386  1.0000
  C   C269      1.0  0.70041  0.37845  0.06469  1.0000
  H   H432      1.0  0.83548  0.34944  0.44094  1.0000
  H   H433      1.0  0.89100  0.47059  0.10418  1.0000
  H   H434      1.0  0.66983  0.41288  0.05636  1.0000
  H   H435      1.0  0.71533  0.46004  0.09270  1.0000
  C   C270      1.0  0.67623  0.34794  0.03717  1.0000
  C   C271      1.0  0.68966  0.34489  0.15215  1.0000
  H   H436      1.0  0.51298  0.42590  0.42713  1.0000
  H   H437      1.0  0.70321  0.33831  0.12839  1.0000
  H   H438      1.0  0.60142  0.37100  0.41792  1.0000
  C   C272      1.0  0.69923  0.44954  0.39549  1.0000
  H   H439      1.0  0.69135  0.45835  0.36730  1.0000
  C   C273      1.0  0.49420  0.49433  0.17128  1.0000
  H   H440      1.0  0.49050  0.39226  0.36538  1.0000
  H   H441      1.0  0.67785  0.41776  0.44938  1.0000
  H   H442      1.0  0.81479  0.33853  0.08796  1.0000
  H   H443      1.0  0.60233  0.33517  0.47884  1.0000
  H   H444      1.0  0.47158  0.52622  0.16521  1.0000
  H   H445      1.0  0.49779  0.43070  0.26441  1.0000
  H   H446      1.0  0.69550  0.38729  0.36597  1.0000
  H   H447      1.0  0.53551  0.45271  0.38439  1.0000
  C   C274      1.0  0.46531  0.50548  0.05594  1.0000
  C   C275      1.0  0.62312  0.37035  0.07924  1.0000
  H   H448      1.0  0.51972  0.51488  0.16492  1.0000
  H   H449      1.0  0.49225  0.47441  0.35088  1.0000
  H   H450      1.0  0.61393  0.36932  0.29479  1.0000
  N   N20       1.0  0.47716  0.42360  0.32774  1.0000
  H   H451      1.0  0.71255  0.40023  0.04246  1.0000
  H   H452      1.0  0.47052  0.53195  0.05239  1.0000
  H   H453      1.0  0.48265  0.50509  0.08039  1.0000
  H   H454      1.0  0.75203  0.46948  0.12306  1.0000
  H   H455      1.0  0.83287  0.32227  0.48424  1.0000
  H   H456      1.0  0.86272  0.47622  0.07137  1.0000
  H   H457      1.0  0.46421  0.49112  0.30095  1.0000
  H   H458      1.0  0.93616  0.49687  0.05952  1.0000
  H   H459      1.0  0.62019  0.34940  0.05887  1.0000
  C   C276      1.0  0.47115  0.45301  0.33384  1.0000
  C   C277      1.0  0.81821  0.32628  0.45926  1.0000
  H   H460      1.0  0.63445  0.34800  0.31506  1.0000
  H   H461      1.0  0.86768  0.32834  0.41438  1.0000
  H   H462      1.0  0.70816  0.36354  0.17494  1.0000
  C   C278      1.0  0.85058  0.30829  0.39175  1.0000
  H   H463      1.0  0.65718  0.32589  0.05538  1.0000
  H   H464      1.0  0.63763  0.32136  0.37122  1.0000
  H   H465      1.0  0.62986  0.37974  0.48508  1.0000
  H   H466      1.0  0.48649  0.47576  0.27027  1.0000
  H   H467      1.0  0.94887  0.41266  0.41911  1.0000
  C   C279      1.0  0.91260  0.49189  0.04261  1.0000
  Fe  Fe41      1.0  0.84038  0.41757  0.87429  1.0000
  S   S79       1.0  0.80058  0.43149  0.89225  1.0000
  S   S80       1.0  0.89276  0.46317  0.85611  1.0000
  Fe  Fe42      1.0  0.79112  0.34302  0.89597  1.0000
  S   S81       1.0  0.74972  0.35230  0.91688  1.0000
  H   H468      1.0  0.60015  0.50868  0.81454  1.0000
  Fe  Fe43      1.0  0.76221  0.38414  0.85796  1.0000
  S   S82       1.0  0.71275  0.36884  0.82188  1.0000
  Fe  Fe44      1.0  0.79132  0.39825  0.94894  1.0000
  H   H469      1.0  0.55977  0.47281  0.80169  1.0000
  S   S83       1.0  0.80237  0.37257  0.83550  1.0000
  S   S84       1.0  0.83225  0.38643  0.93281  1.0000
  S   S85       1.0  0.52172  0.30666  0.64927  1.0000
  H   H470      1.0  0.65586  0.53666  0.78663  1.0000
  Fe  Fe45      1.0  0.58571  0.41527  0.56135  1.0000
  S   S86       1.0  0.53544  0.39249  0.59553  1.0000
  Fe  Fe46      1.0  0.62582  0.41873  0.64082  1.0000
  S   S87       1.0  0.57923  0.39700  0.68076  1.0000
  S   S88       1.0  0.67894  0.43590  0.66620  1.0000
  Fe  Fe47      1.0  0.55397  0.36059  0.62747  1.0000
  H   H471      1.0  0.68835  0.52706  0.78052  1.0000
  Fe  Fe48      1.0  0.56428  0.43089  0.64637  1.0000
  S   S89       1.0  0.54452  0.45661  0.69122  1.0000
  S   S90       1.0  0.60175  0.37999  0.58934  1.0000
  S   S91       1.0  0.61357  0.45603  0.61030  1.0000
  H   H472      1.0  0.67183  0.33313  0.54317  1.0000
  H   H473      1.0  0.68331  0.50470  0.84725  1.0000
  H   H474      1.0  0.49434  0.37352  0.74197  1.0000
  C   C280      1.0  0.50991  0.48870  0.71707  1.0000
  C   C281      1.0  0.51967  0.47636  0.68230  1.0000
  C   C282      1.0  0.50895  0.47952  0.64206  1.0000
  C   C283      1.0  0.65204  0.46074  0.76370  1.0000
  H   H475      1.0  0.50051  0.57917  0.58650  1.0000
  H   H476      1.0  0.51623  0.47025  0.61498  1.0000
  C   C284      1.0  0.70437  0.38761  0.77784  1.0000
  C   C285      1.0  0.67101  0.37208  0.76163  1.0000
  C   C286      1.0  0.66284  0.38644  0.72738  1.0000
  C   C287      1.0  0.68807  0.41641  0.70875  1.0000
  C   C288      1.0  0.72148  0.43172  0.72461  1.0000
  C   C289      1.0  0.72962  0.41747  0.75904  1.0000
  H   H477      1.0  0.65127  0.34903  0.77604  1.0000
  H   H478      1.0  0.63699  0.37451  0.71570  1.0000
  H   H479      1.0  0.74120  0.45487  0.71036  1.0000
  H   H480      1.0  0.75538  0.42965  0.77112  1.0000
  H   H481      1.0  0.62884  0.34016  0.64367  1.0000
  H   H482      1.0  0.89444  0.42632  0.01507  1.0000
  C   C290      1.0  0.93531  0.47062  0.85286  1.0000
  H   H483      1.0  0.61890  0.47440  0.70214  1.0000
  H   H484      1.0  0.92251  0.41856  0.85982  1.0000
  H   H485      1.0  0.66656  0.51922  0.66494  1.0000
  H   H486      1.0  0.65913  0.30670  0.65829  1.0000
  H   H487      1.0  0.64214  0.44448  0.73509  1.0000
  C   C291      1.0  0.63716  0.49635  0.72173  1.0000
  C   C292      1.0  0.61583  0.31299  0.65259  1.0000
  H   H488      1.0  0.87845  0.45990  0.94470  1.0000
  C   C293      1.0  0.67134  0.51414  0.69774  1.0000
  C   C294      1.0  0.66117  0.33268  0.57486  1.0000
  H   H489      1.0  0.62758  0.51449  0.72113  1.0000
  H   H490      1.0  0.54518  0.61012  0.59165  1.0000
  S   S92       1.0  0.45983  0.59750  0.74355  1.0000
  H   H491      1.0  0.86481  0.50381  0.00674  1.0000
  C   C295      1.0  0.86661  0.49422  0.97541  1.0000
  C   C296      1.0  0.91729  0.44881  0.00176  1.0000
  H   H492      1.0  0.92496  0.41264  0.96551  1.0000
  H   H493      1.0  0.66000  0.42396  0.79802  1.0000
  C   C297      1.0  0.58620  0.48915  0.79010  1.0000
  H   H494      1.0  0.84061  0.48198  0.96166  1.0000
  C   C298      1.0  0.49119  0.36067  0.71125  1.0000
  H   H495      1.0  0.58415  0.50145  0.76104  1.0000
  C   C299      1.0  0.66319  0.51092  0.83956  1.0000
  H   H496      1.0  0.50764  0.37942  0.68737  1.0000
  H   H497      1.0  0.64880  0.44771  0.83185  1.0000
  H   H498      1.0  0.61342  0.31176  0.68745  1.0000
  H   H499      1.0  0.93801  0.49913  0.93936  1.0000
  H   H500      1.0  0.68332  0.49820  0.69541  1.0000
  C   C300      1.0  0.87812  0.46764  0.97773  1.0000
  H   H501      1.0  0.71328  0.37516  0.58178  1.0000
  C   C301      1.0  0.47914  0.50734  0.67155  1.0000
  H   H502      1.0  0.85742  0.44469  0.99332  1.0000
  H   H503      1.0  0.46545  0.36451  0.62330  1.0000
  H   H504      1.0  0.51791  0.48634  0.74838  1.0000
  H   H505      1.0  0.66933  0.53487  0.85600  1.0000
  H   H506      1.0  0.93590  0.52942  0.97177  1.0000
  C   C302      1.0  0.66164  0.51585  0.79171  1.0000
  H   H507      1.0  0.63876  0.49148  0.85331  1.0000
  H   H508      1.0  0.69833  0.35170  0.62936  1.0000
  C   C303      1.0  0.93947  0.50701  0.97288  1.0000
  H   H509      1.0  0.48252  0.51340  0.73885  1.0000
  H   H510      1.0  0.47236  0.40589  0.72060  1.0000
  H   H511      1.0  0.48374  0.59792  0.63769  1.0000
  C   C304      1.0  0.48977  0.50405  0.71180  1.0000
  H   H512      1.0  0.68320  0.37941  0.61280  1.0000
  H   H513      1.0  0.71662  0.31985  0.59163  1.0000
  H   H514      1.0  0.64256  0.34147  0.56952  1.0000
  N   N21       1.0  0.63835  0.48488  0.76609  1.0000
  S   S93       1.0  0.78594  0.41580  0.01409  1.0000
  N   N22       1.0  0.91192  0.47889  0.99876  1.0000
  H   H515      1.0  0.68955  0.53906  0.71180  1.0000
  C   C305      1.0  0.69032  0.36065  0.60172  1.0000
  C   C306      1.0  0.60224  0.46671  0.78235  1.0000
  C   C307      1.0  0.48888  0.49495  0.63679  1.0000
  H   H516      1.0  0.90558  0.43152  0.93558  1.0000
  H   H517      1.0  0.58531  0.44601  0.76021  1.0000
  H   H518      1.0  0.59981  0.45353  0.81257  1.0000
  H   H519      1.0  0.68026  0.47492  0.76016  1.0000
  H   H520      1.0  0.61692  0.41459  0.79878  1.0000
  C   C308      1.0  0.64374  0.43567  0.80055  1.0000
  H   H521      1.0  0.88312  0.51563  0.95429  1.0000
  H   H522      1.0  0.50043  0.34242  0.71559  1.0000
  C   C309      1.0  0.92498  0.43673  0.95998  1.0000
  H   H523      1.0  0.80525  0.36418  0.02407  1.0000
  H   H524      1.0  0.95044  0.45518  0.94738  1.0000
  H   H525      1.0  0.48084  0.49733  0.60550  1.0000
  H   H526      1.0  0.73125  0.31411  0.80098  1.0000
  C   C310      1.0  0.94291  0.44448  0.85582  1.0000
  H   H527      1.0  0.48194  0.40409  0.64886  1.0000
  C   C311      1.0  0.51632  0.63182  0.56239  1.0000
  H   H528      1.0  0.52755  0.59282  0.54187  1.0000
  C   C312      1.0  0.52210  0.60169  0.57187  1.0000
  H   H529      1.0  0.93831  0.45392  0.02401  1.0000
  C   C313      1.0  0.48990  0.62455  0.63409  1.0000
  H   H530      1.0  0.95696  0.52460  0.84479  1.0000
  H   H531      1.0  0.46927  0.62566  0.65165  1.0000
  H   H532      1.0  0.69145  0.33868  0.02040  1.0000
  H   H533      1.0  0.66322  0.35537  0.01337  1.0000
  H   H534      1.0  0.47232  0.49789  0.02628  1.0000
  C   C314      1.0  0.45768  0.38047  0.64131  1.0000
  N   N23       1.0  0.49000  0.63435  0.58866  1.0000
  H   H535      1.0  0.52297  0.63363  0.68819  1.0000
  H   H536      1.0  0.51016  0.63090  0.52827  1.0000
  C   C315      1.0  0.52163  0.90196  0.42598  1.0000
  H   H537      1.0  0.54320  0.91231  0.40373  1.0000
  H   H538      1.0  0.47434  0.89998  0.43533  1.0000
  C   C316      1.0  0.49741  0.74965  0.10237  1.0000
  H   H539      1.0  0.48862  0.76539  0.22889  1.0000
  C   C317      1.0  0.46004  0.92049  0.36171  1.0000
  H   H540      1.0  0.51636  0.87599  0.43382  1.0000
  H   H541      1.0  0.52146  0.72010  0.11431  1.0000
  C   C318      1.0  0.46080  0.75283  0.22287  1.0000
  C   C319      1.0  0.51504  0.92828  0.33955  1.0000
  C   C320      1.0  0.49753  0.71985  0.11270  1.0000
  H   H542      1.0  0.47640  0.88095  0.30844  1.0000
  H   H543      1.0  0.52122  0.77265  0.09589  1.0000
  N   N24       1.0  0.49442  0.92747  0.37719  1.0000
  C   C321      1.0  0.46704  0.68975  0.12042  1.0000
  H   H544      1.0  0.54248  0.93975  0.34755  1.0000
  H   H545      1.0  0.46262  0.93658  0.33397  1.0000
  C   C322      1.0  0.50347  0.89371  0.31832  1.0000
  H   H546      1.0  0.53880  0.96608  0.41028  1.0000
  S   S94       1.0  0.46867  0.78781  0.08402  1.0000
  H   H547      1.0  0.52981  0.91761  0.45511  1.0000
  C   C323      1.0  0.46122  0.94087  0.50497  1.0000
  H   H548      1.0  0.47269  0.87404  0.39405  1.0000
  H   H549      1.0  0.51448  0.94518  0.31457  1.0000
  S   S95       1.0  0.46920  0.65294  0.13157  1.0000
  C   C324      1.0  0.46681  0.74990  0.09999  1.0000
  H   H550      1.0  0.51883  0.89773  0.28945  1.0000
  H   H551      1.0  0.50763  0.87648  0.33904  1.0000
  H   H552      1.0  0.50006  0.96051  0.42949  1.0000
  C   C325      1.0  0.48909  0.89982  0.40760  1.0000
  C   C326      1.0  0.51325  0.96101  0.39983  1.0000
  C   C327      1.0  0.48587  0.93352  0.51960  1.0000
  H   H553      1.0  0.50737  0.68007  0.52006  1.0000
  H   H554      1.0  0.45899  0.68787  0.24165  1.0000
  H   H555      1.0  0.45864  0.72971  0.28314  1.0000
  H   H556      1.0  0.53774  0.95545  0.54113  1.0000
  H   H557      1.0  0.48668  0.71242  0.93430  1.0000
  H   H558      1.0  0.51580  0.69206  0.97315  1.0000
  H   H559      1.0  0.52451  0.68825  0.59932  1.0000
  C   C328      1.0  0.50322  0.68887  0.00405  1.0000
  H   H560      1.0  0.54611  0.65138  0.64056  1.0000
  H   H561      1.0  0.54166  0.65515  0.56648  1.0000
  C   C329      1.0  0.46430  0.66537  0.00117  1.0000
  C   C330      1.0  0.51840  0.96075  0.52983  1.0000
  H   H562      1.0  0.48078  0.92074  0.64485  1.0000
  C   C331      1.0  0.49420  0.68505  0.54602  1.0000
  H   H563      1.0  0.45883  0.73343  0.66079  1.0000
  H   H564      1.0  0.52563  0.67134  0.66764  1.0000
  C   C332      1.0  0.49795  0.67083  0.58858  1.0000
  C   C333      1.0  0.46280  0.66264  0.90556  1.0000
  C   C334      1.0  0.46067  0.68976  0.93236  1.0000
  H   H565      1.0  0.45975  0.95929  0.63506  1.0000
  H   H566      1.0  0.47425  0.73068  0.99772  1.0000
  H   H567      1.0  0.47685  0.65170  0.92139  1.0000
  H   H568      1.0  0.48156  0.67443  0.61152  1.0000
  S   S96       1.0  0.47721  0.89104  0.52686  1.0000
  C   C335      1.0  0.49445  0.94555  0.66150  1.0000
  C   C336      1.0  0.52330  0.64673  0.65851  1.0000
  H   H569      1.0  0.47666  0.67451  0.87591  1.0000
  H   H570      1.0  0.48481  0.94125  0.69425  1.0000
  H   H571      1.0  0.52176  0.95314  0.66159  1.0000
  H   H572      1.0  0.51037  0.71406  0.01741  1.0000
  H   H573      1.0  0.50567  0.71303  0.54874  1.0000
  H   H574      1.0  0.45926  0.64034  0.98915  1.0000
  H   H575      1.0  0.46700  0.67499  0.53784  1.0000
  H   H576      1.0  0.51369  0.67716  0.02571  1.0000
