data_image0
_chemical_formula_structural       FeS2FeS2FeSFeCS2FeS2FeS2FeSFeS3FeS2CHCFeHFeNS2C6H4C6H4CHCH5C2H3C6H12C2SCHNC6HCH13SH2SH2NC2HC2H11CHCHCFeCHCH5CHNC8H20NC8H14CH2CH6CHC2H3CH6CHNH2CHCHC3H6CHC2HCH5C2H4CSCHC4H2CFeS2FeS2FeSFeHS2FeS2FeS2FeSFeS3FeS2H3FeCFeHS2C6H4C6H7CH3C3HCHC6H5C3HCH3CH2NC8H15CH5SHCH4C5H2SHCH6CHCHCH2NH2CH8CH6NHCH4SCH6CH11CNCHCNC5HC2HFeH4CHCH3C3H5CHSCH3CHCHFeS2FeS2FeCFeCS2FeSCFeSCFeSFeS3HC3H4C2HC2H4C2H2C2HCHC6H7C2HCH5CH4SH2CSCH4CH9SCHCHCH3C2H3NHCHC3H2NC2H3CH5C2HCH4NCHCH7CHC2H3SH3CH2CH2CHCH2CSH4CH2C2H2CFeHSFeS2FeHFeCS2FeS2FeSHFeSFeS3HC6H3C3HCHC3HCHCH2C7H4C3NH2CH4C3H6C2HCH3SCHCH4CH13C2HCHCH2CHC2H2CHCH2CH2CH3CH5NH7CHC2NC2HCH4CH2NC3SHC3HNH2NHCH2CHCHCH2C2H4CH2CH5SCH10CH4C2H2CH2FeSHFeSHFeSFeS3FeS2FeH2FeSHS2HFeS2FeSFeSFeS3C6H4C6H5CH2C2H2CHSCHC6H2CHC2H5CHC2H4CH2CHNHCH2CH4CHCHCNCHCH4C2H2CHNC8H20SH7C3H5CHNCHCHCHC2HCSCNH6CH6CH4CH2C2HCHCH8C2H2CHCH6C3H2C2HCHNHCSHCHCHNH4FeS2FeSCFeSFeS3FeS2FeS2FeSHS2HFeSHFeSFeSFeS3C6H4C6H5C2SH9C6H2CHC2HCNH2SC2H4CHCHCH3NC5H5CH2CH2NC8H20NC8H12CH8CHSC2HFeH6SH3C2HCHCHCH3CH3CH2CH2CH2C2HCHNHC2H3C3HFeH6CH5C3H2FeS2FeS2FeSFeS3H2SFeS2FeCFeHS2FeS2FeS2FeSFeHS2C2H2C2HC3H3CH3C2H3C6H4CH2C7H4C6H4NC5H13C4H10SH2C2H3CHCH4NHC3HC3H4CH3CH3CHCH4SHC2H4NH3NC2HCH5CH5SC2HCNC8H16NHCH5CH7CH4S2CHFeCH5CHFeS2FeS2FeSFeS3H2SFeS2FeHFeHS2FeS2FeS2FeHFeHS2HCHNH3CH4C3H4CHC7H4C2H2C6H4C6H4NC8H23CHNH3CH2NH2SCH2C2HSHCH3C3H3CH3CNC4H10CHCH3CH2CH8CHC4HCH2C2HCHCHC5H2CH2CH3SCH2SH3CFeHCHCSCH3C2H7SH2NH2FeS2FeS2FeCFeS3FeS2FeS2FeSFeHS2C3H5CHCH3C6H5C2H2C2NCH5CHC4H3C6HCNC8H20NC8H9SCH9CHC2H3C2SH2C2H7CH7CH3CH4SHCH2C3FeS2FeS2FeSFeHS2FeS2FeS2FeSFeHS2H3CHC2H2CH2CHC6H8CH8C7H2C6H2CHCH3SHC7H6CSCHNH3CH3CHC2HCH2NH3NHCHC2HCHCH2C2HCHCH6C3H3C3HCH12CNH3CH2C3HSHCHCHC2SH3CH2CHCFeS2FeS2FeSHS2CFeS2FeS2FeCFeHS2FeS2FeS2FeHFeCS2C2H3C2HCH2C5HCNHC2HC6H4CHCHC6H4C6H4SHC3HCH3CH2CFeH4CH2CH7NH3CHC2H12NC8H20CHC2H4CHCSC3H2SHC2H2NH2C2H3CHCH3CH3CSCH8CHSH2SH3NCH3C2H4C2H2CH5CHFeS2FeS2FeSCS2CFeS2FeS2FeHFeS3FeS2FeS2FeHFeCS2C2H3C2HCH6CH3CH3C6H4C2H2C6H4C6H4CH5CH2CNH4C2H4CSCH3C2HCHCSHCH9SCH3CH2C2H2N2C4HC3H23NC2HC2HCH6CH5SNH2FeHC2HCH2NCHC2HCH4CHCH3C2H4C3SH2CH5CHC2HC2H2CHCHCH2NHCHFeS2H2SFeCFeS3FeS2FeS2FeCFeS3FeS2FeS2FeSFeCS2HCH3NH2C2H3CHC6H4C6H4C6H5C4H2CH4CHCH2SH3CH13CH3C2H5CHCHCNC8H20C2HCHCH3CHNHC2HCH2C2H4CNC2NH3CH9CH2CH2CSHCH2CH2C3H6CHNCHCH4CH2CHCH3CHCH4FeH2C2HCHCHCSCHFeS2H2SFeHFeS3FeS2FeS2FeSFeS3FeS2FeS2FeHFeHS2H7C3H3CHC6H4C6H4C6H6CH5CH2NC8H23C4H4C2H5CH2C4HC2H6CH4FeCHC2HNH4CHCHCH4CHNCH9C2HC2H4SHC3HNH2CHCSC2H2CHC3HCHC2HCHCH3NCFeS2FeS2FeHFeHS2FeS2FeS2FeCFeHS2H6C6H7CH5C4H3C5H2NCNC8H11CH5SH5C2H2C3H2CSH5CH2CHC2HCH2C2HCH3CH3CH5NH2CHCSH2C2H7CH2C3H2CSH2NCHCH2CH2C2HCH3CHCH4CHCFeS2FeS2FeHFeCS2FeS2FeS2FeHFeS3HCH4C6H5CH3CHCHC5H4C4H3C2H2CH2CH6C2HCH9CH4CHNH11CH2NH4CH6CHCHC4H2C2H4CHCHCH2CNC8H8CHSHC2H5CHCH2NCSCH2CHFeS2FeS2FeSFeS3FeSCFeSCHFeSHSFeS2FeS2FeSFeHS2CH2C2HCH6C6H4C6H4C6H4CH6C3H7CH2CH9CSH4CH2NH4CH5CHCHCHNHCH3CNC5HCHCH3C2H2CHNH2CHCHCH3CNC8H12SH4CH3C2HC5H4SH2CH8NC2H6CHCHCH3C2H3CH10C2H2SCFeH2FeS2FeS2FeSFeS3FeSCFeSFeSFeSHSFeS2FeHSFeSFeHS2C2HCH8NC6H4C6H4C6H4CH2C2HC4H2NC8H11C3H6NC8H19C2NHSH3NHCH5CH2C2H4C2HCH3CH4CNCHCH3CH2CHCHC2H4CH5CHCSH2CH2C3HCHSH13C2H6CFeS2FeS2CSFeSHSFeS2FeSHFeSFeS3FeS2FeS2FeSFeHS2NHCH2CH5C2H2CH2C6H5CH3C6H4C6H3SHNC3HC2H8CH7C2H2C2HCHNH3C4HCH4SHC2HCNHNHCH6CH2CHCH5CH3C4H3FeH3C4H4CH10C2HCH2C2H4CH8C2HC2NH3CHCHSH2CH2C3HC3HC2H6CHC2H3NC2H5FeS2FeS2CSFeSHSFeSCFeSNFeSFeS3FeS2FeS2FeSFeHS2HCH3CHCH3C3HCH2C6H7CHC6H4C6H3CH2CH2CHCHCH4CH3CH7SC2HC2H6C2NH2CH2CH5CHC2HCHC2H3CH2CSHC2H2CHSH7C2NH4C2SH2NC4HC3H8CHCH2CH2CH5CNH2NH4CNH2SFeH3CH3CH4C2H2C2H2CH5C2H9CHFeS2FeS2FeSFeS3FeS2FeSHFeSFeS3C3HC2H5NC2H6NHC6H4CH4C4HCH3C6H4NC8H20NHC5HCHCH2C2SHC2H4CH2CHCHC3HCH2CH5CH3NCH3C2H3C2HCH9C2H4CH6CHSCHCFeS2FeS2FeSFeS3FeS2FeSHFeSFeS3C6H4C2NSC2H4CHC6H6C2H2CHCH2CH3C5H4C4HCH4NC2SHCHCH10NC8H14C3H4C2H2C2HCHNH10CH4C2HCHCHC2H3C2H2CHCH6CHCHCH3CH4CH6CHCH6CH4FeSHFeS2FeSFeS3FeS2FeS2FeSFeS3FeSHFeS2FeSHS2HCHCH4C6H4C6H5C6H4C2H4SH4CHC2H10CHCH2NC8H20NH2CH3CHNHSH6CH2NH6C2HC2H2CHC2H4C4HC4H2NC4HC2H2CH5CH3C4H2CHCSHCH6C2H2C2H4FeCH4CH3C2HCFe2SHFeS2FeSFeS3FeS2FeS2FeSFeS3FeSCFeS2FeSHS2H2CHC2H2C6H4C6H4C7H4C2H3C4H10CHCH2NC8H20NC6HCH3SHCH6CH7NC8H22SHC2H7C2H3C3SNH2C2HCHCNHCHCH3NC2H13C2H4C2H4C3H8SC5
_chemical_formula_sum              "Fe256 S512 C1792 H3072 N128"
_cell_length_a       78.1806
_cell_length_b       78.4994
_cell_length_c       47.7315
_cell_angle_alpha    89.4713
_cell_angle_beta     89.5615
_cell_angle_gamma    87.9393

_space_group_name_H-M_alt    "P 1"
_space_group_IT_number       1

loop_
  _space_group_symop_operation_xyz
  'x, y, z'

loop_
  _atom_site_type_symbol
  _atom_site_label
  _atom_site_symmetry_multiplicity
  _atom_site_fract_x
  _atom_site_fract_y
  _atom_site_fract_z
  _atom_site_occupancy
  Fe  Fe1       1.0  0.03487  0.08188  0.32402  1.0000
  S   S1        1.0  0.00685  0.08483  0.31278  1.0000
  S   S2        1.0  0.05080  0.10630  0.32412  1.0000
  Fe  Fe2       1.0  0.03148  0.04286  0.33331  1.0000
  S   S3        1.0  0.00384  0.04351  0.32137  1.0000
  S   S4        1.0  0.04652  0.01797  0.34266  1.0000
  Fe  Fe3       1.0  0.01114  0.06140  0.28631  1.0000
  S   S5        1.0  0.00645  0.05732  0.23928  1.0000
  Fe  Fe4       1.0  0.00188  0.06678  0.34901  1.0000
  C   C1        1.0  0.99343  0.06992  0.43221  1.0000
  S   S6        1.0  0.03931  0.05912  0.29648  1.0000
  S   S7        1.0  0.02940  0.06547  0.36228  1.0000
  Fe  Fe5       1.0  0.16526  0.18882  0.26902  1.0000
  S   S8        1.0  0.15115  0.21408  0.26291  1.0000
  S   S9        1.0  0.19377  0.19461  0.26339  1.0000
  Fe  Fe6       1.0  0.13064  0.17051  0.27900  1.0000
  S   S10       1.0  0.11519  0.19510  0.27313  1.0000
  S   S11       1.0  0.11881  0.14369  0.28169  1.0000
  Fe  Fe7       1.0  0.13281  0.20032  0.23642  1.0000
  S   S12       1.0  0.12379  0.20742  0.19197  1.0000
  Fe  Fe8       1.0  0.13521  0.20686  0.30043  1.0000
  S   S13       1.0  0.13010  0.22861  0.33184  1.0000
  S   S14       1.0  0.14737  0.17525  0.24078  1.0000
  S   S15       1.0  0.15008  0.18214  0.30809  1.0000
  Fe  Fe9       1.0  0.15090  0.26514  0.05522  1.0000
  S   S16       1.0  0.15356  0.29313  0.04585  1.0000
  S   S17       1.0  0.15440  0.25936  0.10212  1.0000
  C   C2        1.0  0.08899  0.24326  0.41699  1.0000
  H   H1        1.0  0.01301  0.01240  0.36842  1.0000
  C   C3        1.0  0.08421  0.24429  0.38565  1.0000
  Fe  Fe10      1.0  0.17060  0.28476  0.00976  1.0000
  H   H2        1.0  0.08155  0.23271  0.42618  1.0000
  Fe  Fe11      1.0  0.13129  0.29096  0.01687  1.0000
  N   N1        1.0  0.08632  0.25947  0.43366  1.0000
  S   S18       1.0  0.16940  0.25709  0.02094  1.0000
  S   S19       1.0  0.12790  0.26313  0.02761  1.0000
  C   C4        1.0  0.14543  0.24488  0.12659  1.0000
  C   C5        1.0  0.14930  0.24652  0.15519  1.0000
  C   C6        1.0  0.14275  0.23525  0.17549  1.0000
  C   C7        1.0  0.13223  0.22215  0.16740  1.0000
  C   C8        1.0  0.12809  0.22071  0.13887  1.0000
  C   C9        1.0  0.13468  0.23196  0.11855  1.0000
  H   H3        1.0  0.15749  0.25655  0.16172  1.0000
  H   H4        1.0  0.14579  0.23672  0.19739  1.0000
  H   H5        1.0  0.11986  0.21070  0.13241  1.0000
  H   H6        1.0  0.13156  0.23051  0.09668  1.0000
  C   C10       1.0  0.13365  0.22910  0.36860  1.0000
  C   C11       1.0  0.13367  0.24497  0.38217  1.0000
  C   C12       1.0  0.13579  0.24598  0.41146  1.0000
  C   C13       1.0  0.13732  0.23106  0.42768  1.0000
  C   C14       1.0  0.13739  0.21522  0.41412  1.0000
  C   C15       1.0  0.13575  0.21423  0.38476  1.0000
  H   H7        1.0  0.13211  0.25655  0.36985  1.0000
  H   H8        1.0  0.13586  0.25826  0.42151  1.0000
  H   H9        1.0  0.13861  0.20360  0.42642  1.0000
  H   H10       1.0  0.13567  0.20193  0.37469  1.0000
  C   C16       1.0  0.99269  0.06097  0.18652  1.0000
  H   H11       1.0  0.08577  0.23134  0.37649  1.0000
  C   C17       1.0  0.18890  0.22595  0.46214  1.0000
  H   H12       1.0  0.18343  0.22906  0.11427  1.0000
  H   H13       1.0  0.17264  0.22382  0.42635  1.0000
  H   H14       1.0  0.10956  0.25477  0.45706  1.0000
  H   H15       1.0  0.21614  0.23556  0.40998  1.0000
  H   H16       1.0  0.00696  0.12369  0.19085  1.0000
  C   C18       1.0  0.21308  0.18514  0.24974  1.0000
  C   C19       1.0  0.02071  0.00071  0.37016  1.0000
  H   H17       1.0  0.23285  0.18623  0.33852  1.0000
  H   H18       1.0  0.16521  0.27330  0.40196  1.0000
  H   H19       1.0  0.09400  0.25965  0.11472  1.0000
  C   C20       1.0  0.09924  0.13398  0.29241  1.0000
  C   C21       1.0  0.08679  0.14231  0.30914  1.0000
  C   C22       1.0  0.07207  0.13371  0.31827  1.0000
  C   C23       1.0  0.06932  0.11671  0.31060  1.0000
  C   C24       1.0  0.08153  0.10853  0.29322  1.0000
  C   C25       1.0  0.09639  0.11702  0.28451  1.0000
  H   H20       1.0  0.08867  0.15529  0.31555  1.0000
  H   H21       1.0  0.06280  0.14028  0.33164  1.0000
  H   H22       1.0  0.07967  0.09558  0.28672  1.0000
  H   H23       1.0  0.10584  0.11040  0.27154  1.0000
  H   H24       1.0  0.10706  0.04423  0.40769  1.0000
  H   H25       1.0  0.10285  0.29980  0.41821  1.0000
  H   H26       1.0  0.07074  0.24866  0.38237  1.0000
  H   H27       1.0  0.09479  0.26825  0.47450  1.0000
  H   H28       1.0  0.08268  0.30140  0.07559  1.0000
  H   H29       1.0  0.18863  0.21715  0.37495  1.0000
  H   H30       1.0  0.23438  0.14711  0.23823  1.0000
  H   H31       1.0  0.19666  0.16334  0.18463  1.0000
  C   C26       1.0  0.17534  0.27499  0.41778  1.0000
  C   C27       1.0  0.03735  0.99997  0.35910  1.0000
  S   S20       1.0  0.19618  0.29777  0.00437  1.0000
  C   C28       1.0  0.10134  0.26793  0.10034  1.0000
  H   H32       1.0  0.18649  0.28087  0.40784  1.0000
  N   N2        1.0  0.18555  0.19652  0.16392  1.0000
  C   C29       1.0  0.17134  0.18847  0.18033  1.0000
  C   C30       1.0  0.19540  0.20730  0.18373  1.0000
  C   C31       1.0  0.19764  0.18325  0.15139  1.0000
  C   C32       1.0  0.17776  0.20702  0.14041  1.0000
  C   C33       1.0  0.16104  0.17517  0.16464  1.0000
  C   C34       1.0  0.18608  0.22375  0.19393  1.0000
  H   H33       1.0  0.10642  0.26949  0.40752  1.0000
  C   C35       1.0  0.09560  0.25682  0.46105  1.0000
  H   H34       1.0  0.17626  0.18231  0.19993  1.0000
  H   H35       1.0  0.16181  0.19836  0.18761  1.0000
  H   H36       1.0  0.20800  0.21076  0.17478  1.0000
  H   H37       1.0  0.19872  0.19989  0.20292  1.0000
  H   H38       1.0  0.19116  0.17577  0.13514  1.0000
  H   H39       1.0  0.20829  0.18944  0.14003  1.0000
  H   H40       1.0  0.17114  0.19876  0.12545  1.0000
  H   H41       1.0  0.16732  0.21572  0.14805  1.0000
  H   H42       1.0  0.15420  0.18079  0.14632  1.0000
  H   H43       1.0  0.16907  0.16393  0.15832  1.0000
  H   H44       1.0  0.18352  0.23294  0.17656  1.0000
  H   H45       1.0  0.17402  0.22103  0.20519  1.0000
  H   H46       1.0  0.11017  0.29761  0.07399  1.0000
  S   S21       1.0  0.10619  0.30761  0.01716  1.0000
  H   H47       1.0  0.06548  0.30495  0.09944  1.0000
  H   H48       1.0  0.09294  0.25248  0.37353  1.0000
  S   S22       1.0  0.13870  0.23149  0.46486  1.0000
  H   H49       1.0  0.21427  0.16113  0.16078  1.0000
  H   H50       1.0  0.98652  0.02128  0.20260  1.0000
  N   N3        1.0  0.10465  0.28486  0.11364  1.0000
  C   C36       1.0  0.11451  0.28136  0.14035  1.0000
  C   C37       1.0  0.11613  0.29478  0.09446  1.0000
  H   H51       1.0  0.07001  0.27977  0.47447  1.0000
  C   C38       1.0  0.10638  0.26911  0.16173  1.0000
  C   C39       1.0  0.99244  0.07012  0.46177  1.0000
  H   H52       1.0  0.12760  0.27607  0.13560  1.0000
  H   H53       1.0  0.99860  0.98660  0.31736  1.0000
  H   H54       1.0  0.06110  0.26527  0.41713  1.0000
  H   H55       1.0  0.12785  0.28695  0.08919  1.0000
  H   H56       1.0  0.11369  0.26086  0.09599  1.0000
  H   H57       1.0  0.07845  0.28544  0.12877  1.0000
  H   H58       1.0  0.09078  0.25532  0.06448  1.0000
  H   H59       1.0  0.11333  0.26975  0.18190  1.0000
  H   H60       1.0  0.09273  0.27248  0.16599  1.0000
  H   H61       1.0  0.10781  0.25565  0.15488  1.0000
  H   H62       1.0  0.10256  0.23858  0.41783  1.0000
  C   C40       1.0  0.08811  0.29443  0.12081  1.0000
  H   H63       1.0  0.99690  0.98657  0.44975  1.0000
  C   C41       1.0  0.07961  0.30541  0.09720  1.0000
  H   H64       1.0  0.99699  0.10610  0.20934  1.0000
  C   C42       1.0  0.21452  0.28962  0.98592  1.0000
  Fe  Fe12      1.0  0.14653  0.25742  0.99206  1.0000
  C   C43       1.0  0.19025  0.21735  0.12231  1.0000
  H   H65       1.0  0.22177  0.27340  0.05298  1.0000
  C   C44       1.0  0.22995  0.29829  0.98749  1.0000
  H   H66       1.0  0.00392  0.05362  0.17975  1.0000
  H   H67       1.0  0.18638  0.23179  0.34652  1.0000
  H   H68       1.0  0.99998  0.98518  0.28028  1.0000
  H   H69       1.0  0.99636  0.10888  0.26495  1.0000
  H   H70       1.0  0.22932  0.26066  0.39881  1.0000
  C   C45       1.0  0.01413  0.98640  0.38408  1.0000
  H   H71       1.0  0.06103  0.25073  0.44495  1.0000
  N   N4        1.0  0.08478  0.06445  0.36359  1.0000
  C   C46       1.0  0.08390  0.06889  0.33273  1.0000
  C   C47       1.0  0.07707  0.07951  0.37928  1.0000
  C   C48       1.0  0.07435  0.04883  0.36849  1.0000
  C   C49       1.0  0.10331  0.06086  0.37079  1.0000
  C   C50       1.0  0.08843  0.05429  0.31217  1.0000
  C   C51       1.0  0.08700  0.09612  0.37712  1.0000
  C   C52       1.0  0.06757  0.04555  0.39843  1.0000
  C   C53       1.0  0.10761  0.05796  0.40199  1.0000
  H   H72       1.0  0.07081  0.07381  0.32712  1.0000
  H   H73       1.0  0.09265  0.07931  0.32736  1.0000
  H   H74       1.0  0.07559  0.07684  0.40196  1.0000
  H   H75       1.0  0.06377  0.08246  0.37193  1.0000
  H   H76       1.0  0.06278  0.04941  0.35506  1.0000
  H   H77       1.0  0.08166  0.03705  0.36200  1.0000
  H   H78       1.0  0.10827  0.04920  0.35993  1.0000
  H   H79       1.0  0.11162  0.07100  0.36245  1.0000
  H   H80       1.0  0.07930  0.04380  0.31370  1.0000
  H   H81       1.0  0.08753  0.05938  0.29041  1.0000
  H   H82       1.0  0.10170  0.04913  0.31488  1.0000
  H   H83       1.0  0.08784  0.10103  0.35537  1.0000
  H   H84       1.0  0.08000  0.10619  0.38931  1.0000
  H   H85       1.0  0.10000  0.09460  0.38613  1.0000
  H   H86       1.0  0.07771  0.04506  0.41439  1.0000
  H   H87       1.0  0.06149  0.03295  0.39893  1.0000
  H   H88       1.0  0.05739  0.05508  0.40439  1.0000
  H   H89       1.0  0.00395  0.12545  0.24339  1.0000
  H   H90       1.0  0.09940  0.06554  0.41650  1.0000
  H   H91       1.0  0.12080  0.06217  0.40589  1.0000
  N   N5        1.0  0.03320  0.10748  0.22617  1.0000
  C   C54       1.0  0.05036  0.09800  0.22815  1.0000
  C   C55       1.0  0.03689  0.12615  0.22311  1.0000
  C   C56       1.0  0.02440  0.10143  0.20022  1.0000
  C   C57       1.0  0.02289  0.10357  0.25215  1.0000
  C   C58       1.0  0.05011  0.07839  0.22657  1.0000
  C   C59       1.0  0.04672  0.13384  0.24767  1.0000
  C   C60       1.0  0.00672  0.10968  0.19352  1.0000
  C   C61       1.0  0.00790  0.11620  0.25982  1.0000
  H   H92       1.0  0.05923  0.10225  0.21127  1.0000
  H   H93       1.0  0.05676  0.10087  0.24824  1.0000
  H   H94       1.0  0.02516  0.13422  0.22013  1.0000
  H   H95       1.0  0.04451  0.12838  0.20366  1.0000
  H   H96       1.0  0.03275  0.10318  0.18145  1.0000
  H   H97       1.0  0.02206  0.08754  0.20172  1.0000
  H   H98       1.0  0.01749  0.09071  0.25065  1.0000
  H   H99       1.0  0.03135  0.10283  0.27084  1.0000
  H   H100      1.0  0.04819  0.07410  0.20475  1.0000
  H   H101      1.0  0.06266  0.07284  0.23350  1.0000
  H   H102      1.0  0.04015  0.07306  0.24028  1.0000
  H   H103      1.0  0.06036  0.12937  0.24779  1.0000
  H   H104      1.0  0.04669  0.14793  0.24519  1.0000
  H   H105      1.0  0.04084  0.13103  0.26833  1.0000
  C   C62       1.0  0.21607  0.16749  0.24828  1.0000
  H   H106      1.0  0.00226  0.10452  0.17332  1.0000
  H   H107      1.0  0.20231  0.22812  0.46812  1.0000
  C   C63       1.0  0.23205  0.16078  0.23864  1.0000
  H   H108      1.0  0.19511  0.20972  0.10426  1.0000
  H   H109      1.0  0.20130  0.22191  0.13404  1.0000
  H   H110      1.0  0.21471  0.17711  0.18693  1.0000
  H   H111      1.0  0.15096  0.17041  0.17892  1.0000
  H   H112      1.0  0.13215  0.30974  0.12206  1.0000
  H   H113      1.0  0.17009  0.28431  0.43329  1.0000
  C   C64       1.0  0.98901  0.01960  0.46309  1.0000
  H   H114      1.0  0.18011  0.23467  0.47398  1.0000
  C   C65       1.0  0.06730  0.26251  0.43765  1.0000
  C   C66       1.0  0.17986  0.25805  0.43311  1.0000
  H   H115      1.0  0.16735  0.25331  0.44063  1.0000
  H   H116      1.0  0.18690  0.26129  0.45239  1.0000
  H   H117      1.0  0.09660  0.27649  0.05648  1.0000
  C   C67       1.0  0.09096  0.26843  0.07304  1.0000
  H   H118      1.0  0.07744  0.27251  0.07699  1.0000
  H   H119      1.0  0.20624  0.15901  0.25520  1.0000
  H   H120      1.0  0.00574  0.06998  0.42175  1.0000
  H   H121      1.0  0.09295  0.22931  0.46934  1.0000
  H   H122      1.0  0.21280  0.24746  0.44006  1.0000
  H   H123      1.0  0.20944  0.26622  0.38369  1.0000
  C   C68       1.0  0.09813  0.29017  0.43332  1.0000
  H   H124      1.0  0.11649  0.29338  0.15185  1.0000
  N   N6        1.0  0.18961  0.24439  0.41673  1.0000
  H   H125      1.0  0.00577  0.01950  0.42627  1.0000
  H   H126      1.0  0.01095  0.12324  0.27915  1.0000
  C   C69       1.0  0.19167  0.23022  0.36800  1.0000
  H   H127      1.0  0.05873  0.28910  0.44496  1.0000
  C   C70       1.0  0.22607  0.19592  0.24067  1.0000
  H   H128      1.0  0.20570  0.23153  0.36627  1.0000
  C   C71       1.0  0.20613  0.17059  0.17243  1.0000
  C   C72       1.0  0.20863  0.24683  0.41798  1.0000
  C   C73       1.0  0.18610  0.22734  0.43016  1.0000
  H   H129      1.0  0.19437  0.23010  0.20916  1.0000
  H   H130      1.0  0.10856  0.28779  0.44858  1.0000
  H   H131      1.0  0.16920  0.24185  0.38703  1.0000
  H   H132      1.0  0.18461  0.25628  0.37595  1.0000
  H   H133      1.0  0.22389  0.20960  0.24157  1.0000
  H   H134      1.0  0.19428  0.21698  0.42072  1.0000
  C   C74       1.0  0.09403  0.27387  0.41721  1.0000
  H   H135      1.0  0.18598  0.21283  0.46919  1.0000
  C   C75       1.0  0.08971  0.24175  0.47925  1.0000
  C   C76       1.0  0.18320  0.24394  0.38702  1.0000
  H   H136      1.0  0.08559  0.27791  0.39947  1.0000
  C   C77       1.0  0.21553  0.26295  0.40392  1.0000
  H   H137      1.0  0.21440  0.27400  0.41827  1.0000
  H   H138      1.0  0.00065  0.01291  0.47178  1.0000
  H   H139      1.0  0.23048  0.30958  0.00024  1.0000
  H   H140      1.0  0.00409  0.07035  0.47383  1.0000
  H   H141      1.0  0.09022  0.30342  0.13829  1.0000
  C   C78       1.0  0.99063  0.06495  0.21511  1.0000
  C   C79       1.0  0.06123  0.27715  0.45714  1.0000
  H   H142      1.0  0.00135  0.98719  0.39290  1.0000
  H   H143      1.0  0.04909  0.27369  0.46765  1.0000
  H   H144      1.0  0.08695  0.29613  0.44411  1.0000
  H   H145      1.0  0.98955  0.03266  0.47187  1.0000
  C   C80       1.0  0.99194  0.02164  0.43116  1.0000
  S   S23       1.0  0.14068  0.28146  0.47714  1.0000
  C   C81       1.0  0.21985  0.29855  0.46828  1.0000
  H   H146      1.0  0.21674  0.31172  0.46300  1.0000
  C   C82       1.0  0.12210  0.31186  0.10597  1.0000
  C   C83       1.0  0.20746  0.28869  0.48171  1.0000
  C   C84       1.0  0.04713  0.98463  0.36160  1.0000
  C   C85       1.0  0.22789  0.26451  0.48091  1.0000
  H   H147      1.0  0.06004  0.98393  0.35323  1.0000
  H   H148      1.0  0.98821  0.03473  0.42407  1.0000
  C   C86       1.0  0.23544  0.27652  0.05546  1.0000
  Fe  Fe13      1.0  0.03739  0.08130  0.82523  1.0000
  S   S24       1.0  0.00969  0.08609  0.81364  1.0000
  S   S25       1.0  0.05149  0.10682  0.82607  1.0000
  Fe  Fe14      1.0  0.03130  0.04232  0.83154  1.0000
  S   S26       1.0  0.00360  0.04519  0.81958  1.0000
  S   S27       1.0  0.04424  0.01576  0.83655  1.0000
  Fe  Fe15      1.0  0.01229  0.06325  0.78568  1.0000
  S   S28       1.0  0.00836  0.06250  0.73794  1.0000
  Fe  Fe16      1.0  0.00338  0.06780  0.84877  1.0000
  H   H149      1.0  0.13814  0.29963  0.60266  1.0000
  S   S29       1.0  0.04026  0.05910  0.79590  1.0000
  S   S30       1.0  0.03080  0.06423  0.86221  1.0000
  Fe  Fe17      1.0  0.16682  0.18834  0.77608  1.0000
  S   S31       1.0  0.15320  0.21336  0.76612  1.0000
  S   S32       1.0  0.19569  0.19223  0.78139  1.0000
  Fe  Fe18      1.0  0.13201  0.16979  0.78137  1.0000
  S   S33       1.0  0.11685  0.19412  0.77176  1.0000
  S   S34       1.0  0.12094  0.14284  0.78707  1.0000
  Fe  Fe19      1.0  0.13655  0.19871  0.73773  1.0000
  S   S35       1.0  0.12964  0.20450  0.69175  1.0000
  Fe  Fe20      1.0  0.13508  0.20675  0.80124  1.0000
  S   S36       1.0  0.12818  0.22858  0.83155  1.0000
  S   S37       1.0  0.15102  0.17380  0.74581  1.0000
  S   S38       1.0  0.14929  0.18229  0.81260  1.0000
  Fe  Fe21      1.0  0.14618  0.26563  0.55439  1.0000
  S   S39       1.0  0.14673  0.29344  0.54148  1.0000
  S   S40       1.0  0.15050  0.26112  0.60148  1.0000
  H   H150      1.0  0.00219  0.13029  0.87332  1.0000
  H   H151      1.0  0.22793  0.22404  0.83064  1.0000
  H   H152      1.0  0.98891  0.01614  0.60482  1.0000
  Fe  Fe22      1.0  0.16341  0.28419  0.50537  1.0000
  C   C87       1.0  0.99365  0.06417  0.68570  1.0000
  Fe  Fe23      1.0  0.12397  0.28829  0.51468  1.0000
  H   H153      1.0  0.20179  0.17682  0.68555  1.0000
  S   S41       1.0  0.16435  0.25697  0.51992  1.0000
  S   S42       1.0  0.12268  0.26085  0.52909  1.0000
  C   C88       1.0  0.14427  0.24533  0.62620  1.0000
  C   C89       1.0  0.14900  0.24702  0.65445  1.0000
  C   C90       1.0  0.14442  0.23485  0.67491  1.0000
  C   C91       1.0  0.13503  0.22079  0.66734  1.0000
  C   C92       1.0  0.13015  0.21921  0.63916  1.0000
  C   C93       1.0  0.13473  0.23137  0.61870  1.0000
  H   H154      1.0  0.15633  0.25779  0.66054  1.0000
  H   H155      1.0  0.14819  0.23630  0.69649  1.0000
  H   H156      1.0  0.12291  0.20837  0.63304  1.0000
  H   H157      1.0  0.13098  0.22986  0.59712  1.0000
  C   C94       1.0  0.13269  0.22997  0.86804  1.0000
  C   C95       1.0  0.13686  0.21556  0.88444  1.0000
  C   C96       1.0  0.14037  0.21727  0.91326  1.0000
  C   C97       1.0  0.13993  0.23337  0.92609  1.0000
  C   C98       1.0  0.13584  0.24779  0.90967  1.0000
  C   C99       1.0  0.13214  0.24606  0.88091  1.0000
  H   H158      1.0  0.13719  0.20308  0.87498  1.0000
  H   H159      1.0  0.14340  0.20601  0.92574  1.0000
  H   H160      1.0  0.13538  0.26025  0.91917  1.0000
  H   H161      1.0  0.12884  0.25729  0.86850  1.0000
  H   H162      1.0  0.20833  0.23632  0.83051  1.0000
  H   H163      1.0  0.22798  0.25849  0.94064  1.0000
  H   H164      1.0  0.07962  0.27961  0.63255  1.0000
  C   C100      1.0  0.19312  0.18187  0.66878  1.0000
  H   H165      1.0  0.09317  0.27771  0.55642  1.0000
  H   H166      1.0  0.16755  0.17487  0.65405  1.0000
  H   H167      1.0  0.01676  0.11506  0.85623  1.0000
  C   C101      1.0  0.21393  0.17162  0.74329  1.0000
  C   C102      1.0  0.21406  0.18547  0.76150  1.0000
  C   C103      1.0  0.02290  0.99927  0.87445  1.0000
  H   H168      1.0  0.20232  0.16470  0.74081  1.0000
  C   C104      1.0  0.13401  0.30406  0.62372  1.0000
  H   H169      1.0  0.01562  0.01123  0.87586  1.0000
  C   C105      1.0  0.10152  0.13314  0.79841  1.0000
  C   C106      1.0  0.08691  0.14263  0.80701  1.0000
  C   C107      1.0  0.07193  0.13433  0.81564  1.0000
  C   C108      1.0  0.07113  0.11640  0.81570  1.0000
  C   C109      1.0  0.08572  0.10687  0.80712  1.0000
  C   C110      1.0  0.10072  0.11519  0.79855  1.0000
  H   H170      1.0  0.08720  0.15640  0.80713  1.0000
  H   H171      1.0  0.06082  0.14193  0.82222  1.0000
  H   H172      1.0  0.08548  0.09310  0.80709  1.0000
  H   H173      1.0  0.11188  0.10763  0.79207  1.0000
  H   H174      1.0  0.99841  0.10300  0.95560  1.0000
  C   C111      1.0  0.02219  0.13157  0.92183  1.0000
  C   C112      1.0  0.09613  0.30985  0.62389  1.0000
  C   C113      1.0  0.07643  0.31218  0.62585  1.0000
  H   H175      1.0  0.03833  0.09823  0.88337  1.0000
  C   C114      1.0  0.02558  0.10188  0.94130  1.0000
  H   H176      1.0  0.19151  0.19787  0.71570  1.0000
  H   H177      1.0  0.00560  0.06329  0.92138  1.0000
  H   H178      1.0  0.06954  0.30465  0.61043  1.0000
  C   C115      1.0  0.03733  0.99812  0.85695  1.0000
  H   H179      1.0  0.09667  0.24168  0.49942  1.0000
  H   H180      1.0  0.09124  0.28510  0.66260  1.0000
  N   N7        1.0  0.05200  0.10826  0.73233  1.0000
  C   C116      1.0  0.06850  0.11750  0.73564  1.0000
  C   C117      1.0  0.05444  0.09105  0.74638  1.0000
  C   C118      1.0  0.03813  0.11840  0.74763  1.0000
  C   C119      1.0  0.04812  0.10708  0.70146  1.0000
  C   C120      1.0  0.06833  0.13631  0.72592  1.0000
  C   C121      1.0  0.06972  0.07991  0.73564  1.0000
  C   C122      1.0  0.02014  0.11105  0.74803  1.0000
  C   C123      1.0  0.03649  0.09259  0.69235  1.0000
  H   H181      1.0  0.07252  0.11733  0.75788  1.0000
  H   H182      1.0  0.07917  0.11099  0.72390  1.0000
  H   H183      1.0  0.04298  0.08324  0.74471  1.0000
  H   H184      1.0  0.05621  0.09258  0.76936  1.0000
  H   H185      1.0  0.04189  0.12031  0.76985  1.0000
  H   H186      1.0  0.03633  0.13137  0.73834  1.0000
  H   H187      1.0  0.04224  0.11933  0.69362  1.0000
  H   H188      1.0  0.06026  0.10507  0.68935  1.0000
  H   H189      1.0  0.06106  0.14467  0.74078  1.0000
  H   H190      1.0  0.08168  0.14076  0.72589  1.0000
  H   H191      1.0  0.06331  0.13808  0.70440  1.0000
  H   H192      1.0  0.07028  0.07940  0.71247  1.0000
  H   H193      1.0  0.08200  0.08446  0.74383  1.0000
  H   H194      1.0  0.06846  0.06667  0.74364  1.0000
  H   H195      1.0  0.01999  0.09788  0.75645  1.0000
  C   C124      1.0  0.18155  0.20321  0.61851  1.0000
  H   H196      1.0  0.01176  0.11892  0.76210  1.0000
  H   H197      1.0  0.02887  0.09698  0.67393  1.0000
  H   H198      1.0  0.02718  0.08843  0.70823  1.0000
  H   H199      1.0  0.04429  0.08138  0.68498  1.0000
  H   H200      1.0  0.16534  0.20401  0.65510  1.0000
  S   S43       1.0  0.14510  0.23466  0.96236  1.0000
  H   H201      1.0  0.02221  0.13933  0.90220  1.0000
  C   C125      1.0  0.00892  0.10758  0.89930  1.0000
  H   H202      1.0  0.19738  0.17965  0.86080  1.0000
  H   H203      1.0  0.20517  0.23791  0.89624  1.0000
  H   H204      1.0  0.00981  0.09364  0.89511  1.0000
  H   H205      1.0  0.01180  0.11824  0.97224  1.0000
  C   C126      1.0  0.12106  0.29197  0.63721  1.0000
  C   C127      1.0  0.03588  0.13928  0.94050  1.0000
  C   C128      1.0  0.18521  0.20596  0.69922  1.0000
  C   C129      1.0  0.08965  0.28277  0.57739  1.0000
  C   C130      1.0  0.09941  0.26135  0.64359  1.0000
  H   H206      1.0  0.17132  0.20355  0.70187  1.0000
  H   H207      1.0  0.11350  0.29474  0.58125  1.0000
  S   S44       1.0  0.18668  0.29792  0.48845  1.0000
  H   H208      1.0  0.04133  0.12045  0.88124  1.0000
  C   C131      1.0  0.18749  0.22472  0.70726  1.0000
  H   H209      1.0  0.21899  0.20124  0.70527  1.0000
  H   H210      1.0  0.18207  0.18924  0.61528  1.0000
  H   H211      1.0  0.03779  0.10324  0.95253  1.0000
  H   H212      1.0  0.22982  0.19086  0.67644  1.0000
  H   H213      1.0  0.19162  0.19480  0.90335  1.0000
  H   H214      1.0  0.21299  0.20406  0.64228  1.0000
  C   C132      1.0  0.17629  0.17233  0.67190  1.0000
  H   H215      1.0  0.23475  0.26994  0.84973  1.0000
  C   C133      1.0  0.22326  0.20292  0.68336  1.0000
  H   H216      1.0  0.22252  0.23686  0.86036  1.0000
  C   C134      1.0  0.09279  0.28009  0.64091  1.0000
  H   H217      1.0  0.99468  0.11069  0.86062  1.0000
  H   H218      1.0  0.18315  0.21832  0.81908  1.0000
  N   N8        1.0  0.02446  0.11289  0.91522  1.0000
  H   H219      1.0  0.18384  0.31014  0.94425  1.0000
  H   H220      1.0  0.21005  0.21752  0.91133  1.0000
  C   C135      1.0  0.01141  0.10522  0.96353  1.0000
  H   H221      1.0  0.01421  0.11176  0.72701  1.0000
  H   H222      1.0  0.16299  0.21420  0.83615  1.0000
  H   H223      1.0  0.18484  0.24205  0.85981  1.0000
  H   H224      1.0  0.19256  0.23455  0.94320  1.0000
  H   H225      1.0  0.98716  0.03009  0.51848  1.0000
  H   H226      1.0  0.10171  0.25527  0.62299  1.0000
  H   H227      1.0  0.16867  0.23065  0.87561  1.0000
  H   H228      1.0  0.21821  0.20515  0.86830  1.0000
  C   C136      1.0  0.21398  0.27513  0.96914  1.0000
  H   H229      1.0  0.17571  0.17613  0.87088  1.0000
  H   H230      1.0  0.08958  0.25385  0.65459  1.0000
  H   H231      1.0  0.16771  0.23495  0.82232  1.0000
  H   H232      1.0  0.19323  0.20893  0.60983  1.0000
  H   H233      1.0  0.19943  0.17772  0.64888  1.0000
  H   H234      1.0  0.04673  0.14383  0.92761  1.0000
  N   N9        1.0  0.10368  0.29179  0.62363  1.0000
  H   H235      1.0  0.17651  0.23932  0.91787  1.0000
  C   C137      1.0  0.17843  0.20802  0.64944  1.0000
  H   H236      1.0  0.17999  0.19033  0.84249  1.0000
  H   H237      1.0  0.06759  0.10658  0.89399  1.0000
  H   H238      1.0  0.98658  0.99857  0.50732  1.0000
  H   H239      1.0  0.00367  0.06335  0.97346  1.0000
  S   S45       1.0  0.09827  0.30347  0.50889  1.0000
  C   C138      1.0  0.10609  0.28558  0.59398  1.0000
  H   H240      1.0  0.02552  0.08812  0.93563  1.0000
  H   H241      1.0  0.01347  0.09618  0.98136  1.0000
  H   H242      1.0  0.00933  0.13459  0.93111  1.0000
  H   H243      1.0  0.11976  0.29541  0.65977  1.0000
  H   H244      1.0  0.22969  0.20481  0.77878  1.0000
  H   H245      1.0  0.11390  0.27344  0.59364  1.0000
  C   C139      1.0  0.05748  0.10677  0.91054  1.0000
  H   H246      1.0  0.17151  0.20308  0.89183  1.0000
  H   H247      1.0  0.20505  0.20520  0.83857  1.0000
  H   H248      1.0  0.08142  0.27325  0.58744  1.0000
  H   H249      1.0  0.20117  0.22756  0.70991  1.0000
  H   H250      1.0  0.20774  0.22240  0.66146  1.0000
  H   H251      1.0  0.11112  0.26004  0.65653  1.0000
  H   H252      1.0  0.12746  0.27914  0.63698  1.0000
  H   H253      1.0  0.17929  0.15838  0.67237  1.0000
  H   H254      1.0  0.08240  0.29491  0.57349  1.0000
  H   H255      1.0  0.20221  0.26837  0.96764  1.0000
  H   H256      1.0  0.23083  0.25121  0.48554  1.0000
  C   C140      1.0  0.22863  0.26956  0.95385  1.0000
  N   N10       1.0  0.19136  0.20102  0.67022  1.0000
  C   C141      1.0  0.03993  0.10973  0.89646  1.0000
  H   H257      1.0  0.05836  0.09413  0.92118  1.0000
  C   C142      1.0  0.01811  0.98507  0.89068  1.0000
  N   N11       1.0  0.19311  0.21689  0.87559  1.0000
  C   C143      1.0  0.19957  0.22546  0.90149  1.0000
  C   C144      1.0  0.20837  0.21305  0.85681  1.0000
  C   C145      1.0  0.18494  0.20053  0.88478  1.0000
  C   C146      1.0  0.18013  0.22888  0.86192  1.0000
  C   C147      1.0  0.18608  0.22938  0.92463  1.0000
  H   H258      1.0  0.23275  0.21312  0.68388  1.0000
  C   C148      1.0  0.18454  0.18599  0.86328  1.0000
  C   C149      1.0  0.17319  0.22353  0.83341  1.0000
  H   H259      1.0  0.03004  0.15028  0.95206  1.0000
  Fe  Fe24      1.0  0.14086  0.25462  0.49324  1.0000
  H   H260      1.0  0.17770  0.22218  0.64998  1.0000
  H   H261      1.0  0.22887  0.15538  0.71530  1.0000
  H   H262      1.0  0.04083  0.13047  0.95696  1.0000
  H   H263      1.0  0.16953  0.17550  0.69174  1.0000
  C   C150      1.0  0.21173  0.27170  0.48853  1.0000
  H   H264      1.0  0.99695  0.10972  0.91166  1.0000
  C   C151      1.0  0.21714  0.22866  0.84416  1.0000
  H   H265      1.0  0.00643  0.06096  0.67810  1.0000
  H   H266      1.0  0.17940  0.21791  0.93191  1.0000
  H   H267      1.0  0.06057  0.11690  0.92538  1.0000
  C   C152      1.0  0.00572  0.11659  0.87081  1.0000
  C   C153      1.0  0.99378  0.06735  0.93164  1.0000
  C   C154      1.0  0.20852  0.20824  0.66339  1.0000
  H   H268      1.0  0.98997  0.02831  0.69682  1.0000
  H   H269      1.0  0.18112  0.22714  0.72779  1.0000
  H   H270      1.0  0.18158  0.23373  0.69184  1.0000
  H   H271      1.0  0.20249  0.26400  0.49924  1.0000
  H   H272      1.0  0.17065  0.20849  0.60593  1.0000
  C   C155      1.0  0.22941  0.19411  0.76473  1.0000
  H   H273      1.0  0.07177  0.30896  0.64722  1.0000
  S   S46       1.0  0.14852  0.28498  0.97934  1.0000
  C   C156      1.0  0.22904  0.16633  0.72889  1.0000
  H   H274      1.0  0.14574  0.30387  0.63672  1.0000
  H   H275      1.0  0.00711  0.98627  0.90451  1.0000
  H   H276      1.0  0.02514  0.98403  0.78484  1.0000
  C   C157      1.0  0.99262  0.06731  0.96121  1.0000
  H   H277      1.0  0.98915  0.01561  0.65588  1.0000
  C   C158      1.0  0.99080  0.06597  0.71473  1.0000
  H   H278      1.0  0.07586  0.24284  0.48432  1.0000
  Fe  Fe25      1.0  0.02809  0.42721  0.08341  1.0000
  S   S47       1.0  0.00190  0.41705  0.07596  1.0000
  S   S48       1.0  0.02501  0.45395  0.10272  1.0000
  Fe  Fe26      1.0  0.04584  0.39239  0.06526  1.0000
  S   S49       1.0  0.02055  0.38063  0.05700  1.0000
  S   S50       1.0  0.07259  0.37914  0.05942  1.0000
  Fe  Fe27      1.0  0.01289  0.40577  0.03622  1.0000
  C   C159      1.0  0.04129  0.61306  0.27189  1.0000
  Fe  Fe28      1.0  0.01166  0.39315  0.09763  1.0000
  C   C160      1.0  0.09717  0.32715  0.03106  1.0000
  S   S51       1.0  0.03871  0.41710  0.04255  1.0000
  S   S52       1.0  0.03739  0.40360  0.10690  1.0000
  Fe  Fe29      1.0  0.02239  0.56758  0.18482  1.0000
  S   S53       1.0  0.05052  0.56634  0.17348  1.0000
  C   C161      1.0  0.02382  0.50583  0.01828  1.0000
  Fe  Fe30      1.0  0.01230  0.57416  0.12272  1.0000
  S   S54       1.0  0.03970  0.57411  0.10839  1.0000
  C   C162      1.0  0.00376  0.43050  0.20991  1.0000
  Fe  Fe31      1.0  0.04278  0.55080  0.13632  1.0000
  S   S55       1.0  0.05703  0.52705  0.11935  1.0000
  Fe  Fe32      1.0  0.04504  0.58977  0.14701  1.0000
  S   S56       1.0  0.05893  0.61548  0.14788  1.0000
  S   S57       1.0  0.01527  0.55038  0.14948  1.0000
  S   S58       1.0  0.01697  0.59148  0.15949  1.0000
  H   H279      1.0  0.06666  0.43485  0.48228  1.0000
  C   C163      1.0  0.07742  0.62440  0.16348  1.0000
  C   C164      1.0  0.09085  0.61436  0.17492  1.0000
  C   C165      1.0  0.07871  0.64228  0.16405  1.0000
  H   H280      1.0  0.03990  0.39464  0.19658  1.0000
  H   H281      1.0  0.99423  0.36874  0.19179  1.0000
  H   H282      1.0  0.00088  0.49190  0.00613  1.0000
  H   H283      1.0  0.99605  0.45383  0.14638  1.0000
  C   C166      1.0  0.14843  0.33344  0.00072  1.0000
  C   C167      1.0  0.98684  0.57282  0.99659  1.0000
  H   H284      1.0  0.03821  0.38817  0.99927  1.0000
  C   C168      1.0  0.03165  0.42119  0.19028  1.0000
  C   C169      1.0  0.00851  0.42900  0.15844  1.0000
  H   H285      1.0  0.98853  0.51616  0.02499  1.0000
  H   H286      1.0  0.05625  0.64342  0.25348  1.0000
  H   H287      1.0  0.00129  0.50626  0.06484  1.0000
  H   H288      1.0  0.07684  0.61293  0.22890  1.0000
  C   C170      1.0  0.08152  0.35865  0.04952  1.0000
  C   C171      1.0  0.07147  0.34542  0.04033  1.0000
  H   H289      1.0  0.04839  0.57978  0.25591  1.0000
  H   H290      1.0  0.04873  0.61348  0.29169  1.0000
  C   C172      1.0  0.10719  0.34007  0.04149  1.0000
  C   C173      1.0  0.09943  0.35573  0.05028  1.0000
  H   H291      1.0  0.05770  0.34716  0.04035  1.0000
  C   C174      1.0  0.00137  0.56877  0.25600  1.0000
  H   H292      1.0  0.10738  0.36574  0.05764  1.0000
  C   C175      1.0  0.03456  0.47396  0.10738  1.0000
  C   C176      1.0  0.02583  0.48632  0.12385  1.0000
  C   C177      1.0  0.03264  0.50249  0.12806  1.0000
  C   C178      1.0  0.04827  0.50657  0.11571  1.0000
  C   C179      1.0  0.05709  0.49415  0.09945  1.0000
  C   C180      1.0  0.05027  0.47795  0.09522  1.0000
  H   H293      1.0  0.01367  0.48340  0.13335  1.0000
  H   H294      1.0  0.02577  0.51182  0.14080  1.0000
  H   H295      1.0  0.06924  0.49713  0.08993  1.0000
  H   H296      1.0  0.05717  0.46858  0.08260  1.0000
  H   H297      1.0  0.00590  0.38393  0.45804  1.0000
  H   H298      1.0  0.03586  0.59388  0.21996  1.0000
  H   H299      1.0  0.12722  0.64888  0.11944  1.0000
  C   C181      1.0  0.04329  0.60572  0.22070  1.0000
  C   C182      1.0  0.00227  0.56249  0.28371  1.0000
  H   H300      1.0  0.01289  0.58091  0.99738  1.0000
  C   C183      1.0  0.00755  0.52973  0.08410  1.0000
  H   H301      1.0  0.07068  0.38861  0.99782  1.0000
  H   H302      1.0  0.07094  0.58289  0.21500  1.0000
  H   H303      1.0  0.99098  0.56280  0.32535  1.0000
  H   H304      1.0  0.09024  0.60062  0.17457  1.0000
  H   H305      1.0  0.01837  0.42928  0.14161  1.0000
  C   C184      1.0  0.07339  0.58094  0.23762  1.0000
  H   H306      1.0  0.00409  0.41581  0.15852  1.0000
  H   H307      1.0  0.13826  0.34321  0.99580  1.0000
  H   H308      1.0  0.06386  0.58853  0.27815  1.0000
  H   H309      1.0  0.08255  0.31907  0.09953  1.0000
  S   S59       1.0  0.00269  0.41261  0.99240  1.0000
  H   H310      1.0  0.02310  0.50770  0.07223  1.0000
  H   H311      1.0  0.99375  0.45160  0.23599  1.0000
  C   C185      1.0  0.06798  0.61771  0.24558  1.0000
  S   S60       1.0  0.01739  0.56191  0.23148  1.0000
  C   C186      1.0  0.99302  0.52130  0.43696  1.0000
  H   H312      1.0  0.01703  0.60927  0.29354  1.0000
  H   H313      1.0  0.07440  0.56697  0.24157  1.0000
  H   H314      1.0  0.04554  0.52213  0.06060  1.0000
  H   H315      1.0  0.99308  0.53769  0.03042  1.0000
  C   C187      1.0  0.10669  0.63997  0.18670  1.0000
  H   H316      1.0  0.05262  0.60450  0.20311  1.0000
  H   H317      1.0  0.98923  0.53043  0.31665  1.0000
  H   H318      1.0  0.98923  0.43597  0.12768  1.0000
  H   H319      1.0  0.01706  0.61617  0.21501  1.0000
  H   H320      1.0  0.02922  0.53928  0.00988  1.0000
  H   H321      1.0  0.99645  0.41881  0.20627  1.0000
  H   H322      1.0  0.03611  0.50187  0.02851  1.0000
  H   H323      1.0  0.03219  0.62425  0.19105  1.0000
  H   H324      1.0  0.00397  0.38366  0.40602  1.0000
  S   S61       1.0  0.99936  0.37870  0.13411  1.0000
  C   C188      1.0  0.02539  0.60251  0.27798  1.0000
  H   H325      1.0  0.00716  0.34779  0.00689  1.0000
  C   C189      1.0  0.99833  0.52580  0.02066  1.0000
  H   H326      1.0  0.03406  0.47091  0.20932  1.0000
  C   C190      1.0  0.04474  0.53272  0.04527  1.0000
  H   H327      1.0  0.04163  0.42352  0.17397  1.0000
  H   H328      1.0  0.01878  0.53761  0.08804  1.0000
  H   H329      1.0  0.01209  0.37547  0.98759  1.0000
  C   C191      1.0  0.99287  0.38752  0.41838  1.0000
  C   C192      1.0  0.18488  0.34565  0.99087  1.0000
  H   H330      1.0  0.03781  0.42343  0.21079  1.0000
  H   H331      1.0  0.02534  0.39750  0.16846  1.0000
  H   H332      1.0  0.15562  0.33708  0.01954  1.0000
  N   N12       1.0  0.05261  0.60668  0.24820  1.0000
  H   H333      1.0  0.03185  0.45230  0.16656  1.0000
  C   C193      1.0  0.03040  0.62053  0.21337  1.0000
  H   H334      1.0  0.02890  0.58986  0.28724  1.0000
  C   C194      1.0  0.10533  0.62209  0.18631  1.0000
  C   C195      1.0  0.07925  0.32994  0.03079  1.0000
  C   C196      1.0  0.04604  0.37815  0.98813  1.0000
  H   H335      1.0  0.02065  0.47984  0.00435  1.0000
  H   H336      1.0  0.02491  0.45458  0.23052  1.0000
  N   N13       1.0  0.01630  0.43320  0.18617  1.0000
  C   C197      1.0  0.99402  0.38770  0.44790  1.0000
  C   C198      1.0  0.03224  0.45696  0.21101  1.0000
  H   H337      1.0  0.07547  0.61720  0.26538  1.0000
  H   H338      1.0  0.12092  0.33818  0.04230  1.0000
  H   H339      1.0  0.01258  0.55360  0.28949  1.0000
  C   C199      1.0  0.02686  0.53549  0.03203  1.0000
  H   H340      1.0  0.00277  0.51075  0.43501  1.0000
  H   H341      1.0  0.01765  0.60078  0.25897  1.0000
  H   H342      1.0  0.11569  0.61411  0.19467  1.0000
  H   H343      1.0  0.02844  0.35229  0.01629  1.0000
  H   H344      1.0  0.98715  0.58529  0.22773  1.0000
  C   C200      1.0  0.06456  0.63663  0.23804  1.0000
  C   C201      1.0  0.02818  0.40193  0.18988  1.0000
  H   H345      1.0  0.04521  0.45082  0.21255  1.0000
  C   C202      1.0  0.00197  0.57740  0.00996  1.0000
  H   H346      1.0  0.14165  0.32167  0.00621  1.0000
  H   H347      1.0  0.03660  0.62637  0.26857  1.0000
  H   H348      1.0  0.01466  0.58173  0.04936  1.0000
  H   H349      1.0  0.07697  0.64311  0.23778  1.0000
  N   N14       1.0  0.01529  0.52056  0.03360  1.0000
  C   C203      1.0  0.05901  0.58888  0.25623  1.0000
  H   H350      1.0  0.08599  0.58615  0.24281  1.0000
  C   C204      1.0  0.99053  0.44515  0.21620  1.0000
  H   H351      1.0  0.11142  0.31984  0.11471  1.0000
  H   H352      1.0  0.99147  0.52695  0.41567  1.0000
  H   H353      1.0  0.98870  0.45481  0.19947  1.0000
  H   H354      1.0  0.02751  0.50963  0.99661  1.0000
  H   H355      1.0  0.12797  0.31921  0.08860  1.0000
  H   H356      1.0  0.01773  0.39842  0.20441  1.0000
  H   H357      1.0  0.01261  0.46074  0.18039  1.0000
  C   C205      1.0  0.01202  0.51519  0.06355  1.0000
  H   H358      1.0  0.01077  0.42797  0.22984  1.0000
  C   C206      1.0  0.00303  0.57785  0.03947  1.0000
  C   C207      1.0  0.02287  0.45104  0.18470  1.0000
  H   H359      1.0  0.05938  0.63815  0.21657  1.0000
  H   H360      1.0  0.02063  0.54709  0.04133  1.0000
  H   H361      1.0  0.03148  0.63227  0.22562  1.0000
  S   S62       1.0  0.12561  0.64889  0.20097  1.0000
  H   H362      1.0  0.01120  0.48392  0.03781  1.0000
  H   H363      1.0  0.05462  0.53014  0.02885  1.0000
  H   H364      1.0  0.04818  0.54431  0.05690  1.0000
  C   C208      1.0  0.98892  0.57373  0.05608  1.0000
  H   H365      1.0  0.17871  0.35305  0.00824  1.0000
  H   H366      1.0  0.00374  0.52416  0.10459  1.0000
  C   C209      1.0  0.02017  0.34978  0.99819  1.0000
  H   H367      1.0  0.98751  0.48574  0.46813  1.0000
  H   H368      1.0  0.99779  0.53140  0.45065  1.0000
  C   C210      1.0  0.01332  0.48959  0.01672  1.0000
  H   H369      1.0  0.04943  0.36870  0.00466  1.0000
  C   C211      1.0  0.99844  0.52913  0.98873  1.0000
  H   H370      1.0  0.02428  0.33770  0.98783  1.0000
  H   H371      1.0  0.98981  0.52533  0.26931  1.0000
  C   C212      1.0  0.99003  0.56765  0.30410  1.0000
  S   S63       1.0  0.98910  0.57528  0.09331  1.0000
  H   H372      1.0  0.99664  0.53797  0.07684  1.0000
  H   H373      1.0  0.05294  0.34265  0.98931  1.0000
  H   H374      1.0  0.20495  0.36332  0.00026  1.0000
  H   H375      1.0  0.00130  0.50181  0.47960  1.0000
  C   C213      1.0  0.98802  0.58031  0.24890  1.0000
  H   H376      1.0  0.07129  0.32001  0.02315  1.0000
  H   H377      1.0  0.18838  0.33300  0.00034  1.0000
  C   C214      1.0  0.99306  0.44022  0.14877  1.0000
  C   C215      1.0  0.20207  0.35398  0.98373  1.0000
  H   H378      1.0  0.98660  0.53758  0.23817  1.0000
  H   H379      1.0  0.21277  0.34426  0.98440  1.0000
  C   C216      1.0  0.98580  0.37970  0.18776  1.0000
  Fe  Fe33      1.0  0.02317  0.42106  0.55901  1.0000
  H   H380      1.0  0.09677  0.60199  0.77445  1.0000
  S   S64       1.0  0.02886  0.44900  0.55023  1.0000
  Fe  Fe34      1.0  0.03355  0.38300  0.56550  1.0000
  S   S65       1.0  0.00592  0.37533  0.56988  1.0000
  S   S66       1.0  0.05817  0.36588  0.57119  1.0000
  Fe  Fe35      1.0  0.00085  0.39351  0.53349  1.0000
  H   H381      1.0  0.05025  0.61558  0.72362  1.0000
  Fe  Fe36      1.0  0.00222  0.39813  0.59827  1.0000
  C   C217      1.0  0.04531  0.35644  0.94955  1.0000
  S   S67       1.0  0.02849  0.40004  0.52762  1.0000
  S   S68       1.0  0.03003  0.40485  0.59653  1.0000
  Fe  Fe37      1.0  0.02000  0.55892  0.68656  1.0000
  S   S69       1.0  0.04686  0.54932  0.67680  1.0000
  S   S70       1.0  0.01602  0.55807  0.73431  1.0000
  Fe  Fe38      1.0  0.01308  0.56438  0.62344  1.0000
  S   S71       1.0  0.03960  0.55526  0.61063  1.0000
  H   H382      1.0  0.01228  0.60321  0.56873  1.0000
  Fe  Fe39      1.0  0.03557  0.53416  0.64215  1.0000
  S   S72       1.0  0.04372  0.50584  0.64090  1.0000
  Fe  Fe40      1.0  0.04860  0.57132  0.64667  1.0000
  S   S73       1.0  0.07363  0.58610  0.64396  1.0000
  S   S74       1.0  0.00862  0.54246  0.65352  1.0000
  S   S75       1.0  0.02227  0.58177  0.65774  1.0000
  H   H383      1.0  0.07039  0.43891  0.54623  1.0000
  C   C218      1.0  0.08215  0.60523  0.65764  1.0000
  C   C219      1.0  0.09987  0.60776  0.65526  1.0000
  C   C220      1.0  0.10737  0.62231  0.66662  1.0000
  C   C221      1.0  0.09725  0.63468  0.68059  1.0000
  C   C222      1.0  0.07946  0.63229  0.68252  1.0000
  C   C223      1.0  0.07194  0.61779  0.67100  1.0000
  H   H384      1.0  0.10796  0.59825  0.64486  1.0000
  H   H385      1.0  0.19870  0.31961  0.92097  1.0000
  H   H386      1.0  0.05828  0.61630  0.67261  1.0000
  C   C224      1.0  0.01909  0.36468  0.97703  1.0000
  C   C225      1.0  0.04397  0.60588  0.55195  1.0000
  C   C226      1.0  0.00208  0.56382  0.50962  1.0000
  H   H387      1.0  0.01577  0.56059  0.54875  1.0000
  C   C227      1.0  0.06833  0.43038  0.52817  1.0000
  H   H388      1.0  0.07484  0.40433  0.60034  1.0000
  C   C228      1.0  0.00384  0.56463  0.53903  1.0000
  C   C229      1.0  0.06911  0.34862  0.55319  1.0000
  C   C230      1.0  0.06207  0.34041  0.53027  1.0000
  H   H389      1.0  0.05516  0.61209  0.54258  1.0000
  C   C231      1.0  0.07736  0.40459  0.50299  1.0000
  H   H390      1.0  0.99401  0.49783  0.52811  1.0000
  C   C232      1.0  0.08550  0.34300  0.56235  1.0000
  H   H391      1.0  0.04953  0.34449  0.52284  1.0000
  H   H392      1.0  0.15155  0.35755  0.94685  1.0000
  C   C233      1.0  0.99900  0.56343  0.75798  1.0000
  C   C234      1.0  0.03303  0.46465  0.57565  1.0000
  C   C235      1.0  0.04239  0.46067  0.59983  1.0000
  C   C236      1.0  0.04595  0.47356  0.61907  1.0000
  C   C237      1.0  0.03980  0.49046  0.61484  1.0000
  C   C238      1.0  0.03048  0.49445  0.59062  1.0000
  C   C239      1.0  0.02736  0.48164  0.57093  1.0000
  H   H393      1.0  0.04706  0.44772  0.60354  1.0000
  H   H394      1.0  0.05338  0.47041  0.63756  1.0000
  H   H395      1.0  0.02580  0.50742  0.58695  1.0000
  H   H396      1.0  0.02041  0.48490  0.55205  1.0000
  C   C240      1.0  0.00178  0.56144  0.78699  1.0000
  C   C241      1.0  0.99232  0.38867  0.68424  1.0000
  C   C242      1.0  0.09468  0.32943  0.54896  1.0000
  N   N15       1.0  0.03577  0.37063  0.96493  1.0000
  H   H397      1.0  0.02312  0.64063  0.58182  1.0000
  H   H398      1.0  0.00872  0.46720  0.61939  1.0000
  C   C243      1.0  0.06725  0.62122  0.59215  1.0000
  H   H399      1.0  0.00173  0.62603  0.59995  1.0000
  H   H400      1.0  0.01920  0.63110  0.54885  1.0000
  H   H401      1.0  0.00330  0.38313  0.67325  1.0000
  H   H402      1.0  0.07266  0.62981  0.60794  1.0000
  C   C244      1.0  0.09835  0.42076  0.53014  1.0000
  C   C245      1.0  0.01964  0.38056  0.91989  1.0000
  C   C246      1.0  0.07774  0.41355  0.58328  1.0000
  H   H403      1.0  0.06023  0.39907  0.96909  1.0000
  H   H404      1.0  0.99887  0.47776  0.51269  1.0000
  H   H405      1.0  0.10732  0.32549  0.55608  1.0000
  H   H406      1.0  0.02216  0.47251  0.66084  1.0000
  H   H407      1.0  0.03226  0.44133  0.65393  1.0000
  H   H408      1.0  0.99055  0.52792  0.49783  1.0000
  C   C247      1.0  0.98626  0.47197  0.66528  1.0000
  C   C248      1.0  0.16180  0.35977  0.96241  1.0000
  H   H409      1.0  0.05743  0.58663  0.57901  1.0000
  C   C249      1.0  0.06880  0.55229  0.74764  1.0000
  H   H410      1.0  0.05480  0.42653  0.52987  1.0000
  H   H411      1.0  0.10667  0.61041  0.74387  1.0000
  H   H412      1.0  0.00050  0.60615  0.61765  1.0000
  S   S76       1.0  0.99198  0.57318  0.59275  1.0000
  C   C250      1.0  0.98841  0.40385  0.96800  1.0000
  H   H413      1.0  0.04631  0.57669  0.72603  1.0000
  C   C251      1.0  0.06283  0.38639  0.97897  1.0000
  H   H414      1.0  0.03244  0.60337  0.71442  1.0000
  H   H415      1.0  0.02413  0.36901  0.90843  1.0000
  H   H416      1.0  0.99094  0.56351  0.82885  1.0000
  H   H417      1.0  0.06194  0.40103  0.55372  1.0000
  C   C252      1.0  0.04828  0.61825  0.59979  1.0000
  H   H418      1.0  0.06955  0.62710  0.57146  1.0000
  H   H419      1.0  0.12104  0.62386  0.66484  1.0000
  H   H420      1.0  0.01280  0.55925  0.49697  1.0000
  H   H421      1.0  0.05689  0.33126  0.95795  1.0000
  H   H422      1.0  0.04373  0.62895  0.61344  1.0000
  H   H423      1.0  0.04845  0.60669  0.61350  1.0000
  H   H424      1.0  0.09982  0.43079  0.54621  1.0000
  H   H425      1.0  0.02508  0.59389  0.59570  1.0000
  H   H426      1.0  0.18940  0.34797  0.93146  1.0000
  H   H427      1.0  0.06359  0.40542  0.49693  1.0000
  H   H428      1.0  0.09490  0.38227  0.51224  1.0000
  H   H429      1.0  0.05293  0.57039  0.80318  1.0000
  H   H430      1.0  0.07675  0.61163  0.73563  1.0000
  C   C253      1.0  0.09932  0.59949  0.75196  1.0000
  C   C254      1.0  0.06953  0.44178  0.50174  1.0000
  H   H431      1.0  0.06795  0.55119  0.77076  1.0000
  C   C255      1.0  0.04949  0.57919  0.78560  1.0000
  H   H432      1.0  0.05391  0.36193  0.93335  1.0000
  C   C256      1.0  0.00223  0.45595  0.62808  1.0000
  H   H433      1.0  0.99068  0.48958  0.62955  1.0000
  H   H434      1.0  0.10786  0.58804  0.74944  1.0000
  C   C257      1.0  0.98930  0.48860  0.51280  1.0000
  H   H435      1.0  0.09120  0.34927  0.57988  1.0000
  C   C258      1.0  0.18093  0.33820  0.94004  1.0000
  C   C259      1.0  0.11270  0.40700  0.53429  1.0000
  H   H436      1.0  0.06404  0.60168  0.77876  1.0000
  H   H437      1.0  0.07599  0.54068  0.74032  1.0000
  C   C260      1.0  0.07119  0.32673  0.51706  1.0000
  H   H438      1.0  0.05828  0.58229  0.54224  1.0000
  C   C261      1.0  0.02932  0.63302  0.56477  1.0000
  H   H439      1.0  0.00262  0.49434  0.66068  1.0000
  H   H440      1.0  0.17826  0.37366  0.93241  1.0000
  C   C262      1.0  0.99036  0.48961  0.65278  1.0000
  H   H441      1.0  0.07503  0.60915  0.59399  1.0000
  H   H442      1.0  0.08186  0.56662  0.71577  1.0000
  C   C263      1.0  0.99257  0.44138  0.67058  1.0000
  H   H443      1.0  0.07277  0.32581  0.62190  1.0000
  H   H444      1.0  0.01050  0.36030  0.96036  1.0000
  H   H445      1.0  0.06859  0.42454  0.58595  1.0000
  C   C264      1.0  0.03155  0.38489  0.94432  1.0000
  H   H446      1.0  0.04339  0.38960  0.93428  1.0000
  H   H447      1.0  0.10931  0.39667  0.54897  1.0000
  H   H448      1.0  0.04250  0.57180  0.77017  1.0000
  H   H449      1.0  0.05913  0.58735  0.70220  1.0000
  H   H450      1.0  0.99033  0.45280  0.58768  1.0000
  N   N16       1.0  0.17242  0.34358  0.96721  1.0000
  H   H451      1.0  0.10165  0.42739  0.51024  1.0000
  H   H452      1.0  0.04030  0.58894  0.79431  1.0000
  H   H453      1.0  0.07659  0.58319  0.78749  1.0000
  H   H454      1.0  0.04164  0.45221  0.68235  1.0000
  H   H455      1.0  0.01420  0.55688  0.79432  1.0000
  H   H456      1.0  0.08676  0.59661  0.71260  1.0000
  H   H457      1.0  0.05590  0.55181  0.73838  1.0000
  C   C265      1.0  0.06571  0.58780  0.77418  1.0000
  H   H458      1.0  0.98727  0.51184  0.83649  1.0000
  C   C266      1.0  0.02089  0.60637  0.58635  1.0000
  C   C267      1.0  0.08754  0.32107  0.52628  1.0000
  N   N17       1.0  0.03608  0.61602  0.57578  1.0000
  C   C268      1.0  0.98653  0.41175  0.94153  1.0000
  C   C269      1.0  0.05690  0.34418  0.96727  1.0000
  H   H459      1.0  0.03816  0.60467  0.75031  1.0000
  C   C270      1.0  0.07552  0.40467  0.55492  1.0000
  H   H460      1.0  0.04963  0.63905  0.53382  1.0000
  H   H461      1.0  0.20258  0.36092  0.96356  1.0000
  H   H462      1.0  0.00622  0.37918  0.92701  1.0000
  H   H463      1.0  0.99708  0.44960  0.71466  1.0000
  C   C271      1.0  0.04352  0.60378  0.72882  1.0000
  H   H464      1.0  0.09106  0.56673  0.74972  1.0000
  H   H465      1.0  0.12388  0.41290  0.54406  1.0000
  N   N18       1.0  0.07015  0.58531  0.74365  1.0000
  C   C272      1.0  0.08271  0.59858  0.73477  1.0000
  C   C273      1.0  0.05490  0.58751  0.72455  1.0000
  C   C274      1.0  0.07870  0.56807  0.73851  1.0000
  S   S77       1.0  0.99543  0.41555  0.56212  1.0000
  H   H466      1.0  0.07240  0.37851  0.51712  1.0000
  C   C275      1.0  0.04244  0.64492  0.55155  1.0000
  C   C276      1.0  0.01600  0.46203  0.67252  1.0000
  C   C277      1.0  0.08192  0.38530  0.50424  1.0000
  H   H467      1.0  0.09104  0.41753  0.58643  1.0000
  N   N19       1.0  0.08025  0.41481  0.52917  1.0000
  H   H468      1.0  0.01728  0.61985  0.62674  1.0000
  H   H469      1.0  0.01409  0.46727  0.69392  1.0000
  N   N20       1.0  0.99924  0.45783  0.65917  1.0000
  H   H470      1.0  0.01931  0.39134  0.90463  1.0000
  C   C278      1.0  0.00966  0.61536  0.60895  1.0000
  H   H471      1.0  0.99929  0.37739  0.72420  1.0000
  H   H472      1.0  0.08284  0.39235  0.55642  1.0000
  C   C279      1.0  0.98955  0.44057  0.70265  1.0000
  H   H473      1.0  0.18006  0.38006  0.96892  1.0000
  C   C280      1.0  0.98861  0.56517  0.80666  1.0000
  H   H474      1.0  0.03890  0.57906  0.56104  1.0000
  C   C281      1.0  0.02946  0.44721  0.67455  1.0000
  H   H475      1.0  0.02548  0.43726  0.68967  1.0000
  H   H476      1.0  0.16747  0.31770  0.98059  1.0000
  C   C282      1.0  0.99021  0.57081  0.55569  1.0000
  C   C283      1.0  0.99002  0.38545  0.71315  1.0000
  H   H477      1.0  0.01105  0.44484  0.62364  1.0000
  H   H478      1.0  0.02561  0.39611  0.95523  1.0000
  H   H479      1.0  0.05973  0.45235  0.50350  1.0000
  H   H480      1.0  0.03469  0.60509  0.53439  1.0000
  C   C284      1.0  0.04996  0.58747  0.55936  1.0000
  H   H481      1.0  0.03617  0.34857  0.93799  1.0000
  H   H482      1.0  0.00681  0.53965  0.98260  1.0000
  C   C285      1.0  0.16028  0.32976  0.97530  1.0000
  H   H483      1.0  0.99355  0.42306  0.93675  1.0000
  H   H484      1.0  0.99339  0.42765  0.71061  1.0000
  H   H485      1.0  0.11684  0.40144  0.51391  1.0000
  H   H486      1.0  0.07061  0.37823  0.96460  1.0000
  H   H487      1.0  0.17112  0.33671  0.92347  1.0000
  S   S78       1.0  0.98599  0.57339  0.95924  1.0000
  C   C286      1.0  0.17136  0.37558  0.95254  1.0000
  H   H488      1.0  0.08449  0.40994  0.48484  1.0000
  H   H489      1.0  0.15186  0.32667  0.95741  1.0000
  H   H490      1.0  0.16181  0.38619  0.94889  1.0000
  H   H491      1.0  0.15513  0.36385  0.98203  1.0000
  H   H492      1.0  0.08211  0.44777  0.49984  1.0000
  H   H493      1.0  0.00092  0.43024  0.66426  1.0000
  H   H494      1.0  0.07143  0.64177  0.69310  1.0000
  H   H495      1.0  0.07046  0.34795  0.96630  1.0000
  H   H496      1.0  0.06547  0.32047  0.49953  1.0000
  H   H497      1.0  0.00199  0.51753  0.97666  1.0000
  C   C287      1.0  0.98624  0.45346  0.61002  1.0000
  H   H498      1.0  0.22267  0.64892  0.77236  1.0000
  H   H499      1.0  0.10089  0.31704  0.64213  1.0000
  H   H500      1.0  0.12911  0.31746  0.62242  1.0000
  H   H501      1.0  0.05126  0.64969  0.56754  1.0000
  C   C288      1.0  0.98660  0.56880  0.49644  1.0000
  C   C289      1.0  0.19182  0.32142  0.94123  1.0000
  H   H502      1.0  0.20165  0.32160  0.95777  1.0000
  H   H503      1.0  0.10039  0.31712  0.60514  1.0000
  C   C290      1.0  0.98846  0.49648  0.48316  1.0000
  H   H504      1.0  0.98603  0.51942  0.74258  1.0000
  H   H505      1.0  0.08126  0.37996  0.48281  1.0000
  Fe  Fe41      1.0  0.01359  0.89403  0.36972  1.0000
  S   S79       1.0  0.03732  0.90897  0.37593  1.0000
  H   H506      1.0  0.16987  0.70559  0.30004  1.0000
  Fe  Fe42      1.0  0.00566  0.89360  0.43341  1.0000
  S   S80       1.0  0.02861  0.90880  0.44324  1.0000
  H   H507      1.0  0.20016  0.76449  0.03619  1.0000
  Fe  Fe43      1.0  0.02108  0.92501  0.40549  1.0000
  S   S81       1.0  0.01526  0.95389  0.40603  1.0000
  Fe  Fe44      1.0  0.04282  0.89119  0.41282  1.0000
  S   S82       1.0  0.07001  0.87992  0.42176  1.0000
  S   S83       1.0  0.99712  0.91067  0.39758  1.0000
  S   S84       1.0  0.02013  0.87533  0.40462  1.0000
  Fe  Fe45      1.0  0.13099  0.79091  0.45452  1.0000
  S   S85       1.0  0.12587  0.76292  0.45988  1.0000
  S   S86       1.0  0.10532  0.80586  0.44625  1.0000
  Fe  Fe46      1.0  0.16968  0.78335  0.46565  1.0000
  H   H508      1.0  0.04162  0.86718  0.46469  1.0000
  H   H509      1.0  0.14300  0.66228  0.10285  1.0000
  Fe  Fe47      1.0  0.14937  0.75730  0.43395  1.0000
  S   S87       1.0  0.15186  0.73456  0.40422  1.0000
  H   H510      1.0  0.02157  0.94750  0.01444  1.0000
  S   S88       1.0  0.15504  0.73527  0.01514  1.0000
  S   S89       1.0  0.15379  0.78509  0.42592  1.0000
  H   H511      1.0  0.99933  0.93254  0.03997  1.0000
  Fe  Fe48      1.0  0.17099  0.69461  0.21343  1.0000
  S   S90       1.0  0.15643  0.71988  0.21293  1.0000
  S   S91       1.0  0.19935  0.70077  0.21894  1.0000
  Fe  Fe49      1.0  0.13714  0.67550  0.20641  1.0000
  S   S92       1.0  0.12109  0.69983  0.20696  1.0000
  Fe  Fe50      1.0  0.14113  0.70997  0.17765  1.0000
  S   S93       1.0  0.13142  0.72785  0.14280  1.0000
  Fe  Fe51      1.0  0.13785  0.70801  0.24249  1.0000
  S   S94       1.0  0.12828  0.72609  0.27726  1.0000
  S   S95       1.0  0.15679  0.68542  0.17549  1.0000
  S   S96       1.0  0.15272  0.68292  0.24452  1.0000
  C   C291      1.0  0.14789  0.73322  0.05034  1.0000
  C   C292      1.0  0.13449  0.74339  0.06137  1.0000
  C   C293      1.0  0.12970  0.74162  0.08976  1.0000
  C   C294      1.0  0.13821  0.72967  0.10739  1.0000
  C   C295      1.0  0.15149  0.71936  0.09629  1.0000
  C   C296      1.0  0.15621  0.72106  0.06787  1.0000
  H   H512      1.0  0.12777  0.75256  0.04800  1.0000
  H   H513      1.0  0.11931  0.74957  0.09812  1.0000
  H   H514      1.0  0.15812  0.71008  0.10958  1.0000
  H   H515      1.0  0.16655  0.71307  0.05947  1.0000
  C   C297      1.0  0.14498  0.73253  0.36903  1.0000
  C   C298      1.0  0.13873  0.74648  0.35329  1.0000
  C   C299      1.0  0.13362  0.74426  0.32529  1.0000
  C   C300      1.0  0.13493  0.72814  0.31257  1.0000
  C   C301      1.0  0.14108  0.71418  0.32841  1.0000
  C   C302      1.0  0.14618  0.71640  0.35639  1.0000
  H   H516      1.0  0.13796  0.75895  0.36267  1.0000
  H   H517      1.0  0.12878  0.75511  0.31323  1.0000
  H   H518      1.0  0.14167  0.70163  0.31919  1.0000
  H   H519      1.0  0.15092  0.70549  0.36835  1.0000
  H   H520      1.0  0.13960  0.67894  0.47168  1.0000
  C   C303      1.0  0.21851  0.69044  0.23136  1.0000
  H   H521      1.0  0.11927  0.84022  0.43935  1.0000
  H   H522      1.0  0.09307  0.66210  0.11691  1.0000
  C   C304      1.0  0.16509  0.70273  0.45725  1.0000
  C   C305      1.0  0.12158  0.68415  0.07580  1.0000
  H   H523      1.0  0.16988  0.75467  0.27694  1.0000
  H   H524      1.0  0.05776  0.93594  0.30744  1.0000
  C   C306      1.0  0.19762  0.72878  0.35856  1.0000
  H   H525      1.0  0.03535  0.94168  0.27462  1.0000
  S   S97       1.0  0.19643  0.79458  0.46512  1.0000
  C   C307      1.0  0.99449  0.89535  0.04922  1.0000
  H   H526      1.0  0.18546  0.78775  0.01535  1.0000
  C   C308      1.0  0.07942  0.85922  0.42925  1.0000
  C   C309      1.0  0.06971  0.84467  0.43252  1.0000
  C   C310      1.0  0.07785  0.82862  0.43829  1.0000
  C   C311      1.0  0.09580  0.82675  0.44071  1.0000
  C   C312      1.0  0.10549  0.84131  0.43757  1.0000
  C   C313      1.0  0.09735  0.85738  0.43199  1.0000
  H   H527      1.0  0.05596  0.84573  0.43032  1.0000
  H   H528      1.0  0.07016  0.81749  0.44056  1.0000
  C   C314      1.0  0.13433  0.66079  0.12113  1.0000
  H   H529      1.0  0.14007  0.72576  0.46729  1.0000
  C   C315      1.0  0.02396  0.97111  0.38683  1.0000
  C   C316      1.0  0.00359  0.93760  0.98319  1.0000
  H   H530      1.0  0.20916  0.77155  0.06786  1.0000
  H   H531      1.0  0.20988  0.66477  0.22929  1.0000
  H   H532      1.0  0.04828  0.95867  0.37760  1.0000
  H   H533      1.0  0.18546  0.73630  0.36187  1.0000
  H   H534      1.0  0.03111  0.93432  0.98818  1.0000
  C   C317      1.0  0.04047  0.97024  0.37527  1.0000
  H   H535      1.0  0.00934  0.89302  0.01080  1.0000
  C   C318      1.0  0.99237  0.89363  0.30118  1.0000
  C   C319      1.0  0.19698  0.76755  0.05837  1.0000
  H   H536      1.0  0.16971  0.73426  0.31735  1.0000
  H   H537      1.0  0.17743  0.80501  0.03594  1.0000
  H   H538      1.0  0.98639  0.94614  0.06181  1.0000
  H   H539      1.0  0.18233  0.70843  0.26952  1.0000
  C   C320      1.0  0.17645  0.74192  0.27555  1.0000
  H   H540      1.0  0.08931  0.66633  0.05370  1.0000
  H   H541      1.0  0.19032  0.77433  0.12282  1.0000
  C   C321      1.0  0.20461  0.80214  0.03593  1.0000
  H   H542      1.0  0.10638  0.65513  0.08964  1.0000
  N   N21       1.0  0.11048  0.68121  0.10140  1.0000
  H   H543      1.0  0.07406  0.66043  0.08033  1.0000
  C   C322      1.0  0.10069  0.69742  0.10920  1.0000
  H   H544      1.0  0.12528  0.67185  0.06558  1.0000
  H   H545      1.0  0.03069  0.83771  0.47144  1.0000
  C   C323      1.0  0.18687  0.79409  0.03601  1.0000
  H   H546      1.0  0.18317  0.67876  0.28346  1.0000
  H   H547      1.0  0.09235  0.70229  0.09206  1.0000
  H   H548      1.0  0.10148  0.69258  0.04553  1.0000
  H   H549      1.0  0.04406  0.93760  0.33708  1.0000
  C   C324      1.0  0.11424  0.69618  0.05275  1.0000
  H   H550      1.0  0.08162  0.70864  0.13747  1.0000
  C   C325      1.0  0.02105  0.94441  0.99188  1.0000
  H   H551      1.0  0.20603  0.81097  0.05368  1.0000
  C   C326      1.0  0.23247  0.70052  0.23777  1.0000
  N   N22       1.0  0.18341  0.78176  0.05975  1.0000
  C   C327      1.0  0.99316  0.88823  0.27313  1.0000
  H   H552      1.0  0.18755  0.74312  0.26119  1.0000
  C   C328      1.0  0.13676  0.71244  0.47291  1.0000
  H   H553      1.0  0.00657  0.96104  0.24864  1.0000
  H   H554      1.0  0.01718  0.85107  0.45020  1.0000
  H   H555      1.0  0.08003  0.68608  0.13446  1.0000
  H   H556      1.0  0.17013  0.69471  0.41446  1.0000
  C   C329      1.0  0.03091  0.93821  0.29601  1.0000
  C   C330      1.0  0.16000  0.69312  0.43065  1.0000
  H   H557      1.0  0.00300  0.87897  0.26681  1.0000
  H   H558      1.0  0.21531  0.79250  0.03586  1.0000
  C   C331      1.0  0.18330  0.70588  0.29240  1.0000
  H   H559      1.0  0.15098  0.79797  0.04102  1.0000
  N   N23       1.0  0.10380  0.80432  0.35407  1.0000
  C   C332      1.0  0.10455  0.80920  0.32347  1.0000
  C   C333      1.0  0.11858  0.81214  0.36875  1.0000
  C   C334      1.0  0.08735  0.81082  0.36754  1.0000
  C   C335      1.0  0.10473  0.78513  0.35649  1.0000
  C   C336      1.0  0.08911  0.80421  0.30570  1.0000
  C   C337      1.0  0.13662  0.80562  0.35965  1.0000
  C   C338      1.0  0.08320  0.83012  0.36422  1.0000
  C   C339      1.0  0.10651  0.77772  0.38645  1.0000
  H   H560      1.0  0.10616  0.82316  0.32076  1.0000
  H   H561      1.0  0.11601  0.80311  0.31321  1.0000
  H   H562      1.0  0.11756  0.81040  0.39180  1.0000
  H   H563      1.0  0.11833  0.82620  0.36548  1.0000
  H   H564      1.0  0.07621  0.80387  0.35974  1.0000
  H   H565      1.0  0.08750  0.80825  0.39046  1.0000
  H   H566      1.0  0.09303  0.77959  0.34775  1.0000
  H   H567      1.0  0.11551  0.77968  0.34370  1.0000
  H   H568      1.0  0.08781  0.79021  0.30498  1.0000
  H   H569      1.0  0.07692  0.81040  0.31295  1.0000
  H   H570      1.0  0.09116  0.80859  0.28376  1.0000
  H   H571      1.0  0.14624  0.81198  0.37259  1.0000
  H   H572      1.0  0.13866  0.79173  0.36316  1.0000
  H   H573      1.0  0.13945  0.80888  0.33750  1.0000
  H   H574      1.0  0.09258  0.83788  0.37525  1.0000
  H   H575      1.0  0.07054  0.83312  0.37409  1.0000
  H   H576      1.0  0.08221  0.83430  0.34206  1.0000
  H   H577      1.0  0.11860  0.78125  0.39649  1.0000
  H   H578      1.0  0.10677  0.76358  0.38547  1.0000
  H   H579      1.0  0.09559  0.78162  0.40016  1.0000
  S   S98       1.0  0.16637  0.75527  0.47197  1.0000
  H   H580      1.0  0.20594  0.80986  0.01643  1.0000
  H   H581      1.0  0.20098  0.72293  0.37917  1.0000
  H   H582      1.0  0.13097  0.70727  0.45377  1.0000
  H   H583      1.0  0.19775  0.79519  0.09059  1.0000
  H   H584      1.0  0.11484  0.67376  0.14488  1.0000
  H   H585      1.0  0.02465  0.96972  0.28563  1.0000
  H   H586      1.0  0.23003  0.73903  0.28404  1.0000
  C   C340      1.0  0.21572  0.77022  0.98465  1.0000
  C   C341      1.0  0.01578  0.96587  0.30276  1.0000
  C   C342      1.0  0.04587  0.94243  0.31545  1.0000
  H   H587      1.0  0.18402  0.70751  0.34497  1.0000
  H   H588      1.0  0.23028  0.80775  0.46668  1.0000
  H   H589      1.0  0.16845  0.77312  0.11114  1.0000
  H   H590      1.0  0.16703  0.73336  0.26644  1.0000
  H   H591      1.0  0.07825  0.68203  0.07546  1.0000
  C   C343      1.0  0.03138  0.86532  0.48063  1.0000
  H   H592      1.0  0.18758  0.75128  0.09332  1.0000
  N   N24       1.0  0.01374  0.94682  0.30254  1.0000
  C   C344      1.0  0.12220  0.67655  0.12551  1.0000
  H   H593      1.0  0.02211  0.96966  0.32245  1.0000
  C   C345      1.0  0.19531  0.71446  0.33706  1.0000
  H   H594      1.0  0.20650  0.70534  0.33908  1.0000
  C   C346      1.0  0.08922  0.69646  0.13557  1.0000
  H   H595      1.0  0.15907  0.67924  0.43461  1.0000
  C   C347      1.0  0.02204  0.84920  0.47182  1.0000
  C   C348      1.0  0.18171  0.73589  0.30516  1.0000
  H   H596      1.0  0.18356  0.74351  0.05852  1.0000
  C   C349      1.0  0.15070  0.78788  0.05736  1.0000
  S   S99       1.0  0.00783  0.88527  0.32524  1.0000
  C   C350      1.0  0.18442  0.79127  0.08694  1.0000
  N   N25       1.0  0.19275  0.71976  0.30680  1.0000
  H   H597      1.0  0.23119  0.71422  0.23541  1.0000
  H   H598      1.0  0.02989  0.92405  0.29616  1.0000
  H   H599      1.0  0.17449  0.79109  0.12966  1.0000
  H   H600      1.0  0.21762  0.70956  0.29389  1.0000
  H   H601      1.0  0.10972  0.70780  0.11246  1.0000
  H   H602      1.0  0.01751  0.94329  0.34720  1.0000
  C   C351      1.0  0.00809  0.94033  0.33086  1.0000
  H   H603      1.0  0.17789  0.69729  0.46279  1.0000
  H   H604      1.0  0.14798  0.69827  0.42123  1.0000
  H   H605      1.0  0.20417  0.68621  0.28692  1.0000
  H   H606      1.0  0.04829  0.95626  0.31578  1.0000
  H   H607      1.0  0.20455  0.74200  0.07265  1.0000
  H   H608      1.0  0.16545  0.76884  0.03399  1.0000
  C   C352      1.0  0.16592  0.77487  0.05498  1.0000
  H   H609      1.0  0.16301  0.76442  0.06980  1.0000
  H   H610      1.0  0.13026  0.68752  0.13070  1.0000
  H   H611      1.0  0.13389  0.68981  0.08183  1.0000
  H   H612      1.0  0.09356  0.66373  0.17655  1.0000
  C   C353      1.0  0.99662  0.89374  0.01992  1.0000
  H   H613      1.0  0.00566  0.89586  0.06238  1.0000
  H   H614      1.0  0.19086  0.68298  0.31763  1.0000
  C   C354      1.0  0.17922  0.78169  0.11389  1.0000
  C   C355      1.0  0.20965  0.72151  0.29182  1.0000
  H   H615      1.0  0.17697  0.80363  0.08603  1.0000
  C   C356      1.0  0.19103  0.68755  0.29560  1.0000
  H   H616      1.0  0.18775  0.74679  0.31522  1.0000
  C   C357      1.0  0.09886  0.66657  0.09690  1.0000
  H   H617      1.0  0.21439  0.74776  0.30671  1.0000
  H   H618      1.0  0.09690  0.69520  0.15497  1.0000
  H   H619      1.0  0.20796  0.72285  0.26876  1.0000
  H   H620      1.0  0.11368  0.70963  0.05986  1.0000
  H   H621      1.0  0.00215  0.92507  0.99382  1.0000
  H   H622      1.0  0.14979  0.79368  0.07843  1.0000
  H   H623      1.0  0.01632  0.94027  0.24100  1.0000
  H   H624      1.0  0.13863  0.78115  0.05414  1.0000
  C   C358      1.0  0.19271  0.75025  0.07177  1.0000
  C   C359      1.0  0.22045  0.67272  0.23421  1.0000
  H   H625      1.0  0.12300  0.69577  0.03429  1.0000
  H   H626      1.0  0.99778  0.96357  0.02331  1.0000
  C   C360      1.0  0.00501  0.94711  0.25027  1.0000
  H   H627      1.0  0.20792  0.73743  0.35279  1.0000
  C   C361      1.0  0.08451  0.66921  0.07516  1.0000
  H   H628      1.0  0.10504  0.86849  0.42960  1.0000
  H   H629      1.0  0.16741  0.71621  0.45121  1.0000
  H   H630      1.0  0.20460  0.76241  0.98389  1.0000
  H   H631      1.0  0.00150  0.92689  0.28006  1.0000
  H   H632      1.0  0.22862  0.77568  0.42745  1.0000
  H   H633      1.0  0.00749  0.92615  0.33077  1.0000
  C   C362      1.0  0.22131  0.73567  0.30159  1.0000
  C   C363      1.0  0.98733  0.94050  0.04057  1.0000
  C   C364      1.0  0.99935  0.97738  0.29978  1.0000
  H   H634      1.0  0.02213  0.87632  0.47785  1.0000
  H   H635      1.0  0.22962  0.75325  0.01295  1.0000
  C   C365      1.0  0.22995  0.76504  0.00106  1.0000
  C   C366      1.0  0.00148  0.94106  0.28055  1.0000
  H   H636      1.0  0.05594  0.89014  0.47497  1.0000
  C   C367      1.0  0.98722  0.95496  0.01843  1.0000
  H   H637      1.0  0.99142  0.96122  0.34724  1.0000
  N   N26       1.0  0.98817  0.94929  0.98837  1.0000
  H   H638      1.0  0.14255  0.65903  0.13988  1.0000
  C   C368      1.0  0.23011  0.79712  0.48126  1.0000
  S   S100      1.0  0.98666  0.88330  0.46559  1.0000
  H   H639      1.0  0.22922  0.73126  0.31968  1.0000
  C   C369      1.0  0.99084  0.94748  0.34232  1.0000
  H   H640      1.0  0.98811  0.94104  0.36258  1.0000
  C   C370      1.0  0.09308  0.65000  0.17580  1.0000
  H   H641      1.0  0.06840  0.65025  0.15553  1.0000
  N   N27       1.0  0.15262  0.70220  0.48155  1.0000
  H   H642      1.0  0.99392  0.94398  0.23704  1.0000
  H   H643      1.0  0.98715  0.97599  0.47952  1.0000
  H   H644      1.0  0.98720  0.97066  0.29984  1.0000
  H   H645      1.0  0.98802  0.94484  0.28537  1.0000
  Fe  Fe52      1.0  0.01570  0.89216  0.87182  1.0000
  S   S101      1.0  0.04029  0.90556  0.87831  1.0000
  S   S102      1.0  0.01148  0.88280  0.82710  1.0000
  Fe  Fe53      1.0  0.00700  0.89381  0.93544  1.0000
  S   S103      1.0  0.03146  0.90665  0.94523  1.0000
  C   C371      1.0  0.00182  0.94305  0.84035  1.0000
  Fe  Fe54      1.0  0.02541  0.92315  0.90722  1.0000
  S   S104      1.0  0.02091  0.95210  0.91077  1.0000
  Fe  Fe55      1.0  0.04423  0.88757  0.91542  1.0000
  S   S105      1.0  0.07123  0.87442  0.91783  1.0000
  S   S106      1.0  0.00060  0.91076  0.89830  1.0000
  S   S107      1.0  0.01996  0.87370  0.90789  1.0000
  Fe  Fe56      1.0  0.13256  0.78499  0.94656  1.0000
  S   S108      1.0  0.12943  0.75630  0.94738  1.0000
  S   S109      1.0  0.10714  0.80128  0.94865  1.0000
  Fe  Fe57      1.0  0.17192  0.78022  0.94754  1.0000
  S   S110      1.0  0.17089  0.75187  0.94733  1.0000
  S   S111      1.0  0.19784  0.79299  0.94958  1.0000
  Fe  Fe58      1.0  0.15038  0.75504  0.91464  1.0000
  S   S112      1.0  0.15042  0.73376  0.88173  1.0000
  H   H646      1.0  0.17745  0.70756  0.83385  1.0000
  S   S113      1.0  0.13179  0.75038  0.53613  1.0000
  S   S114      1.0  0.15272  0.78366  0.91213  1.0000
  H   H647      1.0  0.02278  0.96460  0.76761  1.0000
  Fe  Fe59      1.0  0.16914  0.67012  0.71824  1.0000
  S   S115      1.0  0.17009  0.69743  0.70535  1.0000
  H   H648      1.0  0.20324  0.76780  0.50757  1.0000
  Fe  Fe60      1.0  0.13151  0.66734  0.69921  1.0000
  S   S116      1.0  0.13034  0.69519  0.68580  1.0000
  Fe  Fe61      1.0  0.15627  0.68994  0.66652  1.0000
  S   S117      1.0  0.16765  0.70076  0.62614  1.0000
  Fe  Fe62      1.0  0.14430  0.70067  0.72580  1.0000
  S   S118      1.0  0.14050  0.72577  0.74959  1.0000
  S   S119      1.0  0.15706  0.66188  0.67781  1.0000
  S   S120      1.0  0.14374  0.67350  0.74086  1.0000
  C   C372      1.0  0.14208  0.73726  0.56175  1.0000
  C   C373      1.0  0.15987  0.73625  0.56447  1.0000
  C   C374      1.0  0.16748  0.72514  0.58452  1.0000
  C   C375      1.0  0.15741  0.71506  0.60214  1.0000
  C   C376      1.0  0.13960  0.71628  0.59972  1.0000
  C   C377      1.0  0.13199  0.72738  0.57968  1.0000
  H   H649      1.0  0.16777  0.74393  0.55100  1.0000
  H   H650      1.0  0.18128  0.72429  0.58631  1.0000
  H   H651      1.0  0.13174  0.70836  0.61280  1.0000
  H   H652      1.0  0.11820  0.72808  0.57771  1.0000
  C   C378      1.0  0.14626  0.73232  0.84521  1.0000
  C   C379      1.0  0.14633  0.74646  0.82711  1.0000
  C   C380      1.0  0.14431  0.74429  0.79796  1.0000
  C   C381      1.0  0.14231  0.72800  0.78656  1.0000
  C   C382      1.0  0.14194  0.71393  0.80472  1.0000
  C   C383      1.0  0.14387  0.71612  0.83381  1.0000
  H   H653      1.0  0.14817  0.75900  0.83554  1.0000
  H   H654      1.0  0.14451  0.75529  0.78417  1.0000
  H   H655      1.0  0.14018  0.70136  0.79638  1.0000
  H   H656      1.0  0.14366  0.70512  0.84762  1.0000
  H   H657      1.0  0.21985  0.69428  0.77927  1.0000
  C   C384      1.0  0.21312  0.66590  0.73983  1.0000
  C   C385      1.0  0.21741  0.67893  0.72118  1.0000
  S   S121      1.0  0.14720  0.79135  0.49357  1.0000
  H   H658      1.0  0.01323  0.92258  0.80010  1.0000
  H   H659      1.0  0.20785  0.68426  0.70705  1.0000
  H   H660      1.0  0.18241  0.71339  0.53297  1.0000
  H   H661      1.0  0.01176  0.86664  0.52262  1.0000
  H   H662      1.0  0.04895  0.88411  0.53755  1.0000
  H   H663      1.0  0.22573  0.70026  0.84243  1.0000
  H   H664      1.0  0.01499  0.86132  0.57310  1.0000
  H   H665      1.0  0.18375  0.73454  0.81064  1.0000
  H   H666      1.0  0.00565  0.90467  0.50398  1.0000
  C   C386      1.0  0.08105  0.85421  0.92780  1.0000
  C   C387      1.0  0.09834  0.85070  0.92050  1.0000
  C   C388      1.0  0.10655  0.83474  0.92676  1.0000
  C   C389      1.0  0.09765  0.82196  0.94067  1.0000
  C   C390      1.0  0.08039  0.82552  0.94818  1.0000
  C   C391      1.0  0.07214  0.84146  0.94183  1.0000
  H   H667      1.0  0.10546  0.86040  0.90980  1.0000
  H   H668      1.0  0.11980  0.83235  0.92086  1.0000
  C   C392      1.0  0.99549  0.89881  0.51563  1.0000
  H   H669      1.0  0.05891  0.84386  0.94783  1.0000
  C   C393      1.0  0.02744  0.96942  0.88928  1.0000
  C   C394      1.0  0.01771  0.93587  0.79795  1.0000
  H   H670      1.0  0.05732  0.84169  0.55362  1.0000
  C   C395      1.0  0.02416  0.86081  0.52998  1.0000
  N   N28       1.0  0.00456  0.94832  0.81018  1.0000
  H   H671      1.0  0.15790  0.65830  0.49146  1.0000
  H   H672      1.0  0.18390  0.69490  0.51176  1.0000
  S   S122      1.0  0.15202  0.78355  0.98167  1.0000
  C   C396      1.0  0.19111  0.70969  0.82926  1.0000
  C   C397      1.0  0.04172  0.96814  0.87146  1.0000
  H   H673      1.0  0.98661  0.88560  0.73258  1.0000
  H   H674      1.0  0.07113  0.87977  0.49860  1.0000
  H   H675      1.0  0.18805  0.73490  0.84709  1.0000
  H   H676      1.0  0.01365  0.94434  0.85272  1.0000
  C   C398      1.0  0.99717  0.88422  0.77448  1.0000
  H   H677      1.0  0.07332  0.81584  0.95904  1.0000
  C   C399      1.0  0.16208  0.67138  0.49595  1.0000
  H   H678      1.0  0.04435  0.92700  0.79922  1.0000
  C   C400      1.0  0.21483  0.77469  0.50427  1.0000
  H   H679      1.0  0.19955  0.67708  0.83154  1.0000
  H   H680      1.0  0.02224  0.84683  0.53056  1.0000
  H   H681      1.0  0.04917  0.95628  0.87038  1.0000
  N   N29       1.0  0.19717  0.69940  0.80431  1.0000
  C   C401      1.0  0.19405  0.68089  0.81087  1.0000
  C   C402      1.0  0.21609  0.70107  0.79889  1.0000
  C   C403      1.0  0.18723  0.70441  0.77824  1.0000
  C   C404      1.0  0.17514  0.67572  0.81190  1.0000
  C   C405      1.0  0.19430  0.71885  0.75967  1.0000
  H   H682      1.0  0.20065  0.67251  0.79521  1.0000
  H   H683      1.0  0.21936  0.71454  0.79521  1.0000
  H   H684      1.0  0.98656  0.94755  0.87797  1.0000
  H   H685      1.0  0.18652  0.69337  0.76383  1.0000
  H   H686      1.0  0.17375  0.70800  0.78365  1.0000
  C   C406      1.0  0.22827  0.69414  0.82192  1.0000
  H   H687      1.0  0.99876  0.92930  0.84176  1.0000
  H   H688      1.0  0.22791  0.68007  0.82400  1.0000
  C   C407      1.0  0.01587  0.97386  0.78125  1.0000
  H   H689      1.0  0.00804  0.87615  0.76833  1.0000
  H   H690      1.0  0.17479  0.66178  0.81594  1.0000
  N   N30       1.0  0.14092  0.75335  0.67021  1.0000
  C   C408      1.0  0.12289  0.74820  0.67706  1.0000
  C   C409      1.0  0.14632  0.76493  0.69336  1.0000
  C   C410      1.0  0.15220  0.73736  0.67087  1.0000
  C   C411      1.0  0.14109  0.76164  0.64153  1.0000
  C   C412      1.0  0.11412  0.73710  0.65519  1.0000
  C   C413      1.0  0.13581  0.78185  0.69627  1.0000
  C   C414      1.0  0.17129  0.73934  0.66385  1.0000
  C   C415      1.0  0.15613  0.77330  0.63441  1.0000
  H   H691      1.0  0.12248  0.74129  0.69761  1.0000
  H   H692      1.0  0.11415  0.75957  0.67938  1.0000
  H   H693      1.0  0.15988  0.76831  0.69138  1.0000
  H   H694      1.0  0.14566  0.75816  0.71401  1.0000
  H   H695      1.0  0.15147  0.73108  0.69184  1.0000
  H   H696      1.0  0.14773  0.72786  0.65584  1.0000
  H   H697      1.0  0.14084  0.75171  0.62499  1.0000
  H   H698      1.0  0.12916  0.76963  0.63848  1.0000
  H   H699      1.0  0.10091  0.73465  0.66257  1.0000
  H   H700      1.0  0.11294  0.74353  0.63447  1.0000
  H   H701      1.0  0.12057  0.72447  0.65267  1.0000
  H   H702      1.0  0.14286  0.79059  0.70984  1.0000
  H   H703      1.0  0.13365  0.78843  0.67592  1.0000
  H   H704      1.0  0.12334  0.77984  0.70686  1.0000
  H   H705      1.0  0.17808  0.72677  0.66660  1.0000
  H   H706      1.0  0.17768  0.74819  0.67795  1.0000
  H   H707      1.0  0.17318  0.74295  0.64156  1.0000
  H   H708      1.0  0.16095  0.77029  0.61296  1.0000
  H   H709      1.0  0.16726  0.77210  0.64841  1.0000
  H   H710      1.0  0.15159  0.78687  0.63357  1.0000
  N   N31       1.0  0.06140  0.83698  0.85272  1.0000
  C   C416      1.0  0.07174  0.82333  0.86831  1.0000
  C   C417      1.0  0.04658  0.84237  0.87147  1.0000
  C   C418      1.0  0.07279  0.85184  0.84738  1.0000
  C   C419      1.0  0.05564  0.82943  0.82558  1.0000
  C   C420      1.0  0.08939  0.81815  0.85561  1.0000
  C   C421      1.0  0.03408  0.82833  0.87932  1.0000
  C   C422      1.0  0.06397  0.86936  0.84139  1.0000
  C   C423      1.0  0.04296  0.84022  0.80750  1.0000
  H   H711      1.0  0.07419  0.82738  0.89008  1.0000
  H   H712      1.0  0.06460  0.81137  0.87037  1.0000
  H   H713      1.0  0.03872  0.85301  0.86232  1.0000
  H   H714      1.0  0.05143  0.84761  0.89139  1.0000
  H   H715      1.0  0.08103  0.85391  0.86594  1.0000
  H   H716      1.0  0.08176  0.84911  0.82961  1.0000
  H   H717      1.0  0.06686  0.82658  0.81173  1.0000
  H   H718      1.0  0.05011  0.81669  0.82901  1.0000
  H   H719      1.0  0.09838  0.82876  0.85607  1.0000
  H   H720      1.0  0.09527  0.80774  0.86871  1.0000
  H   H721      1.0  0.08841  0.81320  0.83406  1.0000
  H   H722      1.0  0.02330  0.83413  0.89169  1.0000
  C   C424      1.0  0.17931  0.70837  0.51203  1.0000
  H   H723      1.0  0.04018  0.81834  0.89290  1.0000
  H   H724      1.0  0.07389  0.87865  0.83595  1.0000
  H   H725      1.0  0.05738  0.87434  0.86039  1.0000
  H   H726      1.0  0.05486  0.86934  0.82386  1.0000
  H   H727      1.0  0.15727  0.72467  0.50643  1.0000
  H   H728      1.0  0.03378  0.84834  0.81957  1.0000
  H   H729      1.0  0.03481  0.83159  0.79556  1.0000
  H   H730      1.0  0.03401  0.89233  0.51321  1.0000
  C   C425      1.0  0.15986  0.71062  0.50710  1.0000
  H   H731      1.0  0.03775  0.86222  0.57057  1.0000
  S   S123      1.0  0.10601  0.65302  0.69668  1.0000
  C   C426      1.0  0.14750  0.68433  0.48854  1.0000
  C   C427      1.0  0.05972  0.88852  0.49713  1.0000
  H   H732      1.0  0.23071  0.80729  0.95887  1.0000
  Fe  Fe63      1.0  0.14310  0.76314  0.49734  1.0000
  H   H733      1.0  0.19818  0.73007  0.77150  1.0000
  H   H734      1.0  0.16538  0.67211  0.51851  1.0000
  H   H735      1.0  0.20537  0.71401  0.74695  1.0000
  H   H736      1.0  0.02846  0.82255  0.86057  1.0000
  H   H737      1.0  0.16846  0.67806  0.79175  1.0000
  H   H738      1.0  0.01950  0.93779  0.77511  1.0000
  S   S124      1.0  0.19205  0.65804  0.74155  1.0000
  H   H739      1.0  0.99083  0.96663  0.85937  1.0000
  H   H740      1.0  0.04146  0.94892  0.80839  1.0000
  H   H741      1.0  0.03601  0.93214  0.83289  1.0000
  C   C428      1.0  0.23425  0.68478  0.72025  1.0000
  C   C429      1.0  0.21579  0.78556  0.96956  1.0000
  H   H742      1.0  0.04989  0.84830  0.79227  1.0000
  C   C430      1.0  0.98819  0.94419  0.76336  1.0000
  H   H743      1.0  0.19798  0.70542  0.84852  1.0000
  C   C431      1.0  0.19244  0.72913  0.82696  1.0000
  H   H744      1.0  0.06557  0.86270  0.54792  1.0000
  C   C432      1.0  0.02566  0.86663  0.56063  1.0000
  H   H745      1.0  0.99175  0.96133  0.94748  1.0000
  H   H746      1.0  0.13877  0.68437  0.50708  1.0000
  H   H747      1.0  0.00304  0.90886  0.55553  1.0000
  C   C433      1.0  0.03580  0.93622  0.81063  1.0000
  H   H748      1.0  0.00478  0.93451  0.96056  1.0000
  H   H749      1.0  0.18419  0.72333  0.74481  1.0000
  H   H750      1.0  0.99586  0.95355  0.75186  1.0000
  C   C434      1.0  0.22976  0.77014  0.51950  1.0000
  H   H751      1.0  0.12654  0.71665  0.51602  1.0000
  H   H752      1.0  0.02467  0.95554  0.97895  1.0000
  C   C435      1.0  0.99554  0.88950  0.80253  1.0000
  H   H753      1.0  0.02410  0.88070  0.56228  1.0000
  H   H754      1.0  0.20573  0.73305  0.82326  1.0000
  C   C436      1.0  0.99390  0.90124  0.54485  1.0000
  H   H755      1.0  0.04762  0.83874  0.50817  1.0000
  H   H756      1.0  0.16780  0.68204  0.82907  1.0000
  C   C437      1.0  0.04473  0.88270  0.51564  1.0000
  C   C438      1.0  0.22582  0.65906  0.75791  1.0000
  H   H757      1.0  0.07637  0.84500  0.53298  1.0000
  C   C439      1.0  0.05278  0.85162  0.51103  1.0000
  H   H758      1.0  0.00124  0.97184  0.97501  1.0000
  N   N32       1.0  0.03853  0.86508  0.50995  1.0000
  H   H759      1.0  0.15341  0.70621  0.52663  1.0000
  C   C440      1.0  0.06335  0.85029  0.53813  1.0000
  C   C441      1.0  0.01051  0.96638  0.80981  1.0000
  H   H760      1.0  0.06364  0.90123  0.50422  1.0000
  H   H761      1.0  0.06180  0.85281  0.49296  1.0000
  H   H762      1.0  0.02108  0.96807  0.82479  1.0000
  C   C442      1.0  0.12211  0.71349  0.49480  1.0000
  C   C443      1.0  0.04668  0.98245  0.85557  1.0000
  C   C444      1.0  0.23050  0.79539  0.97048  1.0000
  H   H763      1.0  0.03545  0.65634  0.54288  1.0000
  Fe  Fe64      1.0  0.15013  0.75498  0.97997  1.0000
  H   H764      1.0  0.22946  0.75975  0.53453  1.0000
  H   H765      1.0  0.00029  0.97530  0.81786  1.0000
  H   H766      1.0  0.11515  0.70143  0.49583  1.0000
  H   H767      1.0  0.99302  0.93104  0.75854  1.0000
  H   H768      1.0  0.23069  0.73516  0.62328  1.0000
  H   H769      1.0  0.18661  0.71593  0.49654  1.0000
  C   C445      1.0  0.98763  0.94724  0.79525  1.0000
  H   H770      1.0  0.22956  0.77575  0.90139  1.0000
  H   H771      1.0  0.11271  0.72375  0.48846  1.0000
  H   H772      1.0  0.23086  0.76101  0.92973  1.0000
  H   H773      1.0  0.05792  0.98143  0.84224  1.0000
  H   H774      1.0  0.00462  0.97953  0.77002  1.0000
  C   C446      1.0  0.21487  0.78829  0.48509  1.0000
  C   C447      1.0  0.98959  0.96482  0.96983  1.0000
  C   C448      1.0  0.98763  0.95311  0.85656  1.0000
  H   H775      1.0  0.01062  0.84689  0.48507  1.0000
  H   H776      1.0  0.17375  0.67284  0.48306  1.0000
  Fe  Fe65      1.0  0.30434  0.19814  0.15689  1.0000
  S   S125      1.0  0.30444  0.16987  0.16626  1.0000
  S   S126      1.0  0.29764  0.20552  0.11144  1.0000
  Fe  Fe66      1.0  0.31127  0.20635  0.21915  1.0000
  S   S127      1.0  0.31240  0.17870  0.23187  1.0000
  S   S128      1.0  0.31114  0.22908  0.24906  1.0000
  Fe  Fe67      1.0  0.32792  0.17397  0.19207  1.0000
  S   S129      1.0  0.35452  0.16011  0.18762  1.0000
  Fe  Fe68      1.0  0.28888  0.17693  0.20485  1.0000
  S   S130      1.0  0.26533  0.16254  0.21929  1.0000
  S   S131      1.0  0.32839  0.20216  0.18117  1.0000
  S   S132      1.0  0.28717  0.20465  0.19368  1.0000
  H   H777      1.0  0.44271  0.04305  0.05650  1.0000
  H   H778      1.0  0.36499  0.30491  0.43935  1.0000
  S   S133      1.0  0.32850  0.25779  0.02243  1.0000
  Fe  Fe69      1.0  0.31683  0.25258  0.41348  1.0000
  S   S134      1.0  0.30048  0.27621  0.40594  1.0000
  S   S135      1.0  0.32521  0.23277  0.38062  1.0000
  Fe  Fe70      1.0  0.31979  0.28947  0.43285  1.0000
  C   C449      1.0  0.47095  0.01857  0.04963  1.0000
  Fe  Fe71      1.0  0.28686  0.26953  0.44644  1.0000
  H   H779      1.0  0.43805  0.00592  0.01203  1.0000
  S   S136      1.0  0.33665  0.26598  0.43845  1.0000
  S   S137      1.0  0.30244  0.24498  0.45241  1.0000
  Fe  Fe72      1.0  0.41621  0.07456  0.14861  1.0000
  S   S138      1.0  0.44101  0.08631  0.15998  1.0000
  S   S139      1.0  0.38917  0.08702  0.15531  1.0000
  Fe  Fe73      1.0  0.43510  0.04038  0.12978  1.0000
  S   S140      1.0  0.46084  0.05036  0.14091  1.0000
  S   S141      1.0  0.43769  0.01524  0.10550  1.0000
  Fe  Fe74      1.0  0.44817  0.06085  0.18011  1.0000
  S   S142      1.0  0.45560  0.05458  0.22572  1.0000
  Fe  Fe75      1.0  0.45152  0.07460  0.11967  1.0000
  H   H780      1.0  0.36007  0.25612  0.37273  1.0000
  S   S143      1.0  0.42287  0.04935  0.17012  1.0000
  S   S144      1.0  0.42624  0.06444  0.10719  1.0000
  C   C450      1.0  0.36116  0.20715  0.12186  1.0000
  C   C451      1.0  0.27356  0.20591  0.35822  1.0000
  H   H781      1.0  0.37188  0.18699  0.06838  1.0000
  H   H782      1.0  0.31428  0.29652  0.35397  1.0000
  C   C452      1.0  0.37269  0.27769  0.38963  1.0000
  C   C453      1.0  0.27224  0.25382  0.06459  1.0000
  H   H783      1.0  0.40927  0.01066  0.02964  1.0000
  C   C454      1.0  0.46947  0.06328  0.25087  1.0000
  C   C455      1.0  0.46900  0.05697  0.27857  1.0000
  C   C456      1.0  0.27389  0.25783  0.01388  1.0000
  H   H784      1.0  0.45995  0.04737  0.28416  1.0000
  H   H785      1.0  0.25152  0.19769  0.22296  1.0000
  H   H786      1.0  0.34561  0.20844  0.07215  1.0000
  C   C457      1.0  0.43009  0.99417  0.10889  1.0000
  H   H787      1.0  0.26791  0.24056  0.06253  1.0000
  H   H788      1.0  0.42065  0.11752  0.28397  1.0000
  H   H789      1.0  0.41097  0.99968  0.14049  1.0000
  C   C458      1.0  0.36314  0.30894  0.34840  1.0000
  C   C459      1.0  0.26683  0.25929  0.09436  1.0000
  H   H790      1.0  0.36443  0.18299  0.14319  1.0000
  H   H791      1.0  0.40300  0.10923  0.30390  1.0000
  H   H792      1.0  0.28641  0.25217  0.06422  1.0000
  C   C460      1.0  0.36376  0.13968  0.17808  1.0000
  C   C461      1.0  0.38167  0.13786  0.17454  1.0000
  C   C462      1.0  0.38966  0.12205  0.16707  1.0000
  C   C463      1.0  0.37985  0.10769  0.16311  1.0000
  C   C464      1.0  0.36194  0.10956  0.16640  1.0000
  C   C465      1.0  0.35394  0.12540  0.17368  1.0000
  H   H793      1.0  0.38946  0.14879  0.17766  1.0000
  H   H794      1.0  0.40341  0.12097  0.16446  1.0000
  H   H795      1.0  0.35415  0.09860  0.16343  1.0000
  H   H796      1.0  0.34018  0.12648  0.17615  1.0000
  C   C466      1.0  0.24508  0.17158  0.22977  1.0000
  H   H797      1.0  0.41209  0.02626  0.00281  1.0000
  H   H798      1.0  0.42482  0.10210  0.31012  1.0000
  C   C467      1.0  0.41684  0.98994  0.12729  1.0000
  C   C468      1.0  0.31417  0.22926  0.28597  1.0000
  C   C469      1.0  0.30774  0.24330  0.30147  1.0000
  C   C470      1.0  0.31030  0.24424  0.33066  1.0000
  C   C471      1.0  0.31982  0.23135  0.34459  1.0000
  C   C472      1.0  0.32612  0.21725  0.32913  1.0000
  C   C473      1.0  0.32318  0.21610  0.30007  1.0000
  H   H799      1.0  0.30073  0.25354  0.29079  1.0000
  H   H800      1.0  0.30527  0.25510  0.34226  1.0000
  H   H801      1.0  0.33354  0.20724  0.33965  1.0000
  H   H802      1.0  0.32830  0.20527  0.28845  1.0000
  C   C474      1.0  0.30723  0.21954  0.08691  1.0000
  C   C475      1.0  0.30296  0.21839  0.05839  1.0000
  C   C476      1.0  0.30967  0.22967  0.03824  1.0000
  C   C477      1.0  0.32055  0.24245  0.04647  1.0000
  C   C478      1.0  0.32504  0.24340  0.07492  1.0000
  C   C479      1.0  0.31846  0.23202  0.09503  1.0000
  H   H803      1.0  0.29436  0.20871  0.05184  1.0000
  H   H804      1.0  0.30634  0.22856  0.01640  1.0000
  H   H805      1.0  0.33350  0.25319  0.08152  1.0000
  H   H806      1.0  0.32181  0.23314  0.11687  1.0000
  N   N33       1.0  0.35568  0.17726  0.10153  1.0000
  C   C480      1.0  0.36185  0.15891  0.10521  1.0000
  C   C481      1.0  0.33709  0.17829  0.11012  1.0000
  C   C482      1.0  0.35858  0.18265  0.07140  1.0000
  C   C483      1.0  0.38126  0.15528  0.10150  1.0000
  C   C484      1.0  0.32545  0.16572  0.09535  1.0000
  H   H807      1.0  0.35822  0.15401  0.12630  1.0000
  H   H808      1.0  0.35554  0.15052  0.09003  1.0000
  H   H809      1.0  0.33138  0.19124  0.10677  1.0000
  H   H810      1.0  0.33579  0.17589  0.13307  1.0000
  H   H811      1.0  0.33325  0.19226  0.05646  1.0000
  H   H812      1.0  0.35755  0.17165  0.05699  1.0000
  H   H813      1.0  0.38846  0.15960  0.11993  1.0000
  H   H814      1.0  0.38375  0.14126  0.10027  1.0000
  H   H815      1.0  0.38633  0.16109  0.08203  1.0000
  H   H816      1.0  0.32688  0.15279  0.10489  1.0000
  H   H817      1.0  0.31185  0.16998  0.09826  1.0000
  H   H818      1.0  0.32806  0.16493  0.07255  1.0000
  H   H819      1.0  0.36580  0.21361  0.10265  1.0000
  C   C485      1.0  0.48025  0.06280  0.29908  1.0000
  C   C486      1.0  0.43129  0.06029  0.02558  1.0000
  C   C487      1.0  0.26811  0.21871  0.26775  1.0000
  C   C488      1.0  0.47734  0.07985  0.05734  1.0000
  H   H820      1.0  0.28806  0.25664  0.01565  1.0000
  H   H821      1.0  0.36792  0.21288  0.13967  1.0000
  H   H822      1.0  0.38007  0.26885  0.40371  1.0000
  H   H823      1.0  0.48389  0.11230  0.44035  1.0000
  H   H824      1.0  0.26868  0.22146  0.32245  1.0000
  H   H825      1.0  0.26550  0.16237  0.28864  1.0000
  H   H826      1.0  0.34423  0.25370  0.32948  1.0000
  H   H827      1.0  0.47769  0.12282  0.47274  1.0000
  H   H828      1.0  0.38154  0.28774  0.38309  1.0000
  H   H829      1.0  0.27486  0.23654  0.98501  1.0000
  S   S145      1.0  0.25851  0.26343  0.45223  1.0000
  H   H830      1.0  0.25980  0.20549  0.36385  1.0000
  H   H831      1.0  0.37451  0.12505  0.24486  1.0000
  C   C489      1.0  0.24662  0.26401  0.03779  1.0000
  C   C490      1.0  0.27109  0.28304  0.04302  1.0000
  H   H832      1.0  0.34736  0.21009  0.12528  1.0000
  H   H833      1.0  0.36206  0.28323  0.40239  1.0000
  H   H834      1.0  0.25399  0.21933  0.27002  1.0000
  C   C491      1.0  0.29046  0.28564  0.04621  1.0000
  H   H835      1.0  0.46807  0.02862  0.06531  1.0000
  C   C492      1.0  0.36650  0.26761  0.36435  1.0000
  H   H836      1.0  0.39282  0.12581  0.26678  1.0000
  H   H837      1.0  0.37843  0.26282  0.35387  1.0000
  H   H838      1.0  0.29783  0.28160  0.02738  1.0000
  H   H839      1.0  0.27871  0.21674  0.37002  1.0000
  N   N34       1.0  0.27123  0.19559  0.30676  1.0000
  H   H840      1.0  0.27381  0.22955  0.27863  1.0000
  C   C493      1.0  0.28176  0.17952  0.31289  1.0000
  C   C494      1.0  0.27611  0.20938  0.32671  1.0000
  C   C495      1.0  0.25219  0.19295  0.30765  1.0000
  H   H841      1.0  0.37731  0.28893  0.32657  1.0000
  C   C496      1.0  0.27917  0.16461  0.29266  1.0000
  C   C497      1.0  0.24008  0.27419  0.46665  1.0000
  C   C498      1.0  0.32466  0.29129  0.34013  1.0000
  H   H842      1.0  0.25365  0.17921  0.34936  1.0000
  H   H843      1.0  0.27943  0.17451  0.33424  1.0000
  H   H844      1.0  0.29568  0.18225  0.31250  1.0000
  H   H845      1.0  0.28980  0.21235  0.32364  1.0000
  C   C499      1.0  0.27611  0.20141  0.27759  1.0000
  H   H846      1.0  0.48524  0.05721  0.08018  1.0000
  H   H847      1.0  0.24231  0.25093  0.04270  1.0000
  H   H848      1.0  0.26647  0.27322  0.09743  1.0000
  C   C500      1.0  0.44529  0.04687  0.03434  1.0000
  H   H849      1.0  0.25415  0.24028  0.99964  1.0000
  H   H850      1.0  0.47974  0.05780  0.32025  1.0000
  H   H851      1.0  0.27658  0.25424  0.10944  1.0000
  C   C501      1.0  0.36361  0.29227  0.33120  1.0000
  H   H852      1.0  0.28073  0.19435  0.36572  1.0000
  C   C502      1.0  0.33820  0.28176  0.35835  1.0000
  H   H853      1.0  0.24498  0.20540  0.30936  1.0000
  H   H854      1.0  0.24518  0.29894  0.44952  1.0000
  H   H855      1.0  0.46492  0.00660  0.05620  1.0000
  H   H856      1.0  0.33994  0.28964  0.37707  1.0000
  S   S146      1.0  0.30452  0.28490  0.47275  1.0000
  H   H857      1.0  0.43702  0.07098  0.01382  1.0000
  C   C503      1.0  0.26798  0.24017  0.00461  1.0000
  C   C504      1.0  0.24181  0.18921  0.23023  1.0000
  H   H858      1.0  0.47523  0.03350  0.01293  1.0000
  H   H859      1.0  0.33222  0.27007  0.36680  1.0000
  H   H860      1.0  0.42047  0.05534  0.01381  1.0000
  H   H861      1.0  0.27108  0.22054  0.24517  1.0000
  N   N35       1.0  0.44769  0.03131  0.01614  1.0000
  H   H862      1.0  0.28495  0.15270  0.30177  1.0000
  H   H863      1.0  0.47217  0.10094  0.02905  1.0000
  H   H864      1.0  0.27246  0.19197  0.26168  1.0000
  N   N36       1.0  0.35494  0.27711  0.34389  1.0000
  C   C505      1.0  0.35090  0.26487  0.32078  1.0000
  C   C506      1.0  0.44532  0.03519  0.98535  1.0000
  H   H865      1.0  0.41284  0.03192  0.03984  1.0000
  C   C507      1.0  0.36622  0.25768  0.30342  1.0000
  H   H866      1.0  0.37963  0.18703  0.11631  1.0000
  H   H867      1.0  0.25427  0.25405  0.10020  1.0000
  H   H868      1.0  0.28579  0.16673  0.27237  1.0000
  H   H869      1.0  0.34198  0.27096  0.30530  1.0000
  H   H870      1.0  0.29262  0.29944  0.04876  1.0000
  C   C508      1.0  0.41644  0.02218  0.02392  1.0000
  H   H871      1.0  0.23654  0.28984  0.04781  1.0000
  H   H872      1.0  0.29026  0.20224  0.27551  1.0000
  H   H873      1.0  0.37420  0.26781  0.29455  1.0000
  H   H874      1.0  0.37422  0.24836  0.31562  1.0000
  H   H875      1.0  0.36119  0.25052  0.28543  1.0000
  S   S147      1.0  0.46555  0.08939  0.08547  1.0000
  C   C509      1.0  0.43571  0.01756  0.02491  1.0000
  C   C510      1.0  0.36572  0.18790  0.12132  1.0000
  H   H876      1.0  0.27112  0.23004  0.02023  1.0000
  C   C511      1.0  0.24541  0.18098  0.33084  1.0000
  N   N37       1.0  0.40963  0.09546  0.24307  1.0000
  C   C512      1.0  0.41089  0.07914  0.22648  1.0000
  C   C513      1.0  0.42225  0.10743  0.23023  1.0000
  C   C514      1.0  0.39156  0.10277  0.24024  1.0000
  C   C515      1.0  0.41369  0.09102  0.27316  1.0000
  C   C516      1.0  0.39698  0.06607  0.23261  1.0000
  C   C517      1.0  0.44129  0.10185  0.23287  1.0000
  C   C518      1.0  0.38849  0.12196  0.24590  1.0000
  C   C519      1.0  0.41546  0.10595  0.29361  1.0000
  H   H877      1.0  0.41041  0.08194  0.20359  1.0000
  H   H878      1.0  0.42335  0.07225  0.22999  1.0000
  H   H879      1.0  0.42111  0.12036  0.23928  1.0000
  H   H880      1.0  0.41947  0.10943  0.20752  1.0000
  H   H881      1.0  0.38682  0.10088  0.21858  1.0000
  H   H882      1.0  0.38263  0.09584  0.25420  1.0000
  H   H883      1.0  0.40360  0.08302  0.28237  1.0000
  H   H884      1.0  0.42548  0.08263  0.27477  1.0000
  H   H885      1.0  0.38410  0.07089  0.22602  1.0000
  H   H886      1.0  0.39987  0.05444  0.22012  1.0000
  H   H887      1.0  0.39672  0.06198  0.25486  1.0000
  H   H888      1.0  0.44533  0.10040  0.25501  1.0000
  H   H889      1.0  0.44435  0.08991  0.22151  1.0000
  H   H890      1.0  0.44928  0.11176  0.22317  1.0000
  H   H891      1.0  0.39447  0.12991  0.22945  1.0000
  H   H892      1.0  0.31857  0.28257  0.32535  1.0000
  N   N38       1.0  0.26585  0.26480  0.04052  1.0000
  H   H893      1.0  0.45734  0.05391  0.03468  1.0000
  C   C520      1.0  0.34638  0.19680  0.05934  1.0000
  H   H894      1.0  0.26670  0.29057  0.02434  1.0000
  H   H895      1.0  0.35106  0.20066  0.03826  1.0000
  H   H896      1.0  0.27142  0.26678  0.99597  1.0000
  H   H897      1.0  0.24805  0.18739  0.28755  1.0000
  H   H898      1.0  0.42571  0.06622  0.04476  1.0000
  C   C521      1.0  0.47856  0.08857  0.03151  1.0000
  H   H899      1.0  0.35966  0.30750  0.37065  1.0000
  H   H900      1.0  0.43804  0.01349  0.04689  1.0000
  H   H901      1.0  0.26486  0.28954  0.06109  1.0000
  H   H902      1.0  0.24266  0.16833  0.32198  1.0000
  H   H903      1.0  0.29582  0.27903  0.06500  1.0000
  H   H904      1.0  0.37600  0.31454  0.34795  1.0000
  H   H905      1.0  0.24266  0.26662  0.01574  1.0000
  C   C522      1.0  0.46574  0.02407  0.01962  1.0000
  H   H906      1.0  0.47149  0.10153  0.46594  1.0000
  H   H907      1.0  0.46809  0.01284  0.00579  1.0000
  H   H908      1.0  0.48171  0.08075  0.22284  1.0000
  H   H909      1.0  0.44764  0.98435  0.07739  1.0000
  S   S148      1.0  0.33058  0.31522  0.41823  1.0000
  S   S149      1.0  0.47972  0.06488  0.45018  1.0000
  C   C523      1.0  0.23608  0.29138  0.46083  1.0000
  H   H910      1.0  0.35775  0.29566  0.31057  1.0000
  Fe  Fe76      1.0  0.32049  0.26054  0.47681  1.0000
  C   C524      1.0  0.48116  0.07576  0.24402  1.0000
  H   H911      1.0  0.35489  0.28725  0.47971  1.0000
  H   H912      1.0  0.33466  0.30773  0.47767  1.0000
  H   H913      1.0  0.45960  0.05918  0.98585  1.0000
  H   H914      1.0  0.23830  0.27579  0.07806  1.0000
  H   H915      1.0  0.32990  0.30218  0.32843  1.0000
  C   C525      1.0  0.48202  0.11057  0.46328  1.0000
  H   H916      1.0  0.48500  0.01591  0.05008  1.0000
  Fe  Fe77      1.0  0.30872  0.19835  0.66112  1.0000
  S   S150      1.0  0.30538  0.17040  0.67041  1.0000
  S   S151      1.0  0.30314  0.20607  0.61550  1.0000
  Fe  Fe78      1.0  0.31522  0.20546  0.72363  1.0000
  S   S152      1.0  0.31194  0.17817  0.73643  1.0000
  S   S153      1.0  0.32309  0.22680  0.75269  1.0000
  Fe  Fe79      1.0  0.32839  0.17151  0.69841  1.0000
  S   S154      1.0  0.35363  0.15524  0.70276  1.0000
  Fe  Fe80      1.0  0.28921  0.17945  0.70733  1.0000
  S   S155      1.0  0.26310  0.16743  0.71373  1.0000
  S   S156      1.0  0.33261  0.19903  0.68692  1.0000
  S   S157      1.0  0.29155  0.20719  0.69673  1.0000
  H   H917      1.0  0.43886  0.01210  0.53320  1.0000
  H   H918      1.0  0.37994  0.21162  0.78128  1.0000
  S   S158      1.0  0.33330  0.25377  0.51873  1.0000
  Fe  Fe81      1.0  0.32154  0.25346  0.91454  1.0000
  S   S159      1.0  0.30775  0.27778  0.90172  1.0000
  S   S160      1.0  0.32598  0.23021  0.88627  1.0000
  Fe  Fe82      1.0  0.32601  0.29104  0.93046  1.0000
  H   H919      1.0  0.35736  0.21220  0.78355  1.0000
  Fe  Fe83      1.0  0.29075  0.27392  0.93952  1.0000
  H   H920      1.0  0.38564  0.05958  0.72407  1.0000
  S   S161      1.0  0.34066  0.26659  0.94151  1.0000
  S   S162      1.0  0.30374  0.24888  0.95094  1.0000
  Fe  Fe84      1.0  0.42128  0.07678  0.65231  1.0000
  S   S163      1.0  0.44775  0.08740  0.64762  1.0000
  S   S164      1.0  0.39468  0.09065  0.64826  1.0000
  Fe  Fe85      1.0  0.43560  0.03997  0.65803  1.0000
  S   S165      1.0  0.46258  0.04832  0.65478  1.0000
  S   S166      1.0  0.43236  0.01160  0.66693  1.0000
  Fe  Fe86      1.0  0.45507  0.06970  0.68369  1.0000
  H   H921      1.0  0.39380  0.05782  0.67472  1.0000
  Fe  Fe87      1.0  0.45377  0.06512  0.61896  1.0000
  H   H922      1.0  0.37277  0.30683  0.52668  1.0000
  S   S167      1.0  0.42844  0.06021  0.68988  1.0000
  S   S168      1.0  0.42691  0.05555  0.62080  1.0000
  H   H923      1.0  0.47631  0.00197  0.78744  1.0000
  C   C526      1.0  0.46070  0.06672  0.53010  1.0000
  H   H924      1.0  0.35778  0.20508  0.82895  1.0000
  N   N39       1.0  0.46455  0.00395  0.57195  1.0000
  H   H925      1.0  0.44828  0.06877  0.53988  1.0000
  H   H926      1.0  0.38322  0.05127  0.62194  1.0000
  H   H927      1.0  0.36757  0.31269  0.95008  1.0000
  C   C527      1.0  0.26502  0.23623  0.79851  1.0000
  H   H928      1.0  0.37225  0.06011  0.66393  1.0000
  H   H929      1.0  0.48259  0.03190  0.72309  1.0000
  H   H930      1.0  0.37430  0.07593  0.70515  1.0000
  H   H931      1.0  0.36526  0.03735  0.62469  1.0000
  C   C528      1.0  0.36839  0.20571  0.77270  1.0000
  C   C529      1.0  0.42738  0.99455  0.64443  1.0000
  C   C530      1.0  0.41714  0.99699  0.62070  1.0000
  H   H932      1.0  0.45101  0.07010  0.76054  1.0000
  H   H933      1.0  0.41272  0.00970  0.61476  1.0000
  H   H934      1.0  0.30715  0.27008  0.81423  1.0000
  H   H935      1.0  0.36357  0.18783  0.85184  1.0000
  C   C531      1.0  0.29310  0.27071  0.81774  1.0000
  H   H936      1.0  0.40147  0.19729  0.75753  1.0000
  C   C532      1.0  0.36138  0.02975  0.68131  1.0000
  C   C533      1.0  0.36467  0.13705  0.68750  1.0000
  C   C534      1.0  0.38186  0.13335  0.69485  1.0000
  C   C535      1.0  0.39122  0.11926  0.68330  1.0000
  C   C536      1.0  0.38356  0.10860  0.66404  1.0000
  C   C537      1.0  0.36634  0.11225  0.65681  1.0000
  C   C538      1.0  0.35695  0.12626  0.66852  1.0000
  H   H937      1.0  0.38805  0.14146  0.70958  1.0000
  H   H938      1.0  0.40441  0.11672  0.68920  1.0000
  H   H939      1.0  0.36015  0.10410  0.64214  1.0000
  H   H940      1.0  0.34368  0.12856  0.66306  1.0000
  C   C539      1.0  0.24440  0.17495  0.73211  1.0000
  C   C540      1.0  0.24444  0.18901  0.74995  1.0000
  H   H941      1.0  0.35812  0.29373  0.55989  1.0000
  H   H942      1.0  0.25613  0.19575  0.75268  1.0000
  C   C541      1.0  0.32366  0.22736  0.78986  1.0000
  C   C542      1.0  0.31857  0.21372  0.80664  1.0000
  C   C543      1.0  0.31963  0.21470  0.83608  1.0000
  C   C544      1.0  0.32525  0.22949  0.84911  1.0000
  C   C545      1.0  0.33033  0.24311  0.83232  1.0000
  C   C546      1.0  0.32967  0.24197  0.80287  1.0000
  H   H943      1.0  0.31383  0.20242  0.79697  1.0000
  H   H944      1.0  0.31579  0.20403  0.84889  1.0000
  H   H945      1.0  0.33489  0.25449  0.84201  1.0000
  H   H946      1.0  0.33375  0.25255  0.79008  1.0000
  C   C547      1.0  0.31125  0.22043  0.58985  1.0000
  C   C548      1.0  0.32608  0.22955  0.59393  1.0000
  C   C549      1.0  0.33261  0.23976  0.57204  1.0000
  C   C550      1.0  0.32428  0.24118  0.54599  1.0000
  C   C551      1.0  0.30932  0.23226  0.54212  1.0000
  C   C552      1.0  0.30293  0.22191  0.56385  1.0000
  H   H947      1.0  0.33264  0.22857  0.61377  1.0000
  H   H948      1.0  0.34420  0.24657  0.57529  1.0000
  H   H949      1.0  0.30276  0.23319  0.52226  1.0000
  H   H950      1.0  0.29147  0.21492  0.56039  1.0000
  N   N40       1.0  0.34554  0.16882  0.59724  1.0000
  C   C553      1.0  0.32724  0.16323  0.59641  1.0000
  C   C554      1.0  0.34561  0.18689  0.58620  1.0000
  C   C555      1.0  0.35090  0.16860  0.62753  1.0000
  C   C556      1.0  0.35660  0.15656  0.58017  1.0000
  C   C557      1.0  0.32384  0.14551  0.60920  1.0000
  C   C558      1.0  0.33838  0.18968  0.55645  1.0000
  C   C559      1.0  0.36894  0.17468  0.63396  1.0000
  C   C560      1.0  0.37366  0.16322  0.56847  1.0000
  H   H951      1.0  0.31853  0.17262  0.60730  1.0000
  H   H952      1.0  0.32257  0.16278  0.57448  1.0000
  H   H953      1.0  0.35853  0.19215  0.58603  1.0000
  H   H954      1.0  0.33810  0.19546  0.60049  1.0000
  H   H955      1.0  0.34165  0.17645  0.64027  1.0000
  H   H956      1.0  0.35063  0.15553  0.63647  1.0000
  H   H957      1.0  0.35969  0.14475  0.59256  1.0000
  H   H958      1.0  0.34938  0.15238  0.56154  1.0000
  H   H959      1.0  0.32456  0.14561  0.63239  1.0000
  H   H960      1.0  0.31056  0.14207  0.60411  1.0000
  H   H961      1.0  0.33258  0.13536  0.60073  1.0000
  H   H962      1.0  0.34367  0.18023  0.54132  1.0000
  H   H963      1.0  0.32418  0.18943  0.55659  1.0000
  H   H964      1.0  0.34166  0.20257  0.54873  1.0000
  H   H965      1.0  0.37895  0.16554  0.62605  1.0000
  H   H966      1.0  0.37051  0.17494  0.65707  1.0000
  H   H967      1.0  0.37108  0.18779  0.62634  1.0000
  H   H968      1.0  0.38337  0.15252  0.56828  1.0000
  H   H969      1.0  0.37928  0.17354  0.58051  1.0000
  H   H970      1.0  0.37222  0.16726  0.54622  1.0000
  H   H971      1.0  0.35750  0.02981  0.70382  1.0000
  H   H972      1.0  0.38412  0.03103  0.60525  1.0000
  H   H973      1.0  0.27094  0.27440  0.87410  1.0000
  C   C561      1.0  0.47739  0.07538  0.75239  1.0000
  H   H974      1.0  0.40398  0.03153  0.69990  1.0000
  N   N41       1.0  0.37984  0.03454  0.67817  1.0000
  H   H975      1.0  0.45432  0.06925  0.81239  1.0000
  H   H976      1.0  0.40882  0.17625  0.74868  1.0000
  H   H977      1.0  0.43222  0.04016  0.98068  1.0000
  C   C562      1.0  0.39202  0.00735  0.70351  1.0000
  H   H978      1.0  0.39678  0.00129  0.68396  1.0000
  H   H979      1.0  0.27903  0.23400  0.79684  1.0000
  N   N42       1.0  0.26933  0.25438  0.84328  1.0000
  H   H980      1.0  0.25303  0.23620  0.86384  1.0000
  H   H981      1.0  0.45512  0.03038  0.57451  1.0000
  S   S169      1.0  0.47418  0.06344  0.58405  1.0000
  C   C563      1.0  0.43524  0.01674  0.55424  1.0000
  H   H982      1.0  0.24577  0.24984  0.82168  1.0000
  H   H983      1.0  0.29018  0.28341  0.82690  1.0000
  C   C564      1.0  0.26274  0.27091  0.85613  1.0000
  C   C565      1.0  0.26648  0.24026  0.86439  1.0000
  H   H984      1.0  0.48099  0.12692  0.52237  1.0000
  S   S170      1.0  0.26179  0.27102  0.93460  1.0000
  H   H985      1.0  0.42476  0.00901  0.56277  1.0000
  C   C566      1.0  0.37940  0.03782  0.62428  1.0000
  H   H986      1.0  0.28709  0.26966  0.79689  1.0000
  H   H987      1.0  0.26339  0.28166  0.84087  1.0000
  H   H988      1.0  0.37971  0.00198  0.71026  1.0000
  C   C567      1.0  0.24407  0.27818  0.95550  1.0000
  C   C568      1.0  0.47802  0.02049  0.53089  1.0000
  C   C569      1.0  0.27799  0.22398  0.86200  1.0000
  H   H989      1.0  0.44428  0.01638  0.59625  1.0000
  H   H990      1.0  0.38494  0.18998  0.81456  1.0000
  H   H991      1.0  0.34662  0.18529  0.82769  1.0000
  C   C570      1.0  0.38068  0.05371  0.67984  1.0000
  H   H992      1.0  0.35288  0.03954  0.67083  1.0000
  H   H993      1.0  0.40569  0.18141  0.78467  1.0000
  H   H994      1.0  0.40149  0.03234  0.64983  1.0000
  C   C571      1.0  0.25948  0.25164  0.81674  1.0000
  N   N43       1.0  0.36867  0.18679  0.77860  1.0000
  C   C572      1.0  0.38201  0.17745  0.76100  1.0000
  C   C573      1.0  0.35141  0.18008  0.77154  1.0000
  C   C574      1.0  0.34852  0.16134  0.77994  1.0000
  C   C575      1.0  0.36692  0.21106  0.74163  1.0000
  H   H995      1.0  0.37843  0.17778  0.73843  1.0000
  H   H996      1.0  0.38275  0.16366  0.76665  1.0000
  H   H997      1.0  0.34090  0.18811  0.78093  1.0000
  H   H998      1.0  0.34921  0.18089  0.74858  1.0000
  H   H999      1.0  0.35726  0.15236  0.76851  1.0000
  H   H1000     1.0  0.33534  0.15805  0.77402  1.0000
  H   H1001     1.0  0.34954  0.15905  0.80280  1.0000
  H   H1002     1.0  0.37824  0.20684  0.72907  1.0000
  H   H1003     1.0  0.36593  0.22521  0.74021  1.0000
  H   H1004     1.0  0.35521  0.20632  0.73206  1.0000
  C   C576      1.0  0.35642  0.01246  0.66889  1.0000
  H   H1005     1.0  0.26853  0.24487  0.88615  1.0000
  C   C577      1.0  0.46532  0.07151  0.79915  1.0000
  H   H1006     1.0  0.34625  0.00698  0.68225  1.0000
  H   H1007     1.0  0.36684  0.00262  0.66763  1.0000
  H   H1008     1.0  0.36307  0.05750  0.71604  1.0000
  C   C578      1.0  0.36372  0.30683  0.50880  1.0000
  H   H1009     1.0  0.48301  0.99404  0.54174  1.0000
  H   H1010     1.0  0.29408  0.24426  0.82882  1.0000
  C   C579      1.0  0.28820  0.25605  0.83768  1.0000
  H   H1011     1.0  0.43006  0.02996  0.55070  1.0000
  H   H1012     1.0  0.25913  0.26324  0.80310  1.0000
  H   H1013     1.0  0.36981  0.31497  0.49256  1.0000
  H   H1014     1.0  0.27892  0.21880  0.84060  1.0000
  H   H1015     1.0  0.38759  0.01541  0.64719  1.0000
  H   H1016     1.0  0.29099  0.22638  0.86975  1.0000
  H   H1017     1.0  0.47055  0.04171  0.96813  1.0000
  H   H1018     1.0  0.27283  0.21388  0.87581  1.0000
  C   C580      1.0  0.40240  0.30896  0.84834  1.0000
  H   H1019     1.0  0.35056  0.01436  0.64791  1.0000
  C   C581      1.0  0.45021  0.01722  0.57506  1.0000
  C   C582      1.0  0.46231  0.06675  0.50059  1.0000
  C   C583      1.0  0.46337  0.07204  0.76974  1.0000
  C   C584      1.0  0.40044  0.18368  0.76339  1.0000
  H   H1020     1.0  0.37511  0.17009  0.81381  1.0000
  C   C585      1.0  0.37278  0.18390  0.80913  1.0000
  H   H1021     1.0  0.45078  0.98723  0.59981  1.0000
  H   H1022     1.0  0.40153  0.00368  0.71989  1.0000
  C   C586      1.0  0.47196  0.00339  0.54268  1.0000
  C   C587      1.0  0.39066  0.02693  0.70150  1.0000
  H   H1023     1.0  0.29509  0.25769  0.85772  1.0000
  C   C588      1.0  0.35927  0.19098  0.83021  1.0000
  H   H1024     1.0  0.41522  0.30404  0.85488  1.0000
  C   C589      1.0  0.38766  0.02934  0.65040  1.0000
  H   H1025     1.0  0.46278  0.99871  0.52723  1.0000
  C   C590      1.0  0.24468  0.29254  0.97258  1.0000
  C   C591      1.0  0.37554  0.06186  0.70811  1.0000
  C   C592      1.0  0.47875  0.00875  0.59141  1.0000
  C   C593      1.0  0.47836  0.06409  0.48742  1.0000
  C   C594      1.0  0.47520  0.06408  0.54680  1.0000
  H   H1026     1.0  0.24190  0.26148  0.88341  1.0000
  H   H1027     1.0  0.40384  0.98480  0.58721  1.0000
  C   C595      1.0  0.47619  0.01322  0.80113  1.0000
  H   H1028     1.0  0.33246  0.29061  0.51936  1.0000
  H   H1029     1.0  0.38571  0.03109  0.72232  1.0000
  C   C596      1.0  0.24404  0.27123  0.86693  1.0000
  H   H1030     1.0  0.24116  0.28378  0.87686  1.0000
  H   H1031     1.0  0.25897  0.22442  0.80598  1.0000
  H   H1032     1.0  0.45104  0.06893  0.48786  1.0000
  S   S171      1.0  0.47589  0.07620  0.71514  1.0000
  C   C597      1.0  0.45886  0.98645  0.58059  1.0000
  H   H1033     1.0  0.46608  0.02256  0.79400  1.0000
  H   H1034     1.0  0.26096  0.23877  0.77655  1.0000
  S   S172      1.0  0.48282  0.07386  0.84884  1.0000
  H   H1035     1.0  0.47410  0.99317  0.62953  1.0000
  H   H1036     1.0  0.45284  0.05267  0.95196  1.0000
  H   H1037     1.0  0.46325  0.01387  0.62970  1.0000
  C   C598      1.0  0.36405  0.28859  0.49702  1.0000
  Fe  Fe88      1.0  0.32132  0.26401  0.97682  1.0000
  H   H1038     1.0  0.36136  0.27903  0.51359  1.0000
  C   C599      1.0  0.34398  0.29427  0.56023  1.0000
  H   H1039     1.0  0.39285  0.30236  0.86153  1.0000
  C   C600      1.0  0.48130  0.07403  0.81160  1.0000
  S   S173      1.0  0.30752  0.28923  0.96731  1.0000
  C   C601      1.0  0.45783  0.04795  0.97244  1.0000
  H   H1040     1.0  0.46736  0.03016  0.52980  1.0000
  H   H1041     1.0  0.48281  0.01865  0.50911  1.0000
  H   H1042     1.0  0.25638  0.29946  0.97371  1.0000
  C   C602      1.0  0.33595  0.30143  0.53285  1.0000
  C   C603      1.0  0.47502  0.00674  0.62311  1.0000
  H   H1043     1.0  0.40005  0.30532  0.82634  1.0000
  H   H1044     1.0  0.34010  0.28090  0.56344  1.0000
  H   H1045     1.0  0.37704  0.28536  0.48859  1.0000
  H   H1046     1.0  0.47196  0.00879  0.82217  1.0000
  H   H1047     1.0  0.48039  0.03931  0.75826  1.0000
  H   H1048     1.0  0.33957  0.30196  0.57850  1.0000
  H   H1049     1.0  0.48214  0.02231  0.58818  1.0000
  S   S174      1.0  0.33764  0.31565  0.91225  1.0000
  H   H1050     1.0  0.44670  0.02325  0.97294  1.0000
  H   H1051     1.0  0.32331  0.30716  0.53918  1.0000
  N   N44       1.0  0.34628  0.31420  0.51695  1.0000
  H   H1052     1.0  0.48573  0.01199  0.63509  1.0000
  H   H1053     1.0  0.43735  0.98317  0.55114  1.0000
  Fe  Fe89      1.0  0.42131  0.57491  0.32572  1.0000
  S   S175      1.0  0.44584  0.58674  0.31187  1.0000
  S   S176      1.0  0.39465  0.58891  0.32536  1.0000
  Fe  Fe90      1.0  0.43901  0.53872  0.33351  1.0000
  S   S177      1.0  0.46419  0.54884  0.31901  1.0000
  S   S178      1.0  0.44428  0.51028  0.34363  1.0000
  Fe  Fe91      1.0  0.45806  0.57104  0.34724  1.0000
  C   C604      1.0  0.46708  0.39719  0.03670  1.0000
  Fe  Fe92      1.0  0.45003  0.56329  0.28529  1.0000
  S   S179      1.0  0.45438  0.56140  0.23782  1.0000
  S   S180      1.0  0.43334  0.56061  0.36302  1.0000
  S   S181      1.0  0.42504  0.55190  0.29782  1.0000
  Fe  Fe93      1.0  0.41848  0.37623  0.40613  1.0000
  S   S182      1.0  0.44641  0.36974  0.39659  1.0000
  S   S183      1.0  0.40272  0.35293  0.42025  1.0000
  Fe  Fe94      1.0  0.42456  0.41483  0.39417  1.0000
  S   S184      1.0  0.45243  0.41031  0.38463  1.0000
  S   S185      1.0  0.41180  0.44159  0.38997  1.0000
  Fe  Fe95      1.0  0.44415  0.38791  0.35973  1.0000
  S   S186      1.0  0.45055  0.38203  0.31360  1.0000
  Fe  Fe96      1.0  0.45237  0.39267  0.42257  1.0000
  H   H1054     1.0  0.44314  0.52392  0.46711  1.0000
  S   S187      1.0  0.41595  0.39305  0.36768  1.0000
  S   S188      1.0  0.42479  0.39858  0.43376  1.0000
  C   C605      1.0  0.46569  0.39670  0.00723  1.0000
  C   C606      1.0  0.47637  0.52975  0.47726  1.0000
  C   C607      1.0  0.48255  0.57067  0.16749  1.0000
  H   H1055     1.0  0.45536  0.37800  0.25435  1.0000
  H   H1056     1.0  0.45831  0.55988  0.17820  1.0000
  H   H1057     1.0  0.45585  0.54146  0.41964  1.0000
  H   H1058     1.0  0.46150  0.45154  0.31897  1.0000
  H   H1059     1.0  0.42891  0.51800  0.43936  1.0000
  C   C608      1.0  0.48280  0.40019  0.04966  1.0000
  H   H1060     1.0  0.45474  0.43832  0.00565  1.0000
  C   C609      1.0  0.43879  0.52701  0.44568  1.0000
  H   H1061     1.0  0.45351  0.39428  0.99769  1.0000
  H   H1062     1.0  0.46380  0.48223  0.40733  1.0000
  H   H1063     1.0  0.46897  0.49412  0.98875  1.0000
  C   C610      1.0  0.43469  0.49147  0.35643  1.0000
  C   C611      1.0  0.41738  0.49091  0.36393  1.0000
  C   C612      1.0  0.41062  0.47559  0.37426  1.0000
  C   C613      1.0  0.42104  0.46068  0.37741  1.0000
  C   C614      1.0  0.43839  0.46133  0.37017  1.0000
  C   C615      1.0  0.44509  0.47656  0.35953  1.0000
  H   H1064     1.0  0.40919  0.50224  0.36173  1.0000
  H   H1065     1.0  0.39719  0.47527  0.37984  1.0000
  H   H1066     1.0  0.44662  0.45006  0.37268  1.0000
  H   H1067     1.0  0.45850  0.47685  0.35388  1.0000
  H   H1068     1.0  0.44707  0.52361  0.40325  1.0000
  C   C616      1.0  0.45580  0.48805  0.42425  1.0000
  C   C617      1.0  0.47103  0.56828  0.21530  1.0000
  H   H1069     1.0  0.35958  0.60107  0.32046  1.0000
  H   H1070     1.0  0.38139  0.64665  0.39541  1.0000
  C   C618      1.0  0.47006  0.57357  0.45863  1.0000
  C   C619      1.0  0.46801  0.57494  0.42934  1.0000
  N   N45       1.0  0.46937  0.51742  0.42842  1.0000
  C   C620      1.0  0.46589  0.38528  0.26177  1.0000
  H   H1071     1.0  0.44423  0.49444  0.41514  1.0000
  H   H1072     1.0  0.45533  0.57576  0.42041  1.0000
  H   H1073     1.0  0.39095  0.62598  0.24160  1.0000
  H   H1074     1.0  0.34563  0.62825  0.30377  1.0000
  H   H1075     1.0  0.45832  0.42985  0.33079  1.0000
  C   C621      1.0  0.36561  0.31753  0.43033  1.0000
  H   H1076     1.0  0.47874  0.49354  0.44660  1.0000
  C   C622      1.0  0.38254  0.34264  0.41881  1.0000
  C   C623      1.0  0.36786  0.35031  0.40677  1.0000
  C   C624      1.0  0.35220  0.34175  0.40679  1.0000
  C   C625      1.0  0.45304  0.52779  0.42309  1.0000
  H   H1077     1.0  0.36854  0.36294  0.39765  1.0000
  H   H1078     1.0  0.34100  0.34797  0.39758  1.0000
  H   H1079     1.0  0.43203  0.53969  0.44676  1.0000
  C   C626      1.0  0.38730  0.63808  0.29525  1.0000
  C   C627      1.0  0.39530  0.62256  0.30451  1.0000
  C   C628      1.0  0.38541  0.60900  0.31360  1.0000
  C   C629      1.0  0.36743  0.61138  0.31345  1.0000
  C   C630      1.0  0.35944  0.62686  0.30402  1.0000
  C   C631      1.0  0.48068  0.39828  0.29982  1.0000
  H   H1080     1.0  0.40911  0.62111  0.30469  1.0000
  C   C632      1.0  0.38122  0.32616  0.43056  1.0000
  N   N46       1.0  0.41219  0.59816  0.22035  1.0000
  C   C633      1.0  0.42389  0.61261  0.22589  1.0000
  C   C634      1.0  0.39518  0.60565  0.21061  1.0000
  C   C635      1.0  0.41936  0.58650  0.19795  1.0000
  C   C636      1.0  0.41036  0.58794  0.24703  1.0000
  C   C637      1.0  0.44283  0.60752  0.23160  1.0000
  C   C638      1.0  0.38425  0.61501  0.23305  1.0000
  C   C639      1.0  0.42339  0.59507  0.16957  1.0000
  C   C640      1.0  0.39804  0.57300  0.24606  1.0000
  H   H1081     1.0  0.42372  0.62195  0.20820  1.0000
  H   H1082     1.0  0.41931  0.62002  0.24444  1.0000
  H   H1083     1.0  0.38719  0.59582  0.20114  1.0000
  H   H1084     1.0  0.39705  0.61508  0.19339  1.0000
  H   H1085     1.0  0.43120  0.57965  0.20514  1.0000
  H   H1086     1.0  0.41034  0.57620  0.19358  1.0000
  H   H1087     1.0  0.42291  0.58206  0.25327  1.0000
  H   H1088     1.0  0.40685  0.59614  0.26522  1.0000
  H   H1089     1.0  0.44996  0.61923  0.23567  1.0000
  H   H1090     1.0  0.44438  0.59929  0.25043  1.0000
  H   H1091     1.0  0.40496  0.56111  0.23928  1.0000
  H   H1092     1.0  0.48047  0.53118  0.23922  1.0000
  H   H1093     1.0  0.37227  0.62024  0.22337  1.0000
  H   H1094     1.0  0.38035  0.60638  0.25030  1.0000
  H   H1095     1.0  0.41166  0.60038  0.15934  1.0000
  H   H1096     1.0  0.42912  0.58529  0.15527  1.0000
  H   H1097     1.0  0.43289  0.60513  0.17148  1.0000
  H   H1098     1.0  0.34481  0.32741  0.47685  1.0000
  H   H1099     1.0  0.38691  0.57540  0.23229  1.0000
  H   H1100     1.0  0.31421  0.33175  0.47301  1.0000
  N   N47       1.0  0.43257  0.43829  0.28831  1.0000
  C   C641      1.0  0.45164  0.43461  0.28626  1.0000
  C   C642      1.0  0.42456  0.43136  0.26229  1.0000
  C   C643      1.0  0.42584  0.42916  0.31396  1.0000
  C   C644      1.0  0.42973  0.45734  0.29065  1.0000
  C   C645      1.0  0.46212  0.43797  0.31285  1.0000
  C   C646      1.0  0.43158  0.43787  0.23400  1.0000
  C   C647      1.0  0.40691  0.42403  0.31356  1.0000
  C   C648      1.0  0.41110  0.46408  0.29324  1.0000
  H   H1101     1.0  0.45425  0.42107  0.28047  1.0000
  H   H1102     1.0  0.45750  0.44235  0.26932  1.0000
  H   H1103     1.0  0.41055  0.43407  0.26190  1.0000
  H   H1104     1.0  0.42618  0.41716  0.26218  1.0000
  H   H1105     1.0  0.43325  0.41696  0.31776  1.0000
  H   H1106     1.0  0.42767  0.43685  0.33304  1.0000
  H   H1107     1.0  0.43618  0.46218  0.30940  1.0000
  H   H1108     1.0  0.43568  0.46400  0.27260  1.0000
  H   H1109     1.0  0.42723  0.45302  0.99423  1.0000
  S   S189      1.0  0.48047  0.57840  0.37484  1.0000
  C   C649      1.0  0.35088  0.32532  0.41863  1.0000
  H   H1110     1.0  0.44501  0.43333  0.23026  1.0000
  H   H1111     1.0  0.42393  0.43256  0.21683  1.0000
  H   H1112     1.0  0.43045  0.45193  0.23200  1.0000
  H   H1113     1.0  0.39796  0.43384  0.30483  1.0000
  H   H1114     1.0  0.40254  0.42153  0.33534  1.0000
  H   H1115     1.0  0.40563  0.41205  0.30163  1.0000
  H   H1116     1.0  0.40319  0.46041  0.27528  1.0000
  H   H1117     1.0  0.41097  0.47825  0.29365  1.0000
  H   H1118     1.0  0.40526  0.45998  0.31333  1.0000
  C   C650      1.0  0.36931  0.64035  0.29465  1.0000
  H   H1119     1.0  0.45588  0.39509  0.04957  1.0000
  C   C651      1.0  0.46698  0.38890  0.29055  1.0000
  C   C652      1.0  0.46956  0.56573  0.18626  1.0000
  H   H1120     1.0  0.39255  0.57093  0.26733  1.0000
  H   H1121     1.0  0.44920  0.60120  0.21344  1.0000
  H   H1122     1.0  0.47713  0.51931  0.16304  1.0000
  C   C653      1.0  0.46629  0.50027  0.44174  1.0000
  C   C654      1.0  0.48156  0.52349  0.21981  1.0000
  S   S190      1.0  0.47525  0.39388  0.45246  1.0000
  H   H1123     1.0  0.48205  0.43692  0.01334  1.0000
  H   H1124     1.0  0.45959  0.50142  0.46216  1.0000
  C   C655      1.0  0.48150  0.52703  0.44637  1.0000
  C   C656      1.0  0.38276  0.64774  0.37234  1.0000
  H   H1125     1.0  0.45148  0.47739  0.43770  1.0000
  H   H1126     1.0  0.47581  0.43473  0.30844  1.0000
  H   H1127     1.0  0.47061  0.52763  0.20647  1.0000
  H   H1128     1.0  0.48177  0.40108  0.32188  1.0000
  H   H1129     1.0  0.47644  0.35808  0.09862  1.0000
  H   H1130     1.0  0.47479  0.42915  0.47082  1.0000
  H   H1131     1.0  0.45884  0.57320  0.47202  1.0000
  C   C657      1.0  0.48008  0.39909  0.99024  1.0000
  H   H1132     1.0  0.37709  0.63663  0.36212  1.0000
  H   H1133     1.0  0.47704  0.38836  0.22037  1.0000
  H   H1134     1.0  0.45490  0.44058  0.46691  1.0000
  H   H1135     1.0  0.35032  0.64327  0.37517  1.0000
  H   H1136     1.0  0.48345  0.53999  0.43761  1.0000
  H   H1137     1.0  0.42590  0.43046  0.99200  1.0000
  H   H1138     1.0  0.35433  0.31870  0.33875  1.0000
  C   C658      1.0  0.47827  0.51423  0.40064  1.0000
  H   H1139     1.0  0.45936  0.46834  0.00535  1.0000
  H   H1140     1.0  0.46988  0.50743  0.38610  1.0000
  H   H1141     1.0  0.39666  0.64692  0.36720  1.0000
  C   C659      1.0  0.48236  0.57573  0.41176  1.0000
  H   H1142     1.0  0.39515  0.64839  0.28828  1.0000
  H   H1143     1.0  0.48121  0.56874  0.14521  1.0000
  H   H1144     1.0  0.48035  0.50999  0.22630  1.0000
  H   H1145     1.0  0.39243  0.32001  0.43985  1.0000
  S   S191      1.0  0.48383  0.39982  0.08700  1.0000
  H   H1146     1.0  0.46535  0.53895  0.47928  1.0000
  C   C660      1.0  0.48385  0.53023  0.38437  1.0000
  H   H1147     1.0  0.47308  0.53960  0.38109  1.0000
  H   H1148     1.0  0.31948  0.64712  0.36554  1.0000
  C   C661      1.0  0.47815  0.39117  0.24241  1.0000
  C   C662      1.0  0.48562  0.57591  0.22538  1.0000
  C   C663      1.0  0.45146  0.43919  0.98306  1.0000
  Fe  Fe97      1.0  0.41975  0.57644  0.82750  1.0000
  S   S192      1.0  0.44630  0.58561  0.83676  1.0000
  S   S193      1.0  0.39426  0.59248  0.83043  1.0000
  Fe  Fe98      1.0  0.43303  0.53893  0.82260  1.0000
  S   S194      1.0  0.45990  0.54604  0.83018  1.0000
  S   S195      1.0  0.42896  0.51085  0.81316  1.0000
  Fe  Fe99      1.0  0.44946  0.56251  0.86505  1.0000
  S   S196      1.0  0.46434  0.55625  0.90531  1.0000
  Fe  Fe100     1.0  0.45504  0.56831  0.80125  1.0000
  H   H1149     1.0  0.46193  0.59189  0.92466  1.0000
  S   S197      1.0  0.42245  0.55432  0.85855  1.0000
  S   S198      1.0  0.42846  0.56016  0.79069  1.0000
  Fe  Fe101     1.0  0.42059  0.38291  0.90986  1.0000
  S   S199      1.0  0.44791  0.37455  0.89994  1.0000
  S   S200      1.0  0.40404  0.36137  0.92818  1.0000
  Fe  Fe102     1.0  0.42884  0.42060  0.89528  1.0000
  S   S201      1.0  0.45627  0.41398  0.88435  1.0000
  S   S202      1.0  0.41960  0.44858  0.89846  1.0000
  Fe  Fe103     1.0  0.44572  0.39160  0.86176  1.0000
  S   S203      1.0  0.45207  0.38006  0.81869  1.0000
  Fe  Fe104     1.0  0.45598  0.39759  0.92362  1.0000
  H   H1150     1.0  0.38597  0.49683  0.86891  1.0000
  S   S204      1.0  0.41798  0.39911  0.87058  1.0000
  S   S205      1.0  0.42904  0.40519  0.93565  1.0000
  H   H1151     1.0  0.38101  0.35880  0.83925  1.0000
  H   H1152     1.0  0.35409  0.51223  0.84099  1.0000
  H   H1153     1.0  0.37436  0.50275  0.76956  1.0000
  C   C664      1.0  0.48213  0.55731  0.95458  1.0000
  H   H1154     1.0  0.30982  0.32032  0.50441  1.0000
  C   C665      1.0  0.39258  0.36580  0.83354  1.0000
  C   C666      1.0  0.47708  0.40102  0.79661  1.0000
  H   H1155     1.0  0.47669  0.44093  0.58613  1.0000
  H   H1156     1.0  0.47404  0.51779  0.48885  1.0000
  C   C667      1.0  0.46601  0.38774  0.79196  1.0000
  H   H1157     1.0  0.38645  0.55952  0.79126  1.0000
  H   H1158     1.0  0.48297  0.59346  0.82914  1.0000
  C   C668      1.0  0.42441  0.34827  0.79006  1.0000
  H   H1159     1.0  0.45860  0.45695  0.50924  1.0000
  C   C669      1.0  0.42875  0.49367  0.83788  1.0000
  C   C670      1.0  0.42609  0.49638  0.86657  1.0000
  C   C671      1.0  0.42365  0.48243  0.88488  1.0000
  C   C672      1.0  0.42436  0.46557  0.87498  1.0000
  C   C673      1.0  0.42771  0.46283  0.84651  1.0000
  C   C674      1.0  0.42963  0.47681  0.82805  1.0000
  H   H1160     1.0  0.42539  0.50924  0.87454  1.0000
  H   H1161     1.0  0.42101  0.48473  0.90682  1.0000
  H   H1162     1.0  0.42820  0.44997  0.83850  1.0000
  H   H1163     1.0  0.43160  0.47452  0.80592  1.0000
  H   H1164     1.0  0.39532  0.49741  0.82330  1.0000
  H   H1165     1.0  0.42820  0.34418  0.89208  1.0000
  H   H1166     1.0  0.36877  0.51112  0.88099  1.0000
  H   H1167     1.0  0.36086  0.60858  0.83756  1.0000
  C   C675      1.0  0.38538  0.49831  0.78237  1.0000
  H   H1168     1.0  0.42277  0.34554  0.76747  1.0000
  H   H1169     1.0  0.47438  0.60566  0.96628  1.0000
  H   H1170     1.0  0.47422  0.41938  0.53275  1.0000
  H   H1171     1.0  0.37051  0.34089  0.51359  1.0000
  H   H1172     1.0  0.43811  0.34565  0.79492  1.0000
  H   H1173     1.0  0.42622  0.32147  0.88961  1.0000
  H   H1174     1.0  0.32867  0.64014  0.87705  1.0000
  H   H1175     1.0  0.37354  0.49261  0.82225  1.0000
  C   C676      1.0  0.35642  0.32796  0.91684  1.0000
  C   C677      1.0  0.39983  0.32836  0.85245  1.0000
  C   C678      1.0  0.38334  0.33414  0.93987  1.0000
  C   C679      1.0  0.38552  0.34881  0.92308  1.0000
  C   C680      1.0  0.37304  0.35289  0.90295  1.0000
  C   C681      1.0  0.35867  0.34256  0.89988  1.0000
  C   C682      1.0  0.33691  0.31917  0.49046  1.0000
  H   H1176     1.0  0.37424  0.36422  0.89018  1.0000
  H   H1177     1.0  0.34905  0.34605  0.88449  1.0000
  C   C683      1.0  0.36556  0.63741  0.78420  1.0000
  C   C684      1.0  0.38216  0.63196  0.77562  1.0000
  C   C685      1.0  0.39112  0.61831  0.78932  1.0000
  C   C686      1.0  0.38358  0.60975  0.81186  1.0000
  C   C687      1.0  0.36693  0.61513  0.82034  1.0000
  C   C688      1.0  0.35799  0.62882  0.80668  1.0000
  H   H1178     1.0  0.39914  0.53084  0.79997  1.0000
  H   H1179     1.0  0.40385  0.61438  0.78237  1.0000
  C   C689      1.0  0.46608  0.57182  0.71946  1.0000
  H   H1180     1.0  0.33604  0.33424  0.54397  1.0000
  C   C690      1.0  0.46801  0.57218  0.69004  1.0000
  H   H1181     1.0  0.38001  0.53069  0.78060  1.0000
  H   H1182     1.0  0.39896  0.33080  0.87537  1.0000
  H   H1183     1.0  0.44665  0.33073  0.88599  1.0000
  S   S206      1.0  0.47835  0.57445  0.77390  1.0000
  H   H1184     1.0  0.48280  0.58503  0.88150  1.0000
  C   C691      1.0  0.40908  0.35763  0.84626  1.0000
  C   C692      1.0  0.48016  0.57427  0.73666  1.0000
  C   C693      1.0  0.46625  0.37993  0.76547  1.0000
  C   C694      1.0  0.38125  0.55161  0.80856  1.0000
  C   C695      1.0  0.46251  0.38594  0.50582  1.0000
  C   C696      1.0  0.45799  0.46941  0.98218  1.0000
  C   C697      1.0  0.46434  0.38331  0.53502  1.0000
  H   H1185     1.0  0.45327  0.38024  0.54756  1.0000
  H   H1186     1.0  0.42137  0.36206  0.79280  1.0000
  H   H1187     1.0  0.39009  0.51330  0.89301  1.0000
  H   H1188     1.0  0.47712  0.40713  0.81682  1.0000
  H   H1189     1.0  0.39065  0.37888  0.84197  1.0000
  H   H1190     1.0  0.41983  0.36584  0.84018  1.0000
  C   C698      1.0  0.38239  0.51020  0.87439  1.0000
  S   S207      1.0  0.48190  0.38149  0.58507  1.0000
  C   C699      1.0  0.35749  0.34456  0.52134  1.0000
  H   H1191     1.0  0.38625  0.63325  0.86768  1.0000
  N   N48       1.0  0.46164  0.45256  0.96806  1.0000
  H   H1192     1.0  0.35566  0.53453  0.83659  1.0000
  H   H1193     1.0  0.38775  0.55562  0.82781  1.0000
  H   H1194     1.0  0.36737  0.55488  0.80997  1.0000
  C   C700      1.0  0.45582  0.45326  0.93790  1.0000
  H   H1195     1.0  0.47752  0.61004  0.85300  1.0000
  H   H1196     1.0  0.44010  0.34417  0.84212  1.0000
  H   H1197     1.0  0.45364  0.56990  0.72880  1.0000
  C   C701      1.0  0.48403  0.57481  0.67735  1.0000
  H   H1198     1.0  0.35146  0.53109  0.78414  1.0000
  C   C702      1.0  0.35901  0.52211  0.82647  1.0000
  C   C703      1.0  0.31934  0.32850  0.49414  1.0000
  H   H1199     1.0  0.45225  0.44039  0.93072  1.0000
  C   C704      1.0  0.38635  0.52303  0.85064  1.0000
  H   H1200     1.0  0.38244  0.53579  0.85894  1.0000
  H   H1201     1.0  0.47737  0.37922  0.72367  1.0000
  N   N49       1.0  0.37812  0.51988  0.82272  1.0000
  H   H1202     1.0  0.45779  0.36963  0.76159  1.0000
  H   H1203     1.0  0.43569  0.32233  0.83941  1.0000
  H   H1204     1.0  0.32021  0.34067  0.50551  1.0000
  N   N50       1.0  0.41306  0.33929  0.83877  1.0000
  H   H1205     1.0  0.44400  0.46150  0.93580  1.0000
  C   C705      1.0  0.43083  0.33447  0.84895  1.0000
  H   H1206     1.0  0.39281  0.33079  0.95559  1.0000
  C   C706      1.0  0.47344  0.43213  0.54268  1.0000
  C   C707      1.0  0.41257  0.33686  0.80751  1.0000
  H   H1207     1.0  0.35627  0.32574  0.55411  1.0000
  C   C708      1.0  0.47027  0.45008  0.50093  1.0000
  H   H1208     1.0  0.46977  0.53306  0.71627  1.0000
  C   C709      1.0  0.46954  0.58437  0.93938  1.0000
  H   H1209     1.0  0.47635  0.45902  0.48602  1.0000
  H   H1210     1.0  0.33456  0.52318  0.80523  1.0000
  C   C710      1.0  0.47674  0.38976  0.48923  1.0000
  C   C711      1.0  0.47223  0.56686  0.93510  1.0000
  H   H1211     1.0  0.40781  0.35904  0.86930  1.0000
  C   C712      1.0  0.43286  0.33262  0.88098  1.0000
  H   H1212     1.0  0.34514  0.63255  0.81330  1.0000
  C   C713      1.0  0.48027  0.44693  0.96978  1.0000
  H   H1213     1.0  0.47292  0.46655  0.54908  1.0000
  H   H1214     1.0  0.39929  0.33876  0.79950  1.0000
  H   H1215     1.0  0.45460  0.42634  0.97425  1.0000
  H   H1216     1.0  0.40053  0.52310  0.84823  1.0000
  H   H1217     1.0  0.36357  0.64369  0.89823  1.0000
  H   H1218     1.0  0.47134  0.50953  0.63044  1.0000
  C   C714      1.0  0.43177  0.44174  0.98212  1.0000
  C   C715      1.0  0.36899  0.32379  0.93678  1.0000
  C   C716      1.0  0.34855  0.32942  0.53535  1.0000
  H   H1219     1.0  0.45950  0.43545  0.54464  1.0000
  H   H1220     1.0  0.38722  0.48435  0.77922  1.0000
  H   H1221     1.0  0.38683  0.33168  0.84441  1.0000
  C   C717      1.0  0.48030  0.38475  0.54812  1.0000
  C   C718      1.0  0.34830  0.52108  0.79968  1.0000
  C   C719      1.0  0.38293  0.50178  0.81398  1.0000
  H   H1222     1.0  0.45695  0.57051  0.67698  1.0000
  C   C720      1.0  0.38500  0.53263  0.80198  1.0000
  H   H1223     1.0  0.39719  0.50421  0.77433  1.0000
  H   H1224     1.0  0.39348  0.36714  0.81046  1.0000
  H   H1225     1.0  0.34960  0.50830  0.79012  1.0000
  H   H1226     1.0  0.46184  0.49096  0.95334  1.0000
  H   H1227     1.0  0.38817  0.63830  0.75815  1.0000
  H   H1228     1.0  0.35899  0.35472  0.53708  1.0000
  H   H1229     1.0  0.47878  0.51400  0.73329  1.0000
  H   H1230     1.0  0.42681  0.44265  0.96044  1.0000
  H   H1231     1.0  0.46934  0.52431  0.67217  1.0000
  H   H1232     1.0  0.35581  0.63999  0.86401  1.0000
  H   H1233     1.0  0.45012  0.38493  0.49615  1.0000
  H   H1234     1.0  0.48431  0.54377  0.95148  1.0000
  C   C721      1.0  0.48016  0.52027  0.63163  1.0000
  N   N51       1.0  0.48228  0.44509  0.52455  1.0000
  H   H1235     1.0  0.46179  0.46096  0.89523  1.0000
  H   H1236     1.0  0.45724  0.42563  0.49499  1.0000
  H   H1237     1.0  0.34987  0.35030  0.50393  1.0000
  C   C722      1.0  0.47663  0.59214  0.96299  1.0000
  H   H1238     1.0  0.47290  0.41888  0.58275  1.0000
  H   H1239     1.0  0.48167  0.48134  0.96628  1.0000
  C   C723      1.0  0.46821  0.48467  0.97165  1.0000
  C   C724      1.0  0.48200  0.52626  0.66209  1.0000
  C   C725      1.0  0.38177  0.64674  0.86463  1.0000
  H   H1240     1.0  0.47381  0.47197  0.92050  1.0000
  S   S208      1.0  0.48542  0.57520  0.64008  1.0000
  H   H1241     1.0  0.47842  0.49857  0.69168  1.0000
  C   C726      1.0  0.47975  0.42961  0.57301  1.0000
  H   H1242     1.0  0.48225  0.43406  0.96047  1.0000
  C   C727      1.0  0.46857  0.45948  0.91557  1.0000
  H   H1243     1.0  0.48285  0.54036  0.66160  1.0000
  C   C728      1.0  0.48531  0.46099  0.54104  1.0000
  C   C729      1.0  0.47734  0.38536  0.74386  1.0000
  S   S209      1.0  0.47916  0.39851  0.95293  1.0000
  H   H1244     1.0  0.47914  0.44987  0.91219  1.0000
  H   H1245     1.0  0.44432  0.47348  0.97949  1.0000
  H   H1246     1.0  0.47483  0.53105  0.61876  1.0000
  C   C730      1.0  0.48137  0.52713  0.72604  1.0000
  H   H1247     1.0  0.41642  0.32351  0.80204  1.0000
  H   H1248     1.0  0.48384  0.53470  0.74507  1.0000
  C   C731      1.0  0.36343  0.64887  0.87639  1.0000
  H   H1249     1.0  0.38214  0.64909  0.84168  1.0000
  C   C732      1.0  0.46409  0.43537  0.48272  1.0000
  Fe  Fe105     1.0  0.32474  0.79074  0.03578  1.0000
  S   S210      1.0  0.34076  0.76685  0.02809  1.0000
  S   S211      1.0  0.33556  0.81645  0.04980  1.0000
  Fe  Fe106     1.0  0.29076  0.77186  0.02510  1.0000
  S   S212      1.0  0.30527  0.74698  0.01764  1.0000
  S   S213      1.0  0.26177  0.76793  0.02430  1.0000
  Fe  Fe107     1.0  0.32115  0.75367  0.05498  1.0000
  S   S214      1.0  0.32905  0.73342  0.08787  1.0000
  H   H1250     1.0  0.36860  0.70282  0.37523  1.0000
  S   S215      1.0  0.33091  0.76017  0.45014  1.0000
  S   S216      1.0  0.30571  0.77758  0.06417  1.0000
  C   C733      1.0  0.32689  0.65756  0.37452  1.0000
  Fe  Fe108     1.0  0.31720  0.70787  0.25188  1.0000
  S   S217      1.0  0.31769  0.68015  0.24029  1.0000
  S   S218      1.0  0.31642  0.73032  0.22059  1.0000
  Fe  Fe109     1.0  0.31142  0.69985  0.31520  1.0000
  S   S219      1.0  0.31092  0.67163  0.30664  1.0000
  S   S220      1.0  0.30580  0.70581  0.36161  1.0000
  Fe  Fe110     1.0  0.33395  0.67530  0.27906  1.0000
  C   C734      1.0  0.45073  0.93229  0.23596  1.0000
  Fe  Fe111     1.0  0.29467  0.67894  0.26915  1.0000
  H   H1251     1.0  0.27952  0.73511  0.46063  1.0000
  S   S221      1.0  0.33502  0.70352  0.28871  1.0000
  S   S222      1.0  0.29364  0.70666  0.27949  1.0000
  Fe  Fe112     1.0  0.42130  0.87750  0.07598  1.0000
  S   S223      1.0  0.44966  0.87631  0.06507  1.0000
  S   S224      1.0  0.40811  0.85217  0.06556  1.0000
  Fe  Fe113     1.0  0.42360  0.91567  0.09290  1.0000
  S   S225      1.0  0.45135  0.91646  0.08169  1.0000
  S   S226      1.0  0.41055  0.93920  0.11309  1.0000
  Fe  Fe114     1.0  0.44488  0.90153  0.04342  1.0000
  H   H1252     1.0  0.44730  0.94894  0.14075  1.0000
  Fe  Fe115     1.0  0.45377  0.89128  0.10465  1.0000
  C   C735      1.0  0.47187  0.93619  0.14658  1.0000
  S   S227      1.0  0.41656  0.90245  0.05296  1.0000
  S   S228      1.0  0.42601  0.89075  0.11728  1.0000
  C   C736      1.0  0.41821  0.96031  0.11090  1.0000
  C   C737      1.0  0.43161  0.96451  0.09280  1.0000
  H   H1253     1.0  0.27471  0.69000  0.20255  1.0000
  H   H1254     1.0  0.43738  0.95484  0.07938  1.0000
  H   H1255     1.0  0.26359  0.74162  0.41727  1.0000
  C   C738      1.0  0.46620  0.87940  0.21599  1.0000
  C   C739      1.0  0.46482  0.88067  0.18659  1.0000
  H   H1256     1.0  0.42349  0.97309  0.20782  1.0000
  C   C740      1.0  0.37500  0.66472  0.36076  1.0000
  H   H1257     1.0  0.45635  0.87315  0.22790  1.0000
  H   H1258     1.0  0.45404  0.87535  0.17609  1.0000
  C   C741      1.0  0.26842  0.72185  0.19427  1.0000
  C   C742      1.0  0.46676  0.90638  0.44440  1.0000
  C   C743      1.0  0.27543  0.71676  0.16513  1.0000
  C   C744      1.0  0.27327  0.75050  0.40932  1.0000
  C   C745      1.0  0.29063  0.69553  0.13613  1.0000
  H   H1259     1.0  0.45812  0.91698  0.43909  1.0000
  C   C746      1.0  0.24819  0.69306  0.24673  1.0000
  N   N52       1.0  0.27711  0.69794  0.15871  1.0000
  H   H1260     1.0  0.25452  0.78178  0.40166  1.0000
  C   C747      1.0  0.25033  0.67532  0.24873  1.0000
  C   C748      1.0  0.39982  0.84667  0.98565  1.0000
  H   H1261     1.0  0.23644  0.68087  0.16064  1.0000
  C   C749      1.0  0.35589  0.82636  0.05266  1.0000
  C   C750      1.0  0.35638  0.84311  0.06304  1.0000
  C   C751      1.0  0.37207  0.85131  0.06675  1.0000
  C   C752      1.0  0.38767  0.84281  0.06043  1.0000
  C   C753      1.0  0.38718  0.82607  0.04997  1.0000
  C   C754      1.0  0.37147  0.81795  0.04594  1.0000
  H   H1262     1.0  0.34449  0.84984  0.06834  1.0000
  H   H1263     1.0  0.37207  0.86414  0.07480  1.0000
  H   H1264     1.0  0.39907  0.81926  0.04502  1.0000
  H   H1265     1.0  0.37145  0.80512  0.03790  1.0000
  C   C755      1.0  0.24460  0.77494  0.00223  1.0000
  H   H1266     1.0  0.39570  0.86208  0.47837  1.0000
  C   C756      1.0  0.28690  0.77774  0.41390  1.0000
  H   H1267     1.0  0.46719  0.92295  0.20252  1.0000
  C   C757      1.0  0.32478  0.74418  0.42632  1.0000
  C   C758      1.0  0.31534  0.73019  0.43474  1.0000
  C   C759      1.0  0.31004  0.71835  0.41471  1.0000
  C   C760      1.0  0.31410  0.72033  0.38607  1.0000
  C   C761      1.0  0.32395  0.73404  0.37778  1.0000
  C   C762      1.0  0.32923  0.74586  0.39779  1.0000
  H   H1268     1.0  0.31199  0.72859  0.45662  1.0000
  H   H1269     1.0  0.30249  0.70776  0.42142  1.0000
  H   H1270     1.0  0.32720  0.73575  0.35589  1.0000
  H   H1271     1.0  0.33661  0.75658  0.39105  1.0000
  C   C763      1.0  0.32002  0.73086  0.18370  1.0000
  C   C764      1.0  0.32864  0.71755  0.16957  1.0000
  C   C765      1.0  0.33137  0.71865  0.14033  1.0000
  C   C766      1.0  0.32524  0.73287  0.12471  1.0000
  C   C767      1.0  0.31646  0.74611  0.13878  1.0000
  C   C768      1.0  0.31408  0.74520  0.16813  1.0000
  H   H1272     1.0  0.33340  0.70650  0.18122  1.0000
  H   H1273     1.0  0.33825  0.70836  0.12970  1.0000
  H   H1274     1.0  0.31160  0.75709  0.12708  1.0000
  H   H1275     1.0  0.30740  0.75558  0.17882  1.0000
  S   S229      1.0  0.36008  0.66030  0.28221  1.0000
  H   H1276     1.0  0.27643  0.70442  0.09837  1.0000
  C   C769      1.0  0.47739  0.89904  0.42341  1.0000
  C   C770      1.0  0.42512  0.85328  0.45389  1.0000
  C   C771      1.0  0.34568  0.65532  0.36495  1.0000
  H   H1277     1.0  0.32067  0.66965  0.36718  1.0000
  C   C772      1.0  0.42986  0.90986  0.19121  1.0000
  H   H1278     1.0  0.28578  0.74359  0.41199  1.0000
  H   H1279     1.0  0.29581  0.69297  0.19118  1.0000
  H   H1280     1.0  0.42034  0.86544  0.01318  1.0000
  C   C773      1.0  0.27729  0.76304  0.45628  1.0000
  H   H1281     1.0  0.25599  0.78808  0.43703  1.0000
  H   H1282     1.0  0.26923  0.73931  0.36859  1.0000
  C   C774      1.0  0.44210  0.85768  0.43912  1.0000
  Fe  Fe116     1.0  0.32315  0.76232  0.99158  1.0000
  H   H1283     1.0  0.28813  0.72263  0.16369  1.0000
  H   H1284     1.0  0.28447  0.78109  0.39158  1.0000
  H   H1285     1.0  0.23781  0.65149  0.24414  1.0000
  H   H1286     1.0  0.35681  0.66106  0.41436  1.0000
  C   C775      1.0  0.28557  0.66864  0.18068  1.0000
  H   H1287     1.0  0.40057  0.83011  0.47308  1.0000
  H   H1288     1.0  0.26730  0.72361  0.14928  1.0000
  C   C776      1.0  0.25621  0.77668  0.42332  1.0000
  H   H1289     1.0  0.38428  0.67462  0.36600  1.0000
  H   H1290     1.0  0.44842  0.86887  0.44752  1.0000
  H   H1291     1.0  0.27845  0.80412  0.42403  1.0000
  H   H1292     1.0  0.27785  0.71856  0.21095  1.0000
  H   H1293     1.0  0.25597  0.79790  0.98736  1.0000
  H   H1294     1.0  0.47689  0.90397  0.40218  1.0000
  H   H1295     1.0  0.29594  0.66514  0.16564  1.0000
  N   N53       1.0  0.35725  0.66980  0.37114  1.0000
  H   H1296     1.0  0.46084  0.95850  0.16536  1.0000
  H   H1297     1.0  0.25609  0.71610  0.19925  1.0000
  H   H1298     1.0  0.27345  0.66280  0.17463  1.0000
  C   C777      1.0  0.27151  0.74594  0.46884  1.0000
  H   H1299     1.0  0.29130  0.68214  0.12865  1.0000
  C   C778      1.0  0.47764  0.88828  0.17078  1.0000
  C   C779      1.0  0.44168  0.84819  0.00455  1.0000
  H   H1300     1.0  0.27209  0.77334  0.47011  1.0000
  H   H1301     1.0  0.29056  0.79350  0.45159  1.0000
  H   H1302     1.0  0.26630  0.73591  0.19483  1.0000
  H   H1303     1.0  0.42377  0.83936  0.45092  1.0000
  H   H1304     1.0  0.41795  0.91658  0.19838  1.0000
  H   H1305     1.0  0.29141  0.76282  0.45967  1.0000
  H   H1306     1.0  0.44560  0.96734  0.21362  1.0000
  H   H1307     1.0  0.48059  0.93817  0.41790  1.0000
  H   H1308     1.0  0.43283  0.92297  0.15185  1.0000
  H   H1309     1.0  0.45130  0.84656  0.43941  1.0000
  H   H1310     1.0  0.47836  0.88256  0.00181  1.0000
  H   H1311     1.0  0.43949  0.86107  0.41686  1.0000
  N   N54       1.0  0.35652  0.78867  0.12756  1.0000
  C   C780      1.0  0.34734  0.80594  0.12599  1.0000
  C   C781      1.0  0.37502  0.79182  0.13397  1.0000
  C   C782      1.0  0.34871  0.77892  0.15156  1.0000
  C   C783      1.0  0.35414  0.77964  0.10011  1.0000
  C   C784      1.0  0.32772  0.80593  0.12280  1.0000
  C   C785      1.0  0.38460  0.80243  0.11192  1.0000
  C   C786      1.0  0.35672  0.76116  0.15835  1.0000
  C   C787      1.0  0.36729  0.76513  0.09258  1.0000
  H   H1312     1.0  0.35002  0.81364  0.14487  1.0000
  H   H1313     1.0  0.35204  0.81346  0.10782  1.0000
  H   H1314     1.0  0.38271  0.77986  0.13690  1.0000
  H   H1315     1.0  0.37601  0.79849  0.15439  1.0000
  H   H1316     1.0  0.34900  0.78653  0.17116  1.0000
  H   H1317     1.0  0.33499  0.77668  0.14753  1.0000
  H   H1318     1.0  0.34118  0.77420  0.09928  1.0000
  H   H1319     1.0  0.35451  0.78895  0.08236  1.0000
  H   H1320     1.0  0.32126  0.80204  0.14250  1.0000
  H   H1321     1.0  0.32292  0.81910  0.11781  1.0000
  H   H1322     1.0  0.32381  0.79782  0.10531  1.0000
  H   H1323     1.0  0.39844  0.80227  0.11708  1.0000
  H   H1324     1.0  0.38350  0.79716  0.09061  1.0000
  H   H1325     1.0  0.38014  0.81601  0.11186  1.0000
  H   H1326     1.0  0.37041  0.76146  0.16396  1.0000
  H   H1327     1.0  0.35474  0.75208  0.14113  1.0000
  H   H1328     1.0  0.35003  0.75588  0.17695  1.0000
  H   H1329     1.0  0.36037  0.75420  0.08413  1.0000
  H   H1330     1.0  0.37513  0.75997  0.11001  1.0000
  H   H1331     1.0  0.37586  0.76925  0.07532  1.0000
  C   C788      1.0  0.24536  0.69053  0.16808  1.0000
  H   H1332     1.0  0.23819  0.70296  0.16967  1.0000
  C   C789      1.0  0.46751  0.90044  0.47229  1.0000
  C   C790      1.0  0.24487  0.79008  0.98657  1.0000
  H   H1333     1.0  0.41769  0.88777  0.45044  1.0000
  H   H1334     1.0  0.41447  0.85907  0.44121  1.0000
  H   H1335     1.0  0.34693  0.69937  0.40756  1.0000
  H   H1336     1.0  0.28145  0.75787  0.36664  1.0000
  C   C791      1.0  0.28920  0.79493  0.42865  1.0000
  H   H1337     1.0  0.47868  0.94466  0.13180  1.0000
  C   C792      1.0  0.41087  0.97315  0.12810  1.0000
  S   S230      1.0  0.48169  0.88290  0.26700  1.0000
  C   C793      1.0  0.27034  0.75227  0.37748  1.0000
  C   C794      1.0  0.45872  0.93441  0.20640  1.0000
  C   C795      1.0  0.43513  0.96703  0.19814  1.0000
  H   H1338     1.0  0.28910  0.72063  0.11422  1.0000
  H   H1339     1.0  0.45149  0.91230  0.16461  1.0000
  S   S231      1.0  0.47719  0.88884  0.13349  1.0000
  H   H1340     1.0  0.25880  0.70101  0.25135  1.0000
  C   C796      1.0  0.26056  0.69153  0.14748  1.0000
  C   C797      1.0  0.45606  0.94603  0.15859  1.0000
  H   H1341     1.0  0.43831  0.97501  0.17960  1.0000
  H   H1342     1.0  0.26243  0.67881  0.13754  1.0000
  N   N55       1.0  0.27305  0.76681  0.42583  1.0000
  H   H1343     1.0  0.30354  0.69790  0.14460  1.0000
  H   H1344     1.0  0.46817  0.92507  0.13422  1.0000
  C   C798      1.0  0.28332  0.68810  0.18422  1.0000
  C   C799      1.0  0.28843  0.70685  0.10961  1.0000
  H   H1345     1.0  0.35609  0.71206  0.34721  1.0000
  H   H1346     1.0  0.40044  0.97011  0.14209  1.0000
  H   H1347     1.0  0.25838  0.75960  0.37243  1.0000
  C   C800      1.0  0.44054  0.92072  0.17111  1.0000
  H   H1348     1.0  0.44202  0.84626  0.02764  1.0000
  C   C801      1.0  0.35794  0.67317  0.40226  1.0000
  H   H1349     1.0  0.42333  0.94328  0.20633  1.0000
  H   H1350     1.0  0.46743  0.94529  0.20796  1.0000
  H   H1351     1.0  0.29951  0.77064  0.41423  1.0000
  C   C802      1.0  0.35126  0.68520  0.35436  1.0000
  H   H1352     1.0  0.42238  0.94974  0.17120  1.0000
  H   H1353     1.0  0.25585  0.69982  0.12995  1.0000
  H   H1354     1.0  0.43757  0.90502  0.20917  1.0000
  C   C803      1.0  0.36331  0.70035  0.35425  1.0000
  S   S232      1.0  0.30814  0.78715  0.99756  1.0000
  C   C804      1.0  0.34450  0.68613  0.41440  1.0000
  H   H1355     1.0  0.30109  0.80067  0.42067  1.0000
  H   H1356     1.0  0.45168  0.94422  0.24811  1.0000
  H   H1357     1.0  0.33855  0.69013  0.36147  1.0000
  H   H1358     1.0  0.34939  0.68165  0.33209  1.0000
  H   H1359     1.0  0.43740  0.92814  0.23657  1.0000
  H   H1360     1.0  0.42582  0.89840  0.17987  1.0000
  H   H1361     1.0  0.24911  0.68590  0.18908  1.0000
  H   H1362     1.0  0.37060  0.67805  0.40824  1.0000
  C   C805      1.0  0.43122  0.94871  0.18939  1.0000
  H   H1363     1.0  0.25790  0.74349  0.46522  1.0000
  S   S233      1.0  0.27042  0.66526  0.25734  1.0000
  H   H1364     1.0  0.37402  0.69814  0.33912  1.0000
  H   H1365     1.0  0.29919  0.70384  0.09489  1.0000
  S   S234      1.0  0.45185  0.91005  0.99887  1.0000
  H   H1366     1.0  0.45841  0.92245  0.24775  1.0000
  H   H1367     1.0  0.34537  0.68596  0.43762  1.0000
  H   H1368     1.0  0.33117  0.68329  0.40911  1.0000
  N   N56       1.0  0.44660  0.93737  0.18218  1.0000
  C   C806      1.0  0.48030  0.88583  0.23006  1.0000
  H   H1369     1.0  0.32573  0.65636  0.39762  1.0000
  H   H1370     1.0  0.37527  0.66390  0.33749  1.0000
  H   H1371     1.0  0.43897  0.87553  0.00236  1.0000
  C   C807      1.0  0.47860  0.88662  0.47882  1.0000
  C   C808      1.0  0.24000  0.76704  0.43091  1.0000
  H   H1372     1.0  0.28933  0.66285  0.20117  1.0000
  H   H1373     1.0  0.23836  0.75574  0.41762  1.0000
  H   H1374     1.0  0.34567  0.65275  0.34201  1.0000
  H   H1375     1.0  0.43638  0.83664  0.99528  1.0000
  C   C809      1.0  0.41600  0.88944  0.47334  1.0000
  C   C810      1.0  0.43740  0.98131  0.09171  1.0000
  H   H1376     1.0  0.23972  0.76344  0.45337  1.0000
  H   H1377     1.0  0.45510  0.84945  0.99725  1.0000
  C   C811      1.0  0.43089  0.86453  0.99760  1.0000
  H   H1378     1.0  0.39291  0.85729  0.99639  1.0000
  H   H1379     1.0  0.40254  0.88645  0.00347  1.0000
  H   H1380     1.0  0.40224  0.88946  0.47913  1.0000
  H   H1381     1.0  0.40705  0.83904  0.00154  1.0000
  H   H1382     1.0  0.48111  0.93203  0.16297  1.0000
  C   C812      1.0  0.23632  0.66523  0.24264  1.0000
  H   H1383     1.0  0.42047  0.90234  0.47833  1.0000
  Fe  Fe117     1.0  0.32713  0.79451  0.53942  1.0000
  S   S235      1.0  0.34245  0.77022  0.53051  1.0000
  S   S236      1.0  0.33821  0.82137  0.54539  1.0000
  Fe  Fe118     1.0  0.29234  0.77621  0.53279  1.0000
  S   S237      1.0  0.30610  0.75119  0.52381  1.0000
  S   S238      1.0  0.26325  0.77278  0.53622  1.0000
  Fe  Fe119     1.0  0.32350  0.75751  0.55945  1.0000
  S   S239      1.0  0.32925  0.73525  0.58992  1.0000
  C   C813      1.0  0.39306  0.68655  0.70516  1.0000
  S   S240      1.0  0.33208  0.75645  0.94661  1.0000
  S   S241      1.0  0.30896  0.78186  0.57006  1.0000
  C   C814      1.0  0.26539  0.73604  0.88304  1.0000
  Fe  Fe120     1.0  0.32173  0.70949  0.75173  1.0000
  S   S242      1.0  0.31713  0.68391  0.73392  1.0000
  S   S243      1.0  0.32893  0.73207  0.72394  1.0000
  Fe  Fe121     1.0  0.31236  0.69747  0.81173  1.0000
  S   S244      1.0  0.30644  0.67110  0.79641  1.0000
  S   S245      1.0  0.30853  0.70069  0.85913  1.0000
  Fe  Fe122     1.0  0.33112  0.67280  0.77168  1.0000
  H   H1384     1.0  0.40308  0.85689  0.94393  1.0000
  Fe  Fe123     1.0  0.29296  0.68476  0.76016  1.0000
  S   S246      1.0  0.26814  0.68534  0.73472  1.0000
  S   S247      1.0  0.33724  0.69873  0.78796  1.0000
  S   S248      1.0  0.29745  0.71079  0.77732  1.0000
  Fe  Fe124     1.0  0.42198  0.88363  0.57877  1.0000
  S   S249      1.0  0.45046  0.88116  0.56972  1.0000
  S   S250      1.0  0.40841  0.85783  0.57562  1.0000
  Fe  Fe125     1.0  0.42441  0.92270  0.58815  1.0000
  S   S251      1.0  0.45249  0.92220  0.57885  1.0000
  S   S252      1.0  0.41044  0.94868  0.59281  1.0000
  Fe  Fe126     1.0  0.44686  0.90481  0.54314  1.0000
  H   H1385     1.0  0.35096  0.70098  0.71062  1.0000
  Fe  Fe127     1.0  0.45368  0.89872  0.60653  1.0000
  C   C815      1.0  0.36536  0.67806  0.89434  1.0000
  S   S253      1.0  0.41836  0.90664  0.55065  1.0000
  S   S254      1.0  0.42557  0.89985  0.61752  1.0000
  C   C816      1.0  0.41783  0.96616  0.61228  1.0000
  C   C817      1.0  0.42859  0.96380  0.63539  1.0000
  H   H1386     1.0  0.40192  0.86049  0.51394  1.0000
  H   H1387     1.0  0.43299  0.95105  0.64133  1.0000
  H   H1388     1.0  0.39129  0.83479  0.65752  1.0000
  C   C818      1.0  0.46520  0.88377  0.71771  1.0000
  C   C819      1.0  0.46374  0.88665  0.68856  1.0000
  H   H1389     1.0  0.23691  0.75436  0.89468  1.0000
  C   C820      1.0  0.47775  0.88741  0.98053  1.0000
  H   H1390     1.0  0.45548  0.87680  0.72867  1.0000
  H   H1391     1.0  0.45303  0.88183  0.67727  1.0000
  H   H1392     1.0  0.29219  0.73393  0.69662  1.0000
  H   H1393     1.0  0.38237  0.70826  0.74667  1.0000
  H   H1394     1.0  0.34297  0.68312  0.84510  1.0000
  H   H1395     1.0  0.24964  0.73888  0.93685  1.0000
  C   C821      1.0  0.46536  0.90671  0.94590  1.0000
  H   H1396     1.0  0.35023  0.67867  0.65393  1.0000
  H   H1397     1.0  0.40100  0.68066  0.68815  1.0000
  H   H1398     1.0  0.38998  0.83827  0.97723  1.0000
  C   C822      1.0  0.24698  0.67790  0.73820  1.0000
  H   H1399     1.0  0.28448  0.70567  0.62366  1.0000
  H   H1400     1.0  0.33105  0.67829  0.88916  1.0000
  H   H1401     1.0  0.34049  0.67806  0.68837  1.0000
  C   C823      1.0  0.35824  0.83104  0.55228  1.0000
  C   C824      1.0  0.35927  0.84891  0.54988  1.0000
  C   C825      1.0  0.37452  0.85729  0.55615  1.0000
  C   C826      1.0  0.38902  0.84795  0.56547  1.0000
  C   C827      1.0  0.38807  0.83007  0.56761  1.0000
  C   C828      1.0  0.37289  0.82167  0.56097  1.0000
  H   H1402     1.0  0.34810  0.85636  0.54319  1.0000
  H   H1403     1.0  0.37490  0.87102  0.55428  1.0000
  H   H1404     1.0  0.39914  0.82261  0.57468  1.0000
  H   H1405     1.0  0.37242  0.80796  0.56301  1.0000
  C   C829      1.0  0.24502  0.77892  0.51562  1.0000
  C   C830      1.0  0.24510  0.79245  0.49631  1.0000
  H   H1406     1.0  0.35293  0.84119  0.61245  1.0000
  H   H1407     1.0  0.39809  0.90259  0.97799  1.0000
  C   C831      1.0  0.32561  0.74064  0.92276  1.0000
  C   C832      1.0  0.31709  0.72613  0.93158  1.0000
  C   C833      1.0  0.31214  0.71399  0.91182  1.0000
  C   C834      1.0  0.31557  0.71620  0.88302  1.0000
  C   C835      1.0  0.32427  0.73059  0.87424  1.0000
  C   C836      1.0  0.32929  0.74267  0.89402  1.0000
  H   H1408     1.0  0.31439  0.72424  0.95363  1.0000
  H   H1409     1.0  0.30551  0.70287  0.91890  1.0000
  H   H1410     1.0  0.32705  0.73247  0.85221  1.0000
  H   H1411     1.0  0.33598  0.75378  0.88697  1.0000
  C   C837      1.0  0.32826  0.73285  0.68666  1.0000
  C   C838      1.0  0.32699  0.71812  0.67067  1.0000
  C   C839      1.0  0.32745  0.71912  0.64115  1.0000
  C   C840      1.0  0.32851  0.73491  0.62717  1.0000
  C   C841      1.0  0.32927  0.74972  0.64313  1.0000
  C   C842      1.0  0.32938  0.74865  0.67270  1.0000
  H   H1412     1.0  0.32578  0.70593  0.68101  1.0000
  H   H1413     1.0  0.32680  0.70759  0.62901  1.0000
  H   H1414     1.0  0.33014  0.76196  0.63270  1.0000
  H   H1415     1.0  0.33032  0.76016  0.68482  1.0000
  C   C843      1.0  0.25442  0.72192  0.63537  1.0000
  H   H1416     1.0  0.42464  0.87878  0.51289  1.0000
  H   H1417     1.0  0.47014  0.97805  0.58627  1.0000
  H   H1418     1.0  0.27163  0.74144  0.59664  1.0000
  H   H1419     1.0  0.36112  0.71703  0.74934  1.0000
  H   H1420     1.0  0.42656  0.89326  0.96677  1.0000
  C   C844      1.0  0.26698  0.72614  0.68169  1.0000
  H   H1421     1.0  0.47940  0.88197  0.50019  1.0000
  H   H1422     1.0  0.36040  0.68688  0.73508  1.0000
  C   C845      1.0  0.24262  0.66513  0.75732  1.0000
  N   N57       1.0  0.37475  0.68904  0.69592  1.0000
  H   H1423     1.0  0.25719  0.71729  0.68947  1.0000
  H   H1424     1.0  0.39810  0.66133  0.72451  1.0000
  H   H1425     1.0  0.48232  0.93513  0.89329  1.0000
  H   H1426     1.0  0.23758  0.74063  0.65749  1.0000
  C   C846      1.0  0.41675  0.88357  0.96317  1.0000
  C   C847      1.0  0.39603  0.67481  0.73100  1.0000
  H   H1427     1.0  0.25419  0.78068  0.93166  1.0000
  H   H1428     1.0  0.37047  0.67794  0.81055  1.0000
  H   H1429     1.0  0.43485  0.88048  0.91218  1.0000
  H   H1430     1.0  0.37730  0.66490  0.67408  1.0000
  C   C848      1.0  0.36819  0.67188  0.68830  1.0000
  S   S255      1.0  0.35495  0.65479  0.76579  1.0000
  C   C849      1.0  0.35361  0.67329  0.84617  1.0000
  H   H1431     1.0  0.36069  0.70476  0.66560  1.0000
  H   H1432     1.0  0.45721  0.97202  0.54122  1.0000
  H   H1433     1.0  0.34637  0.82484  0.63571  1.0000
  C   C850      1.0  0.47648  0.89521  0.67394  1.0000
  C   C851      1.0  0.37413  0.70122  0.67128  1.0000
  H   H1434     1.0  0.25228  0.65961  0.77111  1.0000
  C   C852      1.0  0.27307  0.73010  0.95543  1.0000
  H   H1435     1.0  0.41264  0.88541  0.94109  1.0000
  C   C853      1.0  0.28371  0.73973  0.60850  1.0000
  S   S256      1.0  0.47642  0.89728  0.63670  1.0000
  H   H1436     1.0  0.38187  0.67810  0.84245  1.0000
  C   C854      1.0  0.36943  0.68167  0.83293  1.0000
  H   H1437     1.0  0.31218  0.65595  0.88305  1.0000
  H   H1438     1.0  0.42934  0.84619  0.52470  1.0000
  H   H1439     1.0  0.36764  0.69578  0.83275  1.0000
  H   H1440     1.0  0.26821  0.68387  0.63923  1.0000
  H   H1441     1.0  0.34685  0.69688  0.91238  1.0000
  H   H1442     1.0  0.36828  0.82520  0.62546  1.0000
  H   H1443     1.0  0.40745  0.67887  0.74256  1.0000
  H   H1444     1.0  0.30159  0.78576  0.93621  1.0000
  H   H1445     1.0  0.40550  0.82885  0.51021  1.0000
  S   S257      1.0  0.30900  0.79087  0.50316  1.0000
  C   C855      1.0  0.38336  0.69505  0.64433  1.0000
  H   H1446     1.0  0.45508  0.86229  0.51653  1.0000
  H   H1447     1.0  0.25842  0.74295  0.86595  1.0000
  H   H1448     1.0  0.36772  0.70459  0.90669  1.0000
  C   C856      1.0  0.37087  0.71195  0.73426  1.0000
  H   H1449     1.0  0.36650  0.67245  0.91582  1.0000
  H   H1450     1.0  0.29131  0.75112  0.60382  1.0000
  C   C857      1.0  0.32518  0.65383  0.87382  1.0000
  C   C858      1.0  0.43629  0.86665  0.91713  1.0000
  H   H1451     1.0  0.44090  0.97579  0.67002  1.0000
  H   H1452     1.0  0.38103  0.70474  0.62752  1.0000
  N   N58       1.0  0.42435  0.86585  0.96799  1.0000
  N   N59       1.0  0.37426  0.85717  0.65415  1.0000
  C   C859      1.0  0.36008  0.84463  0.65689  1.0000
  C   C860      1.0  0.37640  0.86516  0.68247  1.0000
  C   C861      1.0  0.39042  0.84721  0.64600  1.0000
  C   C862      1.0  0.36913  0.87003  0.63179  1.0000
  H   H1453     1.0  0.41805  0.84770  0.64116  1.0000
  C   C863      1.0  0.36093  0.87600  0.69332  1.0000
  C   C864      1.0  0.40765  0.85561  0.65112  1.0000
  C   C865      1.0  0.38025  0.88574  0.62793  1.0000
  H   H1454     1.0  0.36251  0.83574  0.67491  1.0000
  H   H1455     1.0  0.34758  0.85130  0.66140  1.0000
  H   H1456     1.0  0.38749  0.87355  0.68296  1.0000
  H   H1457     1.0  0.37943  0.85511  0.69852  1.0000
  H   H1458     1.0  0.29363  0.73857  0.65019  1.0000
  H   H1459     1.0  0.39020  0.84387  0.62347  1.0000
  H   H1460     1.0  0.36907  0.86384  0.61101  1.0000
  H   H1461     1.0  0.35559  0.87467  0.63449  1.0000
  H   H1462     1.0  0.24706  0.71115  0.64402  1.0000
  H   H1463     1.0  0.25658  0.79957  0.49343  1.0000
  H   H1464     1.0  0.36735  0.66354  0.70728  1.0000
  H   H1465     1.0  0.36447  0.88203  0.71334  1.0000
  H   H1466     1.0  0.35727  0.88649  0.67859  1.0000
  H   H1467     1.0  0.34973  0.86816  0.69801  1.0000
  H   H1468     1.0  0.44761  0.86184  0.90495  1.0000
  H   H1469     1.0  0.41065  0.85613  0.67378  1.0000
  H   H1470     1.0  0.37987  0.71350  0.67676  1.0000
  H   H1471     1.0  0.39011  0.88341  0.61142  1.0000
  H   H1472     1.0  0.38650  0.88999  0.64715  1.0000
  H   H1473     1.0  0.37201  0.89682  0.62107  1.0000
  H   H1474     1.0  0.25991  0.77732  0.89613  1.0000
  H   H1475     1.0  0.27440  0.75083  0.64706  1.0000
  H   H1476     1.0  0.46008  0.84005  0.51714  1.0000
  N   N60       1.0  0.26884  0.75710  0.92442  1.0000
  C   C866      1.0  0.28291  0.76596  0.93948  1.0000
  C   C867      1.0  0.47920  0.88967  0.73276  1.0000
  H   H1477     1.0  0.26429  0.69236  0.67342  1.0000
  C   C868      1.0  0.27668  0.74823  0.89928  1.0000
  C   C869      1.0  0.29180  0.78012  0.92273  1.0000
  H   H1478     1.0  0.27821  0.72226  0.93788  1.0000
  C   C870      1.0  0.36361  0.69658  0.71896  1.0000
  H   H1479     1.0  0.34667  0.65878  0.67110  1.0000
  H   H1480     1.0  0.37371  0.72256  0.71970  1.0000
  H   H1481     1.0  0.29334  0.75677  0.94584  1.0000
  H   H1482     1.0  0.29469  0.70852  0.65550  1.0000
  H   H1483     1.0  0.28436  0.68230  0.66611  1.0000
  H   H1484     1.0  0.25642  0.75187  0.96398  1.0000
  C   C871      1.0  0.27410  0.69068  0.65682  1.0000
  H   H1485     1.0  0.28098  0.75770  0.88351  1.0000
  H   H1486     1.0  0.28874  0.74117  0.90482  1.0000
  H   H1487     1.0  0.27331  0.74606  0.49189  1.0000
  H   H1488     1.0  0.29883  0.77500  0.90420  1.0000
  H   H1489     1.0  0.28278  0.79067  0.91646  1.0000
  S   S258      1.0  0.45503  0.91139  0.49816  1.0000
  N   N61       1.0  0.35533  0.66662  0.87582  1.0000
  H   H1490     1.0  0.27791  0.72703  0.72337  1.0000
  H   H1491     1.0  0.28832  0.71144  0.70183  1.0000
  Fe  Fe128     1.0  0.32345  0.76591  0.49588  1.0000
  H   H1492     1.0  0.24162  0.69699  0.81578  1.0000
  C   C872      1.0  0.39889  0.83648  0.49358  1.0000
  C   C873      1.0  0.42667  0.87608  0.49024  1.0000
  H   H1493     1.0  0.25691  0.71855  0.61305  1.0000
  C   C874      1.0  0.35789  0.69645  0.89759  1.0000
  H   H1494     1.0  0.38538  0.67537  0.74637  1.0000
  H   H1495     1.0  0.40830  0.86843  0.64162  1.0000
  N   N62       1.0  0.27095  0.72352  0.65097  1.0000
  C   C875      1.0  0.46598  0.90061  0.97370  1.0000
  H   H1496     1.0  0.26563  0.72156  0.96922  1.0000
  C   C876      1.0  0.47650  0.89987  0.92518  1.0000
  C   C877      1.0  0.33766  0.66553  0.88869  1.0000
  H   H1497     1.0  0.39742  0.69382  0.64708  1.0000
  C   C878      1.0  0.28240  0.72449  0.70162  1.0000
  H   H1498     1.0  0.44541  0.85047  0.95040  1.0000
  H   H1499     1.0  0.33847  0.66126  0.91101  1.0000
  H   H1500     1.0  0.42500  0.85989  0.90973  1.0000
  H   H1501     1.0  0.29129  0.72864  0.60030  1.0000
  C   C879      1.0  0.45336  0.85032  0.50488  1.0000
  H   H1502     1.0  0.26110  0.73907  0.68521  1.0000
  C   C880      1.0  0.43427  0.84615  0.50268  1.0000
  H   H1503     1.0  0.38501  0.83646  0.49883  1.0000
  H   H1504     1.0  0.28367  0.73465  0.96834  1.0000
  H   H1505     1.0  0.27374  0.72585  0.87352  1.0000
  C   C881      1.0  0.25565  0.77060  0.91547  1.0000
  C   C882      1.0  0.28177  0.70751  0.64635  1.0000
  H   H1506     1.0  0.27795  0.77176  0.95936  1.0000
  H   H1507     1.0  0.39920  0.69893  0.70871  1.0000
  H   H1508     1.0  0.48284  0.94467  0.92708  1.0000
  H   H1509     1.0  0.37875  0.67915  0.88715  1.0000
  C   C883      1.0  0.35699  0.83348  0.63098  1.0000
  C   C884      1.0  0.28074  0.73857  0.64049  1.0000
  C   C885      1.0  0.41156  0.85248  0.96139  1.0000
  S   S259      1.0  0.48096  0.88459  0.76913  1.0000
  H   H1510     1.0  0.45623  0.91684  0.94034  1.0000
  H   H1511     1.0  0.34984  0.66295  0.83188  1.0000
  C   C886      1.0  0.43965  0.86360  0.94863  1.0000
  H   H1512     1.0  0.35388  0.70233  0.87738  1.0000
  H   H1513     1.0  0.37846  0.68292  0.63651  1.0000
  H   H1514     1.0  0.41812  0.84060  0.95355  1.0000
  H   H1515     1.0  0.44995  0.87223  0.95466  1.0000
  H   H1516     1.0  0.24799  0.74918  0.62658  1.0000
  C   C887      1.0  0.35039  0.67212  0.67461  1.0000
  H   H1517     1.0  0.47583  0.90464  0.90387  1.0000
  C   C888      1.0  0.23733  0.76479  0.90998  1.0000
  C   C889      1.0  0.26113  0.74487  0.94514  1.0000
  H   H1518     1.0  0.25620  0.72918  0.89626  1.0000
  C   C890      1.0  0.24216  0.73776  0.63595  1.0000
  C   C891      1.0  0.43306  0.97788  0.65163  1.0000
  H   H1519     1.0  0.44449  0.96441  0.56924  1.0000
  H   H1520     1.0  0.39103  0.65465  0.87555  1.0000
  C   C892      1.0  0.40083  0.88869  0.98076  1.0000
  H   H1521     1.0  0.23743  0.69460  0.70530  1.0000
  C   C893      1.0  0.40466  0.85510  0.49280  1.0000
  H   H1522     1.0  0.43384  0.83270  0.49556  1.0000
  C   C894      1.0  0.44891  0.97625  0.55898  1.0000
  H   H1523     1.0  0.38937  0.88218  0.97332  1.0000
  H   H1524     1.0  0.32405  0.65676  0.85115  1.0000
  N   N63       1.0  0.42309  0.85771  0.48447  1.0000
  H   H1525     1.0  0.45993  0.85104  0.48439  1.0000
  C   C895      1.0  0.41217  0.98284  0.60504  1.0000
  H   H1526     1.0  0.44021  0.87894  0.48645  1.0000
  Fe  Fe129     1.0  0.65040  0.20366  0.41708  1.0000
  S   S260      1.0  0.65720  0.17574  0.41579  1.0000
  S   S261      1.0  0.65836  0.21607  0.37561  1.0000
  H   H1527     1.0  0.68147  0.30283  0.29831  1.0000
  H   H1528     1.0  0.66946  0.13937  0.39392  1.0000
  S   S262      1.0  0.64190  0.23180  0.01107  1.0000
  Fe  Fe130     1.0  0.66935  0.17874  0.45777  1.0000
  C   C896      1.0  0.57518  0.11582  0.01961  1.0000
  Fe  Fe131     1.0  0.63216  0.17107  0.43761  1.0000
  S   S263      1.0  0.61689  0.15074  0.41447  1.0000
  S   S264      1.0  0.66412  0.20707  0.45814  1.0000
  S   S265      1.0  0.62476  0.19914  0.43715  1.0000
  Fe  Fe132     1.0  0.63729  0.25882  0.17443  1.0000
  S   S266      1.0  0.65263  0.28239  0.16838  1.0000
  S   S267      1.0  0.63400  0.23657  0.14424  1.0000
  Fe  Fe133     1.0  0.63112  0.26604  0.23752  1.0000
  S   S268      1.0  0.64576  0.29012  0.23517  1.0000
  S   S269      1.0  0.61908  0.25821  0.27940  1.0000
  Fe  Fe134     1.0  0.63154  0.29556  0.19458  1.0000
  C   C897      1.0  0.51699  0.12342  0.45521  1.0000
  Fe  Fe135     1.0  0.66532  0.27520  0.20958  1.0000
  S   S270      1.0  0.69318  0.26827  0.22135  1.0000
  S   S271      1.0  0.61573  0.27219  0.19859  1.0000
  S   S272      1.0  0.65106  0.25091  0.21397  1.0000
  Fe  Fe136     1.0  0.53884  0.07911  0.40936  1.0000
  S   S273      1.0  0.51169  0.08780  0.39922  1.0000
  S   S274      1.0  0.55645  0.09762  0.43259  1.0000
  Fe  Fe137     1.0  0.53095  0.04178  0.39246  1.0000
  S   S275      1.0  0.50357  0.04842  0.38172  1.0000
  S   S276      1.0  0.54352  0.01512  0.38722  1.0000
  Fe  Fe138     1.0  0.51408  0.07154  0.36051  1.0000
  S   S277      1.0  0.50768  0.08174  0.31648  1.0000
  Fe  Fe139     1.0  0.50341  0.06397  0.42150  1.0000
  C   C898      1.0  0.68201  0.20590  0.04662  1.0000
  S   S278      1.0  0.54179  0.06423  0.36919  1.0000
  S   S279      1.0  0.53020  0.05590  0.43365  1.0000
  H   H1529     1.0  0.57372  0.11966  0.47027  1.0000
  C   C899      1.0  0.67851  0.20033  0.09741  1.0000
  H   H1530     1.0  0.65165  0.14122  0.43557  1.0000
  H   H1531     1.0  0.66446  0.20098  0.09358  1.0000
  H   H1532     1.0  0.59654  0.14070  0.46422  1.0000
  N   N64       1.0  0.65547  0.11565  0.45212  1.0000
  H   H1533     1.0  0.50342  0.09250  0.46297  1.0000
  H   H1534     1.0  0.53046  0.05656  0.27107  1.0000
  C   C900      1.0  0.51721  0.99605  0.36609  1.0000
  C   C901      1.0  0.53447  0.99648  0.37349  1.0000
  H   H1535     1.0  0.50885  0.00711  0.36963  1.0000
  H   H1536     1.0  0.53644  0.00375  0.31753  1.0000
  H   H1537     1.0  0.49793  0.03343  0.23301  1.0000
  C   C902      1.0  0.49228  0.07492  0.29207  1.0000
  H   H1538     1.0  0.67721  0.11830  0.40178  1.0000
  C   C903      1.0  0.59987  0.13626  0.42010  1.0000
  C   C904      1.0  0.59411  0.12674  0.39731  1.0000
  C   C905      1.0  0.58086  0.11500  0.40055  1.0000
  C   C906      1.0  0.57328  0.11233  0.42685  1.0000
  C   C907      1.0  0.57925  0.12167  0.44973  1.0000
  C   C908      1.0  0.59228  0.13363  0.44638  1.0000
  H   H1539     1.0  0.64474  0.09879  0.42130  1.0000
  H   H1540     1.0  0.57659  0.10792  0.38272  1.0000
  H   H1541     1.0  0.65497  0.12242  0.39226  1.0000
  H   H1542     1.0  0.53405  0.06094  0.03104  1.0000
  C   C909      1.0  0.64639  0.22680  0.34893  1.0000
  C   C910      1.0  0.65302  0.22684  0.32146  1.0000
  C   C911      1.0  0.64461  0.23608  0.29985  1.0000
  C   C912      1.0  0.62948  0.24549  0.30551  1.0000
  C   C913      1.0  0.62266  0.24522  0.33289  1.0000
  C   C914      1.0  0.63108  0.23595  0.35453  1.0000
  H   H1543     1.0  0.66484  0.21978  0.31690  1.0000
  H   H1544     1.0  0.64987  0.23601  0.27881  1.0000
  H   H1545     1.0  0.61098  0.25250  0.33747  1.0000
  H   H1546     1.0  0.62597  0.23625  0.37565  1.0000
  C   C915      1.0  0.63501  0.23584  0.10702  1.0000
  C   C916      1.0  0.63813  0.25025  0.09055  1.0000
  C   C917      1.0  0.63972  0.24880  0.06116  1.0000
  C   C918      1.0  0.63834  0.23296  0.04788  1.0000
  C   C919      1.0  0.63498  0.21860  0.06431  1.0000
  C   C920      1.0  0.63324  0.22008  0.09367  1.0000
  H   H1547     1.0  0.63946  0.26247  0.10045  1.0000
  H   H1548     1.0  0.64229  0.26001  0.04867  1.0000
  H   H1549     1.0  0.63378  0.20636  0.05441  1.0000
  H   H1550     1.0  0.63069  0.20888  0.10619  1.0000
  H   H1551     1.0  0.54382  0.13076  0.46065  1.0000
  C   C921      1.0  0.71359  0.29661  0.22491  1.0000
  C   C922      1.0  0.71165  0.27932  0.23090  1.0000
  C   C923      1.0  0.66154  0.13066  0.43519  1.0000
  C   C924      1.0  0.66595  0.12717  0.40409  1.0000
  H   H1552     1.0  0.67905  0.07885  0.47313  1.0000
  H   H1553     1.0  0.48809  0.08790  0.98872  1.0000
  C   C925      1.0  0.72913  0.16242  0.47901  1.0000
  H   H1554     1.0  0.67478  0.19600  0.14204  1.0000
  H   H1555     1.0  0.55086  0.02771  0.30175  1.0000
  H   H1556     1.0  0.61693  0.09434  0.44112  1.0000
  H   H1557     1.0  0.70337  0.30388  0.21468  1.0000
  C   C926      1.0  0.53995  0.05099  0.28586  1.0000
  H   H1558     1.0  0.58363  0.11311  0.00130  1.0000
  C   C927      1.0  0.49613  0.02080  0.31073  1.0000
  H   H1559     1.0  0.61891  0.11019  0.46718  1.0000
  H   H1560     1.0  0.71296  0.27826  0.30478  1.0000
  S   S280      1.0  0.69544  0.16480  0.46221  1.0000
  H   H1561     1.0  0.68765  0.23420  0.09991  1.0000
  H   H1562     1.0  0.52000  0.02780  0.32959  1.0000
  H   H1563     1.0  0.54901  0.02838  0.26461  1.0000
  C   C928      1.0  0.54435  0.99370  0.27775  1.0000
  H   H1564     1.0  0.66986  0.21285  0.04079  1.0000
  H   H1565     1.0  0.67606  0.25243  0.33312  1.0000
  H   H1566     1.0  0.67348  0.09755  0.43296  1.0000
  H   H1567     1.0  0.68524  0.28490  0.27681  1.0000
  H   H1568     1.0  0.53316  0.07826  0.98989  1.0000
  H   H1569     1.0  0.67398  0.30041  0.34681  1.0000
  H   H1570     1.0  0.66847  0.28490  0.39081  1.0000
  H   H1571     1.0  0.48852  0.02322  0.29148  1.0000
  H   H1572     1.0  0.65163  0.26864  0.32228  1.0000
  H   H1573     1.0  0.55440  0.10551  0.04360  1.0000
  H   H1574     1.0  0.48887  0.02689  0.32829  1.0000
  H   H1575     1.0  0.67763  0.18472  0.01873  1.0000
  H   H1576     1.0  0.50170  0.09096  0.25887  1.0000
  C   C929      1.0  0.70678  0.20935  0.07845  1.0000
  H   H1577     1.0  0.63119  0.09033  0.46974  1.0000
  H   H1578     1.0  0.68795  0.17785  0.05019  1.0000
  H   H1579     1.0  0.73001  0.21659  0.44422  1.0000
  C   C930      1.0  0.68788  0.25180  0.29258  1.0000
  C   C931      1.0  0.53109  0.13669  0.45611  1.0000
  H   H1580     1.0  0.72283  0.21207  0.01295  1.0000
  H   H1581     1.0  0.51844  0.04329  0.23231  1.0000
  H   H1582     1.0  0.50576  0.13028  0.44569  1.0000
  H   H1583     1.0  0.51336  0.31076  0.09720  1.0000
  H   H1584     1.0  0.68228  0.18661  0.09594  1.0000
  C   C932      1.0  0.67823  0.18697  0.04165  1.0000
  H   H1585     1.0  0.69152  0.20988  0.03068  1.0000
  C   C933      1.0  0.65009  0.12225  0.48059  1.0000
  H   H1586     1.0  0.51124  0.04254  0.30540  1.0000
  C   C934      1.0  0.49591  0.06523  0.01158  1.0000
  N   N65       1.0  0.60628  0.18073  0.34028  1.0000
  C   C935      1.0  0.59149  0.17086  0.35173  1.0000
  C   C936      1.0  0.61097  0.19338  0.36232  1.0000
  C   C937      1.0  0.62117  0.16826  0.33500  1.0000
  C   C938      1.0  0.60049  0.18937  0.31343  1.0000
  C   C939      1.0  0.58593  0.15569  0.33392  1.0000
  C   C940      1.0  0.59693  0.20674  0.37059  1.0000
  C   C941      1.0  0.63944  0.17503  0.33732  1.0000
  C   C942      1.0  0.61309  0.20147  0.29949  1.0000
  H   H1587     1.0  0.59447  0.16575  0.37307  1.0000
  H   H1588     1.0  0.57981  0.17924  0.35428  1.0000
  H   H1589     1.0  0.62219  0.20073  0.35587  1.0000
  H   H1590     1.0  0.61502  0.18645  0.38180  1.0000
  H   H1591     1.0  0.62099  0.15747  0.35040  1.0000
  H   H1592     1.0  0.62013  0.16234  0.31399  1.0000
  H   H1593     1.0  0.59762  0.17980  0.29726  1.0000
  H   H1594     1.0  0.58828  0.19681  0.31691  1.0000
  H   H1595     1.0  0.59646  0.14612  0.33030  1.0000
  H   H1596     1.0  0.57569  0.14900  0.34544  1.0000
  H   H1597     1.0  0.58041  0.15996  0.31360  1.0000
  H   H1598     1.0  0.59268  0.21473  0.35249  1.0000
  H   H1599     1.0  0.58585  0.20092  0.38106  1.0000
  H   H1600     1.0  0.60232  0.21553  0.38608  1.0000
  H   H1601     1.0  0.64143  0.18691  0.32532  1.0000
  H   H1602     1.0  0.64885  0.16524  0.32942  1.0000
  H   H1603     1.0  0.64268  0.17732  0.35952  1.0000
  H   H1604     1.0  0.61678  0.21170  0.31373  1.0000
  H   H1605     1.0  0.60681  0.20788  0.28121  1.0000
  H   H1606     1.0  0.62461  0.19451  0.29134  1.0000
  C   C943      1.0  0.71013  0.19470  0.98589  1.0000
  C   C944      1.0  0.62626  0.10031  0.45515  1.0000
  H   H1607     1.0  0.53225  0.14267  0.43501  1.0000
  C   C945      1.0  0.73303  0.24709  0.17958  1.0000
  H   H1608     1.0  0.63955  0.13212  0.47832  1.0000
  C   C946      1.0  0.54192  0.03138  0.28439  1.0000
  H   H1609     1.0  0.54453  0.07633  0.05146  1.0000
  H   H1610     1.0  0.55243  0.05662  0.28064  1.0000
  H   H1611     1.0  0.50406  0.04540  0.26180  1.0000
  C   C947      1.0  0.67765  0.28658  0.34774  1.0000
  H   H1612     1.0  0.65276  0.27921  0.36610  1.0000
  N   N66       1.0  0.67694  0.27872  0.31910  1.0000
  H   H1613     1.0  0.58253  0.07931  0.99285  1.0000
  C   C948      1.0  0.50919  0.03654  0.24584  1.0000
  C   C949      1.0  0.54022  0.11466  0.99420  1.0000
  H   H1614     1.0  0.73217  0.24512  0.20257  1.0000
  C   C950      1.0  0.51388  0.02872  0.30856  1.0000
  H   H1615     1.0  0.56968  0.09021  0.03091  1.0000
  H   H1616     1.0  0.69852  0.25749  0.28080  1.0000
  C   C951      1.0  0.51738  0.02003  0.25828  1.0000
  C   C952      1.0  0.72388  0.19998  0.00232  1.0000
  H   H1617     1.0  0.67644  0.25188  0.27905  1.0000
  H   H1618     1.0  0.58363  0.11638  0.03816  1.0000
  H   H1619     1.0  0.72911  0.19220  0.08000  1.0000
  H   H1620     1.0  0.56895  0.12867  0.01734  1.0000
  C   C953      1.0  0.49516  0.05679  0.03768  1.0000
  N   N67       1.0  0.52582  0.02130  0.28645  1.0000
  C   C954      1.0  0.72902  0.30443  0.23157  1.0000
  C   C955      1.0  0.49250  0.08152  0.26452  1.0000
  N   N68       1.0  0.55029  0.09833  0.00065  1.0000
  H   H1621     1.0  0.70115  0.24232  0.05337  1.0000
  H   H1622     1.0  0.66813  0.23060  0.08287  1.0000
  H   H1623     1.0  0.63503  0.29234  0.30143  1.0000
  C   C956      1.0  0.65871  0.27787  0.30930  1.0000
  H   H1624     1.0  0.68067  0.23951  0.03669  1.0000
  H   H1625     1.0  0.63335  0.11848  0.42478  1.0000
  H   H1626     1.0  0.58947  0.31022  0.16252  1.0000
  H   H1627     1.0  0.67461  0.21798  0.13287  1.0000
  H   H1628     1.0  0.69687  0.26044  0.33238  1.0000
  H   H1629     1.0  0.64629  0.30003  0.33076  1.0000
  H   H1630     1.0  0.49683  0.00698  0.31537  1.0000
  H   H1631     1.0  0.72864  0.19522  0.40591  1.0000
  H   H1632     1.0  0.55609  0.06466  0.02445  1.0000
  C   C957      1.0  0.70604  0.29082  0.30449  1.0000
  H   H1633     1.0  0.71083  0.21483  0.09865  1.0000
  H   H1634     1.0  0.54875  0.12473  0.98634  1.0000
  C   C958      1.0  0.54371  0.07099  0.03007  1.0000
  H   H1635     1.0  0.67328  0.13592  0.44427  1.0000
  H   H1636     1.0  0.68190  0.10874  0.46145  1.0000
  C   C959      1.0  0.68221  0.22931  0.08018  1.0000
  S   S281      1.0  0.64488  0.17181  0.47996  1.0000
  H   H1637     1.0  0.65821  0.27298  0.28756  1.0000
  C   C960      1.0  0.53771  0.08488  0.00883  1.0000
  H   H1638     1.0  0.71314  0.21698  0.06193  1.0000
  H   H1639     1.0  0.71029  0.18258  0.09293  1.0000
  C   C961      1.0  0.71511  0.19135  0.07663  1.0000
  H   H1640     1.0  0.69171  0.23824  0.29661  1.0000
  H   H1641     1.0  0.69469  0.20549  0.13408  1.0000
  C   C962      1.0  0.48767  0.08125  0.00865  1.0000
  C   C963      1.0  0.68101  0.20544  0.12821  1.0000
  C   C964      1.0  0.64037  0.10839  0.43708  1.0000
  H   H1642     1.0  0.51979  0.99517  0.29749  1.0000
  H   H1643     1.0  0.53937  0.99102  0.25663  1.0000
  H   H1644     1.0  0.52678  0.01540  0.24224  1.0000
  H   H1645     1.0  0.66554  0.18390  0.05059  1.0000
  H   H1646     1.0  0.53397  0.11979  0.01361  1.0000
  H   H1647     1.0  0.53664  0.05518  0.30744  1.0000
  C   C965      1.0  0.53099  0.00346  0.29608  1.0000
  H   H1648     1.0  0.52809  0.14708  0.47112  1.0000
  N   N69       1.0  0.68756  0.21084  0.07564  1.0000
  C   C966      1.0  0.68714  0.24202  0.05679  1.0000
  H   H1649     1.0  0.71373  0.18588  0.05552  1.0000
  C   C967      1.0  0.68456  0.26080  0.32080  1.0000
  H   H1650     1.0  0.70840  0.29765  0.32422  1.0000
  H   H1651     1.0  0.59995  0.12841  0.37692  1.0000
  H   H1652     1.0  0.68271  0.25504  0.06314  1.0000
  H   H1653     1.0  0.50167  0.04450  0.04031  1.0000
  C   C968      1.0  0.68673  0.28949  0.29865  1.0000
  H   H1654     1.0  0.67049  0.26462  0.37435  1.0000
  H   H1655     1.0  0.52594  0.09075  0.01862  1.0000
  C   C969      1.0  0.56207  0.10182  0.02468  1.0000
  H   H1656     1.0  0.69098  0.28597  0.35578  1.0000
  C   C970      1.0  0.67011  0.10267  0.45401  1.0000
  H   H1657     1.0  0.71980  0.24940  0.17164  1.0000
  H   H1658     1.0  0.73022  0.15174  0.46487  1.0000
  H   H1659     1.0  0.50752  0.01012  0.25850  1.0000
  C   C971      1.0  0.66663  0.27819  0.37071  1.0000
  H   H1660     1.0  0.71187  0.29844  0.28743  1.0000
  C   C972      1.0  0.72512  0.27009  0.24415  1.0000
  H   H1661     1.0  0.69871  0.20277  0.98363  1.0000
  H   H1662     1.0  0.55659  0.00034  0.27607  1.0000
  H   H1663     1.0  0.52077  0.31043  0.06121  1.0000
  H   H1664     1.0  0.71571  0.21401  0.39972  1.0000
  Fe  Fe140     1.0  0.63902  0.20028  0.47842  1.0000
  H   H1665     1.0  0.65694  0.07914  0.46447  1.0000
  H   H1666     1.0  0.65349  0.30456  0.29540  1.0000
  C   C973      1.0  0.66715  0.08703  0.47283  1.0000
  C   C974      1.0  0.49841  0.10286  0.47696  1.0000
  H   H1667     1.0  0.53205  0.09552  0.47770  1.0000
  C   C975      1.0  0.64804  0.29480  0.30942  1.0000
  H   H1668     1.0  0.72375  0.25672  0.24901  1.0000
  C   C976      1.0  0.72917  0.20908  0.40147  1.0000
  H   H1669     1.0  0.52121  0.11353  0.43980  1.0000
  C   C977      1.0  0.48583  0.06395  0.06034  1.0000
  S   S282      1.0  0.50686  0.05477  0.98341  1.0000
  C   C978      1.0  0.71336  0.17154  0.48159  1.0000
  H   H1670     1.0  0.73536  0.21110  0.38080  1.0000
  Fe  Fe141     1.0  0.64558  0.20942  0.91335  1.0000
  S   S283      1.0  0.64931  0.18080  0.91303  1.0000
  S   S284      1.0  0.64419  0.22949  0.87790  1.0000
  H   H1671     1.0  0.52485  0.10547  0.53913  1.0000
  H   H1672     1.0  0.72257  0.29560  0.82986  1.0000
  S   S285      1.0  0.62617  0.21312  0.51650  1.0000
  Fe  Fe142     1.0  0.66708  0.18451  0.94986  1.0000
  H   H1673     1.0  0.49036  0.00773  0.75011  1.0000
  Fe  Fe143     1.0  0.62806  0.18018  0.94557  1.0000
  S   S286      1.0  0.60258  0.16574  0.94457  1.0000
  S   S287      1.0  0.66468  0.21295  0.94770  1.0000
  S   S288      1.0  0.62363  0.20884  0.94412  1.0000
  Fe  Fe144     1.0  0.65201  0.26724  0.65509  1.0000
  S   S289      1.0  0.65171  0.29560  0.66212  1.0000
  S   S290      1.0  0.66089  0.25558  0.61337  1.0000
  Fe  Fe145     1.0  0.64373  0.25969  0.71717  1.0000
  S   S291      1.0  0.64236  0.28757  0.72838  1.0000
  S   S292      1.0  0.64113  0.23547  0.74397  1.0000
  Fe  Fe146     1.0  0.62776  0.29203  0.68784  1.0000
  S   S293      1.0  0.60136  0.30614  0.68256  1.0000
  Fe  Fe147     1.0  0.66639  0.28920  0.70173  1.0000
  S   S294      1.0  0.68910  0.30541  0.71244  1.0000
  S   S295      1.0  0.62744  0.26375  0.67854  1.0000
  S   S296      1.0  0.66840  0.26132  0.69281  1.0000
  Fe  Fe148     1.0  0.54072  0.08182  0.90200  1.0000
  S   S297      1.0  0.51292  0.08723  0.91422  1.0000
  S   S298      1.0  0.56444  0.09899  0.90209  1.0000
  Fe  Fe149     1.0  0.53378  0.04356  0.89047  1.0000
  S   S299      1.0  0.50620  0.04659  0.90261  1.0000
  S   S300      1.0  0.54661  0.01832  0.87671  1.0000
  Fe  Fe150     1.0  0.50643  0.07081  0.87691  1.0000
  H   H1674     1.0  0.71140  0.30383  0.87669  1.0000
  Fe  Fe151     1.0  0.51475  0.06244  0.93867  1.0000
  H   H1675     1.0  0.55957  0.98601  0.85646  1.0000
  S   S301      1.0  0.53388  0.06710  0.86308  1.0000
  S   S302      1.0  0.54267  0.05772  0.92817  1.0000
  H   H1676     1.0  0.64232  0.20131  0.71513  1.0000
  H   H1677     1.0  0.62253  0.22642  0.69163  1.0000
  H   H1678     1.0  0.64595  0.19803  0.59733  1.0000
  H   H1679     1.0  0.72502  0.19946  0.53176  1.0000
  H   H1680     1.0  0.49945  0.13942  0.49170  1.0000
  H   H1681     1.0  0.56772  0.15528  0.94880  1.0000
  H   H1682     1.0  0.62774  0.18631  0.60708  1.0000
  C   C979      1.0  0.66890  0.20892  0.63708  1.0000
  C   C980      1.0  0.51819  0.99874  0.86812  1.0000
  C   C981      1.0  0.53601  0.99966  0.86696  1.0000
  H   H1683     1.0  0.51052  0.00957  0.87547  1.0000
  H   H1684     1.0  0.49019  0.03599  0.80520  1.0000
  H   H1685     1.0  0.51792  0.13492  0.51248  1.0000
  C   C982      1.0  0.51700  0.00236  0.78727  1.0000
  H   H1686     1.0  0.58124  0.27729  0.54805  1.0000
  C   C983      1.0  0.59240  0.14694  0.93263  1.0000
  C   C984      1.0  0.57472  0.14530  0.93766  1.0000
  C   C985      1.0  0.56594  0.13099  0.92815  1.0000
  C   C986      1.0  0.57470  0.11787  0.91361  1.0000
  C   C987      1.0  0.59236  0.11957  0.90844  1.0000
  C   C988      1.0  0.60113  0.13396  0.91777  1.0000
  H   H1687     1.0  0.67637  0.23224  0.65861  1.0000
  H   H1688     1.0  0.55235  0.13020  0.93189  1.0000
  H   H1689     1.0  0.59936  0.10961  0.89722  1.0000
  H   H1690     1.0  0.61467  0.13493  0.91353  1.0000
  C   C989      1.0  0.64410  0.23064  0.84057  1.0000
  C   C990      1.0  0.64267  0.24678  0.82753  1.0000
  C   C991      1.0  0.64209  0.24849  0.79808  1.0000
  C   C992      1.0  0.64275  0.23402  0.78118  1.0000
  C   C993      1.0  0.64423  0.21784  0.79418  1.0000
  C   C994      1.0  0.64503  0.21615  0.82367  1.0000
  H   H1691     1.0  0.64197  0.25809  0.84034  1.0000
  H   H1692     1.0  0.64092  0.26102  0.78850  1.0000
  H   H1693     1.0  0.64482  0.20655  0.78135  1.0000
  H   H1694     1.0  0.64636  0.20367  0.83331  1.0000
  C   C995      1.0  0.65078  0.24395  0.58668  1.0000
  C   C996      1.0  0.63335  0.24050  0.58754  1.0000
  C   C997      1.0  0.62603  0.23113  0.56584  1.0000
  C   C998      1.0  0.63605  0.22491  0.54324  1.0000
  C   C999      1.0  0.65351  0.22820  0.54259  1.0000
  C   C1000     1.0  0.66078  0.23771  0.56413  1.0000
  H   H1695     1.0  0.62554  0.24493  0.60494  1.0000
  H   H1696     1.0  0.61252  0.22858  0.56661  1.0000
  H   H1697     1.0  0.66140  0.22352  0.52539  1.0000
  H   H1698     1.0  0.67430  0.24024  0.56327  1.0000
  H   H1699     1.0  0.53678  0.04687  0.80743  1.0000
  H   H1700     1.0  0.72059  0.27924  0.66868  1.0000
  C   C1001     1.0  0.71128  0.30392  0.72096  1.0000
  H   H1701     1.0  0.52825  0.00128  0.77281  1.0000
  H   H1702     1.0  0.56545  0.06581  0.98147  1.0000
  H   H1703     1.0  0.67006  0.20661  0.69385  1.0000
  H   H1704     1.0  0.49069  0.00102  0.58701  1.0000
  H   H1705     1.0  0.53889  0.11378  0.49559  1.0000
  C   C1002     1.0  0.59043  0.28776  0.60996  1.0000
  H   H1706     1.0  0.50431  0.08047  0.75167  1.0000
  H   H1707     1.0  0.66942  0.14166  0.48856  1.0000
  N   N70       1.0  0.59388  0.20033  0.86258  1.0000
  C   C1003     1.0  0.58605  0.21155  0.88529  1.0000
  C   C1004     1.0  0.58065  0.18758  0.85525  1.0000
  C   C1005     1.0  0.59747  0.21156  0.83752  1.0000
  C   C1006     1.0  0.61020  0.19209  0.87383  1.0000
  C   C1007     1.0  0.59551  0.22797  0.89180  1.0000
  C   C1008     1.0  0.57620  0.17488  0.87880  1.0000
  C   C1009     1.0  0.60304  0.20270  0.81011  1.0000
  C   C1010     1.0  0.61785  0.17630  0.85829  1.0000
  H   H1708     1.0  0.57266  0.21569  0.87999  1.0000
  H   H1709     1.0  0.58513  0.20444  0.90553  1.0000
  H   H1710     1.0  0.58443  0.17977  0.83694  1.0000
  H   H1711     1.0  0.56852  0.19430  0.84863  1.0000
  H   H1712     1.0  0.58594  0.21976  0.83248  1.0000
  H   H1713     1.0  0.60786  0.22043  0.84226  1.0000
  H   H1714     1.0  0.62042  0.20156  0.87479  1.0000
  H   H1715     1.0  0.60840  0.18801  0.89604  1.0000
  H   H1716     1.0  0.59030  0.23359  0.91151  1.0000
  H   H1717     1.0  0.60937  0.22550  0.89489  1.0000
  H   H1718     1.0  0.59360  0.23774  0.87504  1.0000
  H   H1719     1.0  0.56664  0.16595  0.87102  1.0000
  H   H1720     1.0  0.58757  0.16702  0.88517  1.0000
  H   H1721     1.0  0.57045  0.18125  0.89744  1.0000
  H   H1722     1.0  0.59295  0.19480  0.80134  1.0000
  H   H1723     1.0  0.61522  0.19524  0.81240  1.0000
  H   H1724     1.0  0.60554  0.21270  0.79409  1.0000
  H   H1725     1.0  0.63097  0.17891  0.85069  1.0000
  H   H1726     1.0  0.61054  0.17199  0.84020  1.0000
  H   H1727     1.0  0.61915  0.16532  0.87312  1.0000
  H   H1728     1.0  0.65303  0.17943  0.63795  1.0000
  H   H1729     1.0  0.67487  0.12074  0.50295  1.0000
  H   H1730     1.0  0.53829  0.08863  0.52572  1.0000
  C   C1011     1.0  0.52628  0.09624  0.52175  1.0000
  C   C1012     1.0  0.50656  0.12899  0.50316  1.0000
  C   C1013     1.0  0.64381  0.22027  0.66313  1.0000
  C   C1014     1.0  0.54577  0.98542  0.85745  1.0000
  H   H1731     1.0  0.65027  0.22806  0.67902  1.0000
  H   H1732     1.0  0.60959  0.27959  0.55769  1.0000
  H   H1733     1.0  0.67147  0.18612  0.67793  1.0000
  H   H1734     1.0  0.49428  0.09612  0.49611  1.0000
  C   C1015     1.0  0.49940  0.01812  0.75244  1.0000
  C   C1016     1.0  0.73180  0.29662  0.84746  1.0000
  H   H1735     1.0  0.64176  0.18046  0.69862  1.0000
  H   H1736     1.0  0.63421  0.18586  0.65554  1.0000
  H   H1737     1.0  0.50252  0.05926  0.54633  1.0000
  H   H1738     1.0  0.53160  0.11093  0.95080  1.0000
  H   H1739     1.0  0.64283  0.22859  0.64416  1.0000
  C   C1017     1.0  0.73294  0.19088  0.90695  1.0000
  H   H1740     1.0  0.50523  0.05915  0.49437  1.0000
  H   H1741     1.0  0.73208  0.28395  0.85821  1.0000
  C   C1018     1.0  0.66240  0.19695  0.68312  1.0000
  C   C1019     1.0  0.52789  0.10537  0.49326  1.0000
  C   C1020     1.0  0.72315  0.30945  0.86788  1.0000
  C   C1021     1.0  0.65006  0.19062  0.70594  1.0000
  H   H1742     1.0  0.52235  0.00229  0.80877  1.0000
  C   C1022     1.0  0.64456  0.19085  0.64225  1.0000
  C   C1023     1.0  0.51025  0.98384  0.85950  1.0000
  H   H1743     1.0  0.65774  0.18503  0.72347  1.0000
  H   H1744     1.0  0.49879  0.04465  0.73699  1.0000
  H   H1745     1.0  0.62172  0.29157  0.62658  1.0000
  H   H1746     1.0  0.62831  0.20828  0.61617  1.0000
  H   H1747     1.0  0.49734  0.13156  0.54617  1.0000
  H   H1748     1.0  0.72723  0.15664  0.96445  1.0000
  C   C1024     1.0  0.48979  0.03451  0.74249  1.0000
  H   H1749     1.0  0.69051  0.22530  0.63129  1.0000
  H   H1750     1.0  0.51581  0.08714  0.52228  1.0000
  H   H1751     1.0  0.57902  0.07567  0.95659  1.0000
  H   H1752     1.0  0.52140  0.03584  0.82775  1.0000
  Fe  Fe152     1.0  0.64297  0.21042  0.97855  1.0000
  C   C1025     1.0  0.50748  0.98560  0.78504  1.0000
  H   H1753     1.0  0.63688  0.29853  0.56740  1.0000
  C   C1026     1.0  0.62518  0.21794  0.67348  1.0000
  C   C1027     1.0  0.72039  0.28869  0.72809  1.0000
  H   H1754     1.0  0.69098  0.21402  0.66394  1.0000
  N   N71       1.0  0.65447  0.20433  0.65675  1.0000
  H   H1755     1.0  0.60196  0.26338  0.62461  1.0000
  H   H1756     1.0  0.66383  0.21546  0.61794  1.0000
  H   H1757     1.0  0.57729  0.29150  0.60334  1.0000
  H   H1758     1.0  0.60991  0.30162  0.54897  1.0000
  C   C1028     1.0  0.71214  0.18522  0.50019  1.0000
  H   H1759     1.0  0.71894  0.19396  0.90799  1.0000
  C   C1029     1.0  0.63689  0.29862  0.59061  1.0000
  H   H1760     1.0  0.50772  0.07914  0.80344  1.0000
  C   C1030     1.0  0.60293  0.29214  0.56177  1.0000
  H   H1761     1.0  0.50972  0.01522  0.73677  1.0000
  H   H1762     1.0  0.73133  0.31255  0.88575  1.0000
  H   H1763     1.0  0.58516  0.29542  0.52707  1.0000
  H   H1764     1.0  0.67599  0.19724  0.62953  1.0000
  C   C1031     1.0  0.49538  0.07704  0.79422  1.0000
  H   H1765     1.0  0.70010  0.19231  0.50256  1.0000
  N   N72       1.0  0.60391  0.29631  0.59255  1.0000
  C   C1032     1.0  0.49282  0.06129  0.50415  1.0000
  H   H1766     1.0  0.62210  0.20502  0.68071  1.0000
  H   H1767     1.0  0.59364  0.26265  0.58931  1.0000
  H   H1768     1.0  0.57946  0.26318  0.61905  1.0000
  H   H1769     1.0  0.52855  0.03178  0.76402  1.0000
  H   H1770     1.0  0.62328  0.27616  0.59961  1.0000
  H   H1771     1.0  0.55123  0.09031  0.95738  1.0000
  H   H1772     1.0  0.64471  0.11206  0.49391  1.0000
  H   H1773     1.0  0.73466  0.17769  0.91532  1.0000
  H   H1774     1.0  0.49765  0.98447  0.80173  1.0000
  C   C1033     1.0  0.68236  0.22078  0.64883  1.0000
  C   C1034     1.0  0.49338  0.07786  0.76486  1.0000
  H   H1775     1.0  0.49585  0.11031  0.53448  1.0000
  C   C1035     1.0  0.63626  0.19640  0.61419  1.0000
  C   C1036     1.0  0.51920  0.03305  0.78171  1.0000
  H   H1776     1.0  0.61593  0.22218  0.65707  1.0000
  H   H1777     1.0  0.71379  0.27682  0.72849  1.0000
  H   H1778     1.0  0.53939  0.02440  0.81147  1.0000
  H   H1779     1.0  0.59099  0.29204  0.63209  1.0000
  S   S303      1.0  0.69374  0.17141  0.95275  1.0000
  H   H1780     1.0  0.49871  0.01856  0.82505  1.0000
  C   C1037     1.0  0.72633  0.18929  0.51668  1.0000
  C   C1038     1.0  0.52964  0.03491  0.80879  1.0000
  C   C1039     1.0  0.59159  0.26810  0.61045  1.0000
  H   H1781     1.0  0.65866  0.13407  0.51878  1.0000
  N   N73       1.0  0.50681  0.01870  0.78152  1.0000
  H   H1782     1.0  0.57456  0.29839  0.55973  1.0000
  H   H1783     1.0  0.72581  0.27170  0.63456  1.0000
  C   C1040     1.0  0.62114  0.29003  0.60341  1.0000
  H   H1784     1.0  0.56772  0.10393  0.96667  1.0000
  C   C1041     1.0  0.60268  0.31532  0.59712  1.0000
  S   S304      1.0  0.64616  0.18183  0.98253  1.0000
  C   C1042     1.0  0.49124  0.06142  0.53361  1.0000
  C   C1043     1.0  0.49457  0.12376  0.52754  1.0000
  H   H1785     1.0  0.64868  0.29143  0.59736  1.0000
  H   H1786     1.0  0.51236  0.04558  0.77851  1.0000
  C   C1044     1.0  0.58484  0.29083  0.54916  1.0000
  H   H1787     1.0  0.66429  0.09055  0.49484  1.0000
  C   C1045     1.0  0.56012  0.09321  0.97460  1.0000
  C   C1046     1.0  0.71110  0.17893  0.97252  1.0000
  C   C1047     1.0  0.73150  0.27593  0.65443  1.0000
  H   H1788     1.0  0.51893  0.12589  0.97046  1.0000
  C   C1048     1.0  0.49346  0.02205  0.80406  1.0000
  H   H1789     1.0  0.63802  0.31182  0.59833  1.0000
  C   C1049     1.0  0.72632  0.16885  0.97478  1.0000
  C   C1050     1.0  0.57242  0.07757  0.97711  1.0000
  H   H1790     1.0  0.48875  0.02545  0.54307  1.0000
  C   C1051     1.0  0.52610  0.11344  0.97189  1.0000
  H   H1791     1.0  0.51662  0.10370  0.97709  1.0000
  C   C1052     1.0  0.66425  0.13004  0.49831  1.0000
  H   H1792     1.0  0.73508  0.25002  0.66920  1.0000
  H   H1793     1.0  0.50195  0.98360  0.76411  1.0000
  H   H1794     1.0  0.49645  0.98334  0.86026  1.0000
  N   N74       1.0  0.51223  0.11523  0.48285  1.0000
  C   C1053     1.0  0.56091  0.52819  0.01098  1.0000
  Fe  Fe153     1.0  0.52801  0.54765  0.07100  1.0000
  S   S305      1.0  0.50347  0.56258  0.08013  1.0000
  S   S306      1.0  0.52585  0.51894  0.06443  1.0000
  Fe  Fe154     1.0  0.54935  0.58045  0.06629  1.0000
  S   S307      1.0  0.52615  0.59724  0.07566  1.0000
  S   S308      1.0  0.57699  0.58812  0.05549  1.0000
  Fe  Fe155     1.0  0.51946  0.57782  0.10902  1.0000
  H   H1795     1.0  0.53828  0.53996  0.15615  1.0000
  Fe  Fe156     1.0  0.51205  0.58045  0.04585  1.0000
  H   H1796     1.0  0.57734  0.54855  0.02037  1.0000
  S   S309      1.0  0.54365  0.56194  0.10161  1.0000
  S   S310      1.0  0.53556  0.56465  0.03485  1.0000
  Fe  Fe157     1.0  0.53383  0.42667  0.13743  1.0000
  S   S311      1.0  0.50577  0.42623  0.14773  1.0000
  S   S312      1.0  0.54743  0.45206  0.13494  1.0000
  Fe  Fe158     1.0  0.53863  0.38715  0.14204  1.0000
  S   S313      1.0  0.51060  0.38483  0.15226  1.0000
  S   S314      1.0  0.55201  0.36043  0.13981  1.0000
  Fe  Fe159     1.0  0.50576  0.40412  0.11755  1.0000
  C   C1054     1.0  0.58806  0.32396  0.16373  1.0000
  Fe  Fe160     1.0  0.51313  0.40689  0.18126  1.0000
  H   H1797     1.0  0.51166  0.33431  0.02750  1.0000
  S   S315      1.0  0.53355  0.40545  0.10563  1.0000
  S   S316      1.0  0.54139  0.40846  0.17256  1.0000
  H   H1798     1.0  0.62086  0.63301  0.98524  1.0000
  H   H1799     1.0  0.57005  0.50482  0.05020  1.0000
  H   H1800     1.0  0.50994  0.57540  0.41045  1.0000
  H   H1801     1.0  0.52564  0.51284  0.15291  1.0000
  H   H1802     1.0  0.48692  0.50401  0.12407  1.0000
  H   H1803     1.0  0.57632  0.35780  0.26016  1.0000
  C   C1055     1.0  0.53162  0.50072  0.08513  1.0000
  C   C1056     1.0  0.54375  0.50122  0.10646  1.0000
  C   C1057     1.0  0.54847  0.48621  0.12143  1.0000
  C   C1058     1.0  0.54084  0.47063  0.11574  1.0000
  C   C1059     1.0  0.52844  0.47025  0.09481  1.0000
  C   C1060     1.0  0.52403  0.48517  0.07940  1.0000
  H   H1804     1.0  0.54952  0.51311  0.11133  1.0000
  H   H1805     1.0  0.55804  0.48663  0.13765  1.0000
  H   H1806     1.0  0.52248  0.45838  0.09016  1.0000
  H   H1807     1.0  0.51463  0.48463  0.06293  1.0000
  H   H1808     1.0  0.48915  0.53711  0.15591  1.0000
  H   H1809     1.0  0.56145  0.53120  0.07029  1.0000
  H   H1810     1.0  0.50787  0.61330  0.45885  1.0000
  C   C1061     1.0  0.49661  0.35345  0.06778  1.0000
  H   H1811     1.0  0.51345  0.57190  0.46198  1.0000
  H   H1812     1.0  0.55657  0.40007  0.22950  1.0000
  H   H1813     1.0  0.53262  0.34167  0.03006  1.0000
  H   H1814     1.0  0.52496  0.48532  0.17066  1.0000
  H   H1815     1.0  0.50984  0.58675  0.21461  1.0000
  C   C1062     1.0  0.60407  0.60917  0.04458  1.0000
  C   C1063     1.0  0.58669  0.60850  0.05256  1.0000
  C   C1064     1.0  0.57773  0.62391  0.05801  1.0000
  C   C1065     1.0  0.48807  0.44638  0.99941  1.0000
  H   H1816     1.0  0.50015  0.36296  0.01231  1.0000
  H   H1817     1.0  0.61123  0.59741  0.04042  1.0000
  H   H1818     1.0  0.56439  0.62372  0.06420  1.0000
  C   C1066     1.0  0.54416  0.36570  0.06498  1.0000
  C   C1067     1.0  0.59898  0.35109  0.17672  1.0000
  C   C1068     1.0  0.58410  0.35965  0.16613  1.0000
  C   C1069     1.0  0.57108  0.35042  0.15406  1.0000
  C   C1070     1.0  0.57320  0.33251  0.15304  1.0000
  H   H1819     1.0  0.60901  0.35843  0.18565  1.0000
  H   H1820     1.0  0.58284  0.37340  0.16696  1.0000
  N   N75       1.0  0.58528  0.52741  0.04742  1.0000
  C   C1071     1.0  0.60119  0.33318  0.17550  1.0000
  N   N76       1.0  0.54163  0.36015  0.23835  1.0000
  C   C1072     1.0  0.53126  0.35150  0.26077  1.0000
  C   C1073     1.0  0.55683  0.34862  0.23099  1.0000
  C   C1074     1.0  0.53115  0.36346  0.21235  1.0000
  C   C1075     1.0  0.54713  0.37704  0.24935  1.0000
  C   C1076     1.0  0.60754  0.55081  0.05129  1.0000
  C   C1077     1.0  0.57035  0.34581  0.25410  1.0000
  C   C1078     1.0  0.52350  0.34760  0.19906  1.0000
  C   C1079     1.0  0.56051  0.38636  0.23131  1.0000
  H   H1821     1.0  0.73052  0.31776  0.22648  1.0000
  H   H1822     1.0  0.62158  0.55233  0.05264  1.0000
  H   H1823     1.0  0.56353  0.35326  0.21200  1.0000
  H   H1824     1.0  0.55266  0.33570  0.22533  1.0000
  H   H1825     1.0  0.52052  0.37297  0.21635  1.0000
  H   H1826     1.0  0.53894  0.36947  0.19567  1.0000
  H   H1827     1.0  0.50004  0.31941  0.07050  1.0000
  H   H1828     1.0  0.53854  0.35050  0.28069  1.0000
  H   H1829     1.0  0.57380  0.54956  0.06813  1.0000
  H   H1830     1.0  0.53001  0.51661  0.18826  1.0000
  H   H1831     1.0  0.56331  0.32515  0.14376  1.0000
  C   C1080     1.0  0.51231  0.64018  0.45203  1.0000
  H   H1832     1.0  0.56117  0.51443  0.00595  1.0000
  H   H1833     1.0  0.58876  0.50207  0.00466  1.0000
  H   H1834     1.0  0.53364  0.33877  0.19066  1.0000
  H   H1835     1.0  0.51553  0.35170  0.18092  1.0000
  H   H1836     1.0  0.51504  0.34076  0.21370  1.0000
  S   S317      1.0  0.51411  0.58446  0.15498  1.0000
  H   H1837     1.0  0.56221  0.38155  0.20973  1.0000
  H   H1838     1.0  0.55150  0.35519  0.07555  1.0000
  H   H1839     1.0  0.50180  0.44231  0.99769  1.0000
  H   H1840     1.0  0.48756  0.45909  0.00938  1.0000
  H   H1841     1.0  0.58955  0.48437  0.02837  1.0000
  C   C1081     1.0  0.49722  0.57818  0.17757  1.0000
  C   C1082     1.0  0.58375  0.50834  0.04938  1.0000
  H   H1842     1.0  0.54668  0.36540  0.04212  1.0000
  H   H1843     1.0  0.52374  0.36767  0.09514  1.0000
  C   C1083     1.0  0.49581  0.40212  0.00318  1.0000
  C   C1084     1.0  0.51354  0.31806  0.07715  1.0000
  C   C1085     1.0  0.52117  0.52055  0.17096  1.0000
  H   H1844     1.0  0.51670  0.54399  0.14551  1.0000
  H   H1845     1.0  0.56502  0.33944  0.27287  1.0000
  C   C1086     1.0  0.51388  0.36034  0.26829  1.0000
  S   S318      1.0  0.49523  0.59296  0.01182  1.0000
  H   H1846     1.0  0.61126  0.52671  0.03128  1.0000
  H   H1847     1.0  0.55674  0.53523  0.99177  1.0000
  H   H1848     1.0  0.53887  0.59228  0.45416  1.0000
  H   H1849     1.0  0.57313  0.38603  0.24185  1.0000
  H   H1850     1.0  0.50769  0.35304  0.28540  1.0000
  C   C1087     1.0  0.57486  0.53545  0.07082  1.0000
  H   H1851     1.0  0.53588  0.38603  0.25176  1.0000
  H   H1852     1.0  0.55055  0.62759  0.46994  1.0000
  C   C1088     1.0  0.51895  0.34562  0.03355  1.0000
  H   H1853     1.0  0.52138  0.33843  0.10458  1.0000
  C   C1089     1.0  0.60388  0.53163  0.04971  1.0000
  C   C1090     1.0  0.50079  0.57312  0.45315  1.0000
  H   H1854     1.0  0.60990  0.52511  0.06815  1.0000
  C   C1091     1.0  0.51860  0.62217  0.46121  1.0000
  H   H1855     1.0  0.50872  0.48765  0.14401  1.0000
  H   H1856     1.0  0.51539  0.37342  0.27620  1.0000
  C   C1092     1.0  0.57857  0.53436  0.01988  1.0000
  C   C1093     1.0  0.54330  0.59257  0.47614  1.0000
  H   H1857     1.0  0.55249  0.37541  0.27080  1.0000
  C   C1094     1.0  0.51411  0.35985  0.01218  1.0000
  H   H1858     1.0  0.50932  0.40526  0.04219  1.0000
  H   H1859     1.0  0.58928  0.50327  0.06929  1.0000
  H   H1860     1.0  0.60178  0.55696  0.07012  1.0000
  C   C1095     1.0  0.61237  0.62488  0.04214  1.0000
  H   H1861     1.0  0.52317  0.54787  0.18126  1.0000
  H   H1862     1.0  0.50903  0.52421  0.22161  1.0000
  H   H1863     1.0  0.52782  0.61790  0.44465  1.0000
  C   C1096     1.0  0.49860  0.58086  0.20659  1.0000
  H   H1864     1.0  0.59428  0.53652  0.10442  1.0000
  H   H1865     1.0  0.50485  0.36069  0.25048  1.0000
  H   H1866     1.0  0.49708  0.36310  0.11088  1.0000
  H   H1867     1.0  0.55613  0.59809  0.47712  1.0000
  H   H1868     1.0  0.50575  0.49520  0.20721  1.0000
  N   N77       1.0  0.51559  0.34997  0.06380  1.0000
  H   H1869     1.0  0.52880  0.33810  0.25508  1.0000
  H   H1870     1.0  0.53594  0.33269  0.07819  1.0000
  C   C1097     1.0  0.52484  0.36567  0.07214  1.0000
  H   H1871     1.0  0.48747  0.49483  0.18534  1.0000
  C   C1098     1.0  0.49028  0.52298  0.15708  1.0000
  S   S319      1.0  0.62060  0.32322  0.18867  1.0000
  H   H1872     1.0  0.62576  0.62502  0.03631  1.0000
  H   H1873     1.0  0.50681  0.47230  0.17146  1.0000
  C   C1099     1.0  0.49716  0.40278  0.03266  1.0000
  C   C1100     1.0  0.49314  0.51634  0.12707  1.0000
  H   H1874     1.0  0.54951  0.37767  0.07270  1.0000
  H   H1875     1.0  0.57267  0.53830  0.11604  1.0000
  H   H1876     1.0  0.51746  0.35539  0.99074  1.0000
  H   H1877     1.0  0.58120  0.51792  0.10626  1.0000
  H   H1878     1.0  0.50170  0.63905  0.43684  1.0000
  H   H1879     1.0  0.50702  0.40404  0.99027  1.0000
  H   H1880     1.0  0.60695  0.49845  0.02751  1.0000
  C   C1101     1.0  0.49170  0.40077  0.25166  1.0000
  H   H1881     1.0  0.50337  0.41156  0.28791  1.0000
  H   H1882     1.0  0.50673  0.51508  0.12089  1.0000
  C   C1102     1.0  0.49875  0.57489  0.42387  1.0000
  C   C1103     1.0  0.58136  0.53167  0.10084  1.0000
  C   C1104     1.0  0.59282  0.49797  0.02592  1.0000
  H   H1883     1.0  0.49678  0.55755  0.99291  1.0000
  H   H1884     1.0  0.60313  0.55792  0.03234  1.0000
  C   C1105     1.0  0.52474  0.53921  0.16314  1.0000
  S   S320      1.0  0.50752  0.40876  0.22846  1.0000
  H   H1885     1.0  0.55102  0.53077  0.02715  1.0000
  H   H1886     1.0  0.48893  0.34413  0.05635  1.0000
  N   N78       1.0  0.50294  0.51702  0.17909  1.0000
  C   C1106     1.0  0.52203  0.33528  0.08184  1.0000
  H   H1887     1.0  0.51879  0.37737  0.06265  1.0000
  C   C1107     1.0  0.49290  0.40422  0.28047  1.0000
  H   H1888     1.0  0.49895  0.54084  0.20158  1.0000
  H   H1889     1.0  0.49109  0.34108  0.10845  1.0000
  C   C1108     1.0  0.49016  0.35385  0.09834  1.0000
  H   H1890     1.0  0.52117  0.37163  0.01562  1.0000
  H   H1891     1.0  0.52279  0.64716  0.44175  1.0000
  C   C1109     1.0  0.51099  0.48539  0.16656  1.0000
  C   C1110     1.0  0.49895  0.52686  0.20557  1.0000
  H   H1892     1.0  0.58084  0.33726  0.24585  1.0000
  C   C1111     1.0  0.50117  0.49826  0.18560  1.0000
  H   H1893     1.0  0.58770  0.53141  0.00243  1.0000
  H   H1894     1.0  0.49266  0.36597  0.05833  1.0000
  H   H1895     1.0  0.48694  0.57797  0.24763  1.0000
  C   C1112     1.0  0.58604  0.63962  0.05565  1.0000
  H   H1896     1.0  0.49459  0.53652  0.39466  1.0000
  C   C1113     1.0  0.60342  0.64027  0.04766  1.0000
  H   H1897     1.0  0.50674  0.64791  0.46927  1.0000
  H   H1898     1.0  0.49440  0.52048  0.44642  1.0000
  H   H1899     1.0  0.48988  0.50572  0.40339  1.0000
  H   H1900     1.0  0.48850  0.52638  0.36322  1.0000
  C   C1114     1.0  0.48643  0.57269  0.47077  1.0000
  H   H1901     1.0  0.48758  0.52581  0.11191  1.0000
  C   C1115     1.0  0.49275  0.39089  0.50229  1.0000
  Fe  Fe161     1.0  0.53342  0.54966  0.58026  1.0000
  S   S321      1.0  0.50487  0.55163  0.57839  1.0000
  S   S322      1.0  0.54761  0.52423  0.58933  1.0000
  Fe  Fe162     1.0  0.53745  0.58841  0.57212  1.0000
  S   S323      1.0  0.50861  0.59248  0.57113  1.0000
  S   S324      1.0  0.55167  0.61391  0.56718  1.0000
  Fe  Fe163     1.0  0.50705  0.57392  0.60725  1.0000
  H   H1902     1.0  0.48952  0.62400  0.49361  1.0000
  Fe  Fe164     1.0  0.50835  0.56998  0.54238  1.0000
  C   C1116     1.0  0.57389  0.32789  0.66900  1.0000
  S   S325      1.0  0.53575  0.57136  0.61079  1.0000
  S   S326      1.0  0.53714  0.56635  0.54175  1.0000
  Fe  Fe165     1.0  0.51950  0.42513  0.62625  1.0000
  S   S327      1.0  0.49462  0.41420  0.64036  1.0000
  S   S328      1.0  0.51313  0.45240  0.61027  1.0000
  Fe  Fe166     1.0  0.53877  0.38999  0.63762  1.0000
  S   S329      1.0  0.51456  0.37744  0.65117  1.0000
  S   S330      1.0  0.56595  0.37714  0.63984  1.0000
  Fe  Fe167     1.0  0.50243  0.39155  0.61406  1.0000
  H   H1903     1.0  0.61226  0.63946  0.59683  1.0000
  Fe  Fe168     1.0  0.50879  0.40141  0.67594  1.0000
  S   S331      1.0  0.62170  0.64870  0.52716  1.0000
  S   S332      1.0  0.52691  0.40265  0.59885  1.0000
  S   S333      1.0  0.53341  0.41366  0.66349  1.0000
  H   H1904     1.0  0.52362  0.51329  0.67924  1.0000
  C   C1117     1.0  0.60153  0.34032  0.66424  1.0000
  H   H1905     1.0  0.60782  0.63087  0.95514  1.0000
  H   H1906     1.0  0.56091  0.39328  0.69306  1.0000
  H   H1907     1.0  0.61111  0.61384  0.52860  1.0000
  H   H1908     1.0  0.57833  0.39279  0.71773  1.0000
  C   C1118     1.0  0.53793  0.50429  0.59509  1.0000
  C   C1119     1.0  0.54789  0.49030  0.60526  1.0000
  C   C1120     1.0  0.54063  0.47429  0.61013  1.0000
  C   C1121     1.0  0.52328  0.47212  0.60480  1.0000
  C   C1122     1.0  0.51333  0.48613  0.59470  1.0000
  C   C1123     1.0  0.52060  0.50207  0.58971  1.0000
  H   H1909     1.0  0.56134  0.49183  0.60937  1.0000
  H   H1910     1.0  0.54846  0.46365  0.61789  1.0000
  H   H1911     1.0  0.49987  0.48467  0.59084  1.0000
  H   H1912     1.0  0.51283  0.51264  0.58162  1.0000
  H   H1913     1.0  0.51456  0.44235  0.54941  1.0000
  C   C1124     1.0  0.49853  0.43754  0.51181  1.0000
  H   H1914     1.0  0.63920  0.63172  0.61176  1.0000
  H   H1915     1.0  0.49597  0.42531  0.50142  1.0000
  H   H1916     1.0  0.59347  0.36238  0.74415  1.0000
  C   C1125     1.0  0.51232  0.56820  0.89356  1.0000
  H   H1917     1.0  0.50723  0.57872  0.73707  1.0000
  C   C1126     1.0  0.60198  0.63939  0.53816  1.0000
  H   H1918     1.0  0.52274  0.55832  0.89076  1.0000
  C   C1127     1.0  0.57285  0.64104  0.55744  1.0000
  C   C1128     1.0  0.57137  0.62319  0.55607  1.0000
  C   C1129     1.0  0.58533  0.61353  0.54543  1.0000
  C   C1130     1.0  0.60045  0.62156  0.53662  1.0000
  C   C1131     1.0  0.52372  0.58665  0.82074  1.0000
  H   H1919     1.0  0.54491  0.57907  0.48308  1.0000
  H   H1920     1.0  0.58453  0.59983  0.54405  1.0000
  H   H1921     1.0  0.52588  0.43480  0.51992  1.0000
  H   H1922     1.0  0.52650  0.59610  0.86293  1.0000
  C   C1132     1.0  0.56575  0.34325  0.65941  1.0000
  C   C1133     1.0  0.57543  0.35733  0.65220  1.0000
  C   C1134     1.0  0.59338  0.35568  0.65468  1.0000
  C   C1135     1.0  0.49717  0.52775  0.70644  1.0000
  H   H1923     1.0  0.55199  0.34412  0.65719  1.0000
  H   H1924     1.0  0.60108  0.36641  0.64915  1.0000
  H   H1925     1.0  0.51059  0.57907  0.68512  1.0000
  C   C1136     1.0  0.48849  0.39858  0.74860  1.0000
  C   C1137     1.0  0.54343  0.64826  0.49742  1.0000
  H   H1926     1.0  0.59171  0.64591  0.92422  1.0000
  H   H1927     1.0  0.58619  0.33808  0.59740  1.0000
  C   C1138     1.0  0.51491  0.62715  0.51275  1.0000
  H   H1928     1.0  0.53492  0.59994  0.51745  1.0000
  H   H1929     1.0  0.50326  0.44559  0.49426  1.0000
  C   C1139     1.0  0.49467  0.47519  0.52519  1.0000
  H   H1930     1.0  0.61209  0.32198  0.58374  1.0000
  H   H1931     1.0  0.56219  0.64874  0.56545  1.0000
  H   H1932     1.0  0.50846  0.52316  0.71890  1.0000
  H   H1933     1.0  0.49689  0.41648  0.77913  1.0000
  H   H1934     1.0  0.62822  0.64140  0.95292  1.0000
  H   H1935     1.0  0.71317  0.33100  0.71546  1.0000
  C   C1140     1.0  0.51843  0.58002  0.91686  1.0000
  C   C1141     1.0  0.49993  0.56312  0.84814  1.0000
  H   H1936     1.0  0.56428  0.41119  0.71478  1.0000
  C   C1142     1.0  0.53015  0.60177  0.49567  1.0000
  H   H1937     1.0  0.51323  0.64120  0.51211  1.0000
  H   H1938     1.0  0.60610  0.31822  0.61912  1.0000
  H   H1939     1.0  0.58221  0.32460  0.56876  1.0000
  H   H1940     1.0  0.51325  0.42028  0.53988  1.0000
  H   H1941     1.0  0.49142  0.48891  0.64394  1.0000
  H   H1942     1.0  0.51484  0.37074  0.75553  1.0000
  H   H1943     1.0  0.53173  0.57662  0.81018  1.0000
  H   H1944     1.0  0.52022  0.36905  0.79168  1.0000
  H   H1945     1.0  0.52866  0.58843  0.90957  1.0000
  C   C1143     1.0  0.60502  0.64158  0.61649  1.0000
  H   H1946     1.0  0.56620  0.31712  0.67429  1.0000
  H   H1947     1.0  0.52442  0.55077  0.83403  1.0000
  H   H1948     1.0  0.52363  0.34839  0.69205  1.0000
  H   H1949     1.0  0.52333  0.34632  0.72915  1.0000
  C   C1144     1.0  0.51367  0.43353  0.53166  1.0000
  H   H1950     1.0  0.57998  0.37629  0.76409  1.0000
  N   N79       1.0  0.52666  0.62049  0.48974  1.0000
  H   H1951     1.0  0.61937  0.64546  0.65435  1.0000
  H   H1952     1.0  0.52508  0.38800  0.77279  1.0000
  H   H1953     1.0  0.49354  0.42619  0.57430  1.0000
  H   H1954     1.0  0.57473  0.31943  0.60417  1.0000
  H   H1955     1.0  0.54209  0.33955  0.70904  1.0000
  H   H1956     1.0  0.49903  0.59997  0.88646  1.0000
  H   H1957     1.0  0.50763  0.58773  0.92599  1.0000
  H   H1958     1.0  0.50694  0.38935  0.54114  1.0000
  H   H1959     1.0  0.50555  0.53980  0.82516  1.0000
  H   H1960     1.0  0.50389  0.39363  0.48968  1.0000
  H   H1961     1.0  0.50131  0.56123  0.90229  1.0000
  C   C1145     1.0  0.49624  0.57679  0.72400  1.0000
  H   H1962     1.0  0.51439  0.51085  0.64626  1.0000
  H   H1963     1.0  0.50754  0.47074  0.51782  1.0000
  N   N80       1.0  0.50770  0.57660  0.86585  1.0000
  H   H1964     1.0  0.52990  0.59886  0.81584  1.0000
  H   H1965     1.0  0.55230  0.62296  0.50619  1.0000
  H   H1966     1.0  0.53491  0.57510  0.85741  1.0000
  H   H1967     1.0  0.48721  0.53560  0.48808  1.0000
  C   C1146     1.0  0.51160  0.54735  0.84175  1.0000
  H   H1968     1.0  0.71893  0.32136  0.85677  1.0000
  H   H1969     1.0  0.51102  0.48391  0.66270  1.0000
  H   H1970     1.0  0.52113  0.54513  0.67405  1.0000
  H   H1971     1.0  0.49519  0.56816  0.82785  1.0000
  H   H1972     1.0  0.51290  0.53886  0.86040  1.0000
  H   H1973     1.0  0.50954  0.54297  0.64158  1.0000
  C   C1147     1.0  0.49228  0.49975  0.68670  1.0000
  H   H1974     1.0  0.53124  0.53546  0.64439  1.0000
  C   C1148     1.0  0.52364  0.58376  0.85295  1.0000
  H   H1975     1.0  0.52367  0.57207  0.93440  1.0000
  C   C1149     1.0  0.51346  0.51881  0.66524  1.0000
  C   C1150     1.0  0.49661  0.62037  0.51292  1.0000
  C   C1151     1.0  0.58531  0.32449  0.59136  1.0000
  C   C1152     1.0  0.49432  0.59050  0.87148  1.0000
  H   H1976     1.0  0.60369  0.62880  0.62632  1.0000
  H   H1977     1.0  0.65946  0.63951  0.60178  1.0000
  C   C1153     1.0  0.48830  0.40630  0.77514  1.0000
  C   C1154     1.0  0.58795  0.64907  0.54857  1.0000
  H   H1978     1.0  0.49908  0.54149  0.70229  1.0000
  H   H1979     1.0  0.51826  0.59450  0.49457  1.0000
  H   H1980     1.0  0.52066  0.62431  0.53367  1.0000
  H   H1981     1.0  0.49840  0.60934  0.83783  1.0000
  C   C1155     1.0  0.51890  0.53672  0.65602  1.0000
  H   H1982     1.0  0.49669  0.48588  0.53976  1.0000
  C   C1156     1.0  0.54366  0.62913  0.49032  1.0000
  H   H1983     1.0  0.51104  0.58746  0.81065  1.0000
  C   C1157     1.0  0.49452  0.38854  0.53152  1.0000
  H   H1984     1.0  0.61533  0.33938  0.66592  1.0000
  H   H1985     1.0  0.57980  0.35374  0.77110  1.0000
  C   C1158     1.0  0.49820  0.57698  0.69453  1.0000
  N   N81       1.0  0.55009  0.37117  0.73648  1.0000
  C   C1159     1.0  0.53835  0.36763  0.71246  1.0000
  C   C1160     1.0  0.55279  0.39012  0.73710  1.0000
  C   C1161     1.0  0.54242  0.36577  0.76407  1.0000
  C   C1162     1.0  0.56670  0.36118  0.73203  1.0000
  C   C1163     1.0  0.53165  0.34937  0.71103  1.0000
  C   C1164     1.0  0.56482  0.39703  0.71427  1.0000
  C   C1165     1.0  0.52466  0.37394  0.77106  1.0000
  C   C1166     1.0  0.58064  0.36358  0.75429  1.0000
  H   H1986     1.0  0.52693  0.37650  0.71260  1.0000
  H   H1987     1.0  0.54482  0.37013  0.69208  1.0000
  H   H1988     1.0  0.55771  0.39416  0.75772  1.0000
  H   H1989     1.0  0.54038  0.39742  0.73483  1.0000
  H   H1990     1.0  0.54145  0.35167  0.76530  1.0000
  H   H1991     1.0  0.55093  0.36899  0.78169  1.0000
  H   H1992     1.0  0.56454  0.34727  0.73182  1.0000
  H   H1993     1.0  0.57227  0.36364  0.71089  1.0000
  C   C1167     1.0  0.64562  0.64310  0.60348  1.0000
  H   H1994     1.0  0.49925  0.49556  0.70602  1.0000
  S   S334      1.0  0.50365  0.40533  0.72303  1.0000
  H   H1995     1.0  0.64129  0.64610  0.58192  1.0000
  C   C1168     1.0  0.59185  0.32623  0.67142  1.0000
  C   C1169     1.0  0.48650  0.58256  0.98250  1.0000
  H   H1996     1.0  0.49289  0.45825  0.56013  1.0000
  H   H1997     1.0  0.49239  0.51668  0.62132  1.0000
  H   H1998     1.0  0.49641  0.60640  0.51598  1.0000
  H   H1999     1.0  0.48829  0.55835  0.85872  1.0000
  H   H2000     1.0  0.48859  0.45517  0.95709  1.0000
  C   C1170     1.0  0.49694  0.48603  0.66471  1.0000
  H   H2001     1.0  0.48935  0.62607  0.53083  1.0000
  C   C1171     1.0  0.48926  0.56509  0.97809  1.0000
  H   H2002     1.0  0.56258  0.64315  0.94056  1.0000
  H   H2003     1.0  0.59175  0.64608  0.61146  1.0000
  N   N82       1.0  0.49615  0.51801  0.67937  1.0000
  C   C1172     1.0  0.61651  0.63957  0.96571  1.0000
  S   S335      1.0  0.48798  0.57051  0.50786  1.0000
  C   C1173     1.0  0.71998  0.31918  0.72083  1.0000
  H   H2004     1.0  0.49182  0.47365  0.67170  1.0000
  H   H2005     1.0  0.57587  0.64181  0.97064  1.0000
  C   C1174     1.0  0.48815  0.60124  0.84610  1.0000
  H   H2006     1.0  0.48710  0.48064  0.50754  1.0000
  Fe  Fe169     1.0  0.66532  0.78349  0.26611  1.0000
  S   S336      1.0  0.66641  0.75501  0.26769  1.0000
  S   S337      1.0  0.68854  0.79888  0.25362  1.0000
  Fe  Fe170     1.0  0.62645  0.78611  0.27720  1.0000
  S   S338      1.0  0.62526  0.75730  0.27817  1.0000
  S   S339      1.0  0.60008  0.79964  0.28619  1.0000
  Fe  Fe171     1.0  0.64872  0.75727  0.30502  1.0000
  S   S340      1.0  0.65104  0.73603  0.33831  1.0000
  Fe  Fe172     1.0  0.64296  0.75676  0.24077  1.0000
  S   S341      1.0  0.64273  0.73549  0.20818  1.0000
  S   S342      1.0  0.64936  0.78602  0.30598  1.0000
  S   S343      1.0  0.64244  0.78541  0.23731  1.0000
  Fe  Fe173     1.0  0.67446  0.68424  0.01630  1.0000
  S   S344      1.0  0.66792  0.71187  0.00673  1.0000
  C   C1175     1.0  0.67361  0.68088  0.40775  1.0000
  Fe  Fe174     1.0  0.63682  0.67536  0.02996  1.0000
  S   S345      1.0  0.62848  0.70261  0.02084  1.0000
  C   C1176     1.0  0.62540  0.68708  0.10889  1.0000
  H   H2007     1.0  0.68999  0.70850  0.33682  1.0000
  Fe  Fe175     1.0  0.65115  0.71063  0.04542  1.0000
  S   S346      1.0  0.64752  0.73352  0.07466  1.0000
  H   H2008     1.0  0.71768  0.81565  0.23090  1.0000
  S   S347      1.0  0.65884  0.68362  0.05662  1.0000
  Fe  Fe176     1.0  0.53904  0.88625  0.31740  1.0000
  S   S348      1.0  0.51592  0.87067  0.32491  1.0000
  S   S349      1.0  0.56544  0.87473  0.30370  1.0000
  Fe  Fe177     1.0  0.51845  0.92027  0.32901  1.0000
  S   S350      1.0  0.49413  0.90624  0.33653  1.0000
  S   S351      1.0  0.51269  0.94913  0.33165  1.0000
  Fe  Fe178     1.0  0.51028  0.88782  0.36188  1.0000
  S   S352      1.0  0.50376  0.87697  0.40522  1.0000
  Fe  Fe179     1.0  0.50178  0.89066  0.29872  1.0000
  H   H2009     1.0  0.61473  0.78554  0.44448  1.0000
  S   S353      1.0  0.53444  0.90238  0.35625  1.0000
  S   S354      1.0  0.52505  0.90567  0.28943  1.0000
  C   C1177     1.0  0.52143  0.96677  0.34898  1.0000
  H   H2010     1.0  0.62978  0.80394  0.39657  1.0000
  H   H2011     1.0  0.57977  0.67657  0.15569  1.0000
  C   C1178     1.0  0.53859  0.96702  0.35703  1.0000
  C   C1179     1.0  0.72230  0.68304  0.39001  1.0000
  H   H2012     1.0  0.54696  0.95598  0.35337  1.0000
  C   C1180     1.0  0.60030  0.67219  0.12448  1.0000
  H   H2013     1.0  0.55002  0.90668  0.43490  1.0000
  H   H2014     1.0  0.50165  0.90087  0.17284  1.0000
  H   H2015     1.0  0.50373  0.89907  0.22491  1.0000
  H   H2016     1.0  0.60019  0.80806  0.37926  1.0000
  H   H2017     1.0  0.60960  0.74364  0.37296  1.0000
  H   H2018     1.0  0.60144  0.79895  0.42327  1.0000
  C   C1181     1.0  0.59091  0.82069  0.29167  1.0000
  C   C1182     1.0  0.57334  0.82263  0.29846  1.0000
  C   C1183     1.0  0.56546  0.83890  0.30312  1.0000
  C   C1184     1.0  0.57494  0.85365  0.30046  1.0000
  C   C1185     1.0  0.59247  0.85172  0.29346  1.0000
  C   C1186     1.0  0.60042  0.83542  0.28932  1.0000
  H   H2019     1.0  0.56569  0.81145  0.29996  1.0000
  H   H2020     1.0  0.55198  0.84006  0.30833  1.0000
  H   H2021     1.0  0.59998  0.86296  0.29115  1.0000
  H   H2022     1.0  0.61389  0.83430  0.28402  1.0000
  C   C1187     1.0  0.64505  0.73584  0.17117  1.0000
  C   C1188     1.0  0.65223  0.72135  0.15780  1.0000
  C   C1189     1.0  0.65346  0.72059  0.12836  1.0000
  C   C1190     1.0  0.64704  0.73414  0.11187  1.0000
  C   C1191     1.0  0.64010  0.74875  0.12524  1.0000
  C   C1192     1.0  0.63914  0.74965  0.15474  1.0000
  H   H2023     1.0  0.65687  0.71062  0.17034  1.0000
  H   H2024     1.0  0.65930  0.70948  0.11841  1.0000
  H   H2025     1.0  0.63522  0.75938  0.11268  1.0000
  H   H2026     1.0  0.63343  0.76082  0.16471  1.0000
  C   C1193     1.0  0.64751  0.73539  0.37509  1.0000
  C   C1194     1.0  0.65016  0.74938  0.39223  1.0000
  C   C1195     1.0  0.64824  0.74785  0.42158  1.0000
  C   C1196     1.0  0.64389  0.73228  0.43413  1.0000
  C   C1197     1.0  0.64105  0.71836  0.41693  1.0000
  C   C1198     1.0  0.64289  0.71991  0.38762  1.0000
  H   H2027     1.0  0.65403  0.76128  0.38295  1.0000
  H   H2028     1.0  0.65043  0.75871  0.43472  1.0000
  H   H2029     1.0  0.63730  0.70644  0.42625  1.0000
  H   H2030     1.0  0.64076  0.70901  0.37454  1.0000
  C   C1199     1.0  0.72157  0.78189  0.15970  1.0000
  H   H2031     1.0  0.52929  0.90461  0.42015  1.0000
  H   H2032     1.0  0.48727  0.94068  0.38242  1.0000
  H   H2033     1.0  0.57920  0.78841  0.39164  1.0000
  H   H2034     1.0  0.66992  0.67013  0.36539  1.0000
  H   H2035     1.0  0.68751  0.73260  0.18321  1.0000
  H   H2036     1.0  0.70004  0.71181  0.38165  1.0000
  C   C1200     1.0  0.70993  0.79133  0.24698  1.0000
  C   C1201     1.0  0.72173  0.80257  0.23529  1.0000
  C   C1202     1.0  0.53373  0.92963  0.43942  1.0000
  H   H2037     1.0  0.61519  0.71543  0.07517  1.0000
  H   H2038     1.0  0.58960  0.70821  0.17888  1.0000
  H   H2039     1.0  0.70769  0.70389  0.42833  1.0000
  H   H2040     1.0  0.68774  0.79287  0.19137  1.0000
  H   H2041     1.0  0.51292  0.86532  0.17685  1.0000
  H   H2042     1.0  0.71436  0.76893  0.19674  1.0000
  H   H2043     1.0  0.50516  0.84434  0.17622  1.0000
  C   C1203     1.0  0.71115  0.76798  0.17421  1.0000
  H   H2044     1.0  0.62602  0.76847  0.35420  1.0000
  H   H2045     1.0  0.59363  0.72339  0.07573  1.0000
  C   C1204     1.0  0.70429  0.67622  0.39548  1.0000
  H   H2046     1.0  0.54732  0.98112  0.28785  1.0000
  H   H2047     1.0  0.58090  0.76667  0.38264  1.0000
  H   H2048     1.0  0.50399  0.92644  0.99519  1.0000
  H   H2049     1.0  0.54682  0.82200  0.24118  1.0000
  H   H2050     1.0  0.63127  0.69949  0.10459  1.0000
  H   H2051     1.0  0.66995  0.70462  0.44746  1.0000
  H   H2052     1.0  0.68107  0.72188  0.43060  1.0000
  H   H2053     1.0  0.67730  0.65480  0.39166  1.0000
  H   H2054     1.0  0.60918  0.77418  0.33131  1.0000
  C   C1205     1.0  0.68258  0.71010  0.44348  1.0000
  S   S355      1.0  0.61310  0.66065  0.04504  1.0000
  H   H2055     1.0  0.73388  0.70355  0.03316  1.0000
  H   H2056     1.0  0.68599  0.76695  0.21475  1.0000
  H   H2057     1.0  0.69154  0.79510  0.15520  1.0000
  H   H2058     1.0  0.50226  0.85649  0.20737  1.0000
  C   C1206     1.0  0.68506  0.78695  0.17076  1.0000
  H   H2059     1.0  0.68389  0.73618  0.21942  1.0000
  H   H2060     1.0  0.59224  0.72326  0.15159  1.0000
  N   N83       1.0  0.51541  0.93640  0.43946  1.0000
  H   H2061     1.0  0.65114  0.67777  0.11931  1.0000
  H   H2062     1.0  0.66228  0.78506  0.14388  1.0000
  H   H2063     1.0  0.52942  0.83408  0.27014  1.0000
  H   H2064     1.0  0.57797  0.69670  0.99401  1.0000
  C   C1207     1.0  0.51491  0.95473  0.44858  1.0000
  H   H2065     1.0  0.58004  0.77584  0.33041  1.0000
  H   H2066     1.0  0.72230  0.69289  0.37323  1.0000
  H   H2067     1.0  0.70651  0.76570  0.26176  1.0000
  H   H2068     1.0  0.63839  0.68236  0.14957  1.0000
  H   H2069     1.0  0.62551  0.68046  0.08840  1.0000
  C   C1208     1.0  0.49166  0.89494  0.18486  1.0000
  H   H2070     1.0  0.71899  0.78312  0.13704  1.0000
  C   C1209     1.0  0.62733  0.80309  0.37377  1.0000
  H   H2071     1.0  0.60156  0.66452  0.10494  1.0000
  C   C1210     1.0  0.60618  0.75036  0.35317  1.0000
  H   H2072     1.0  0.56172  0.78240  0.35070  1.0000
  N   N84       1.0  0.60731  0.68966  0.11977  1.0000
  H   H2073     1.0  0.60634  0.80158  0.34548  1.0000
  C   C1211     1.0  0.59723  0.69882  0.09700  1.0000
  H   H2074     1.0  0.61711  0.66442  0.98425  1.0000
  H   H2075     1.0  0.63662  0.79384  0.36424  1.0000
  H   H2076     1.0  0.51752  0.93958  0.39422  1.0000
  C   C1212     1.0  0.60778  0.69954  0.14676  1.0000
  N   N85       1.0  0.69194  0.76873  0.17035  1.0000
  C   C1213     1.0  0.68403  0.75971  0.19510  1.0000
  C   C1214     1.0  0.68513  0.69852  0.35120  1.0000
  C   C1215     1.0  0.61091  0.77490  0.40300  1.0000
  C   C1216     1.0  0.68712  0.75953  0.14415  1.0000
  C   C1217     1.0  0.69058  0.74119  0.20062  1.0000
  H   H2077     1.0  0.57626  0.67407  0.99584  1.0000
  C   C1218     1.0  0.71539  0.77449  0.25271  1.0000
  H   H2078     1.0  0.49747  0.98122  0.34779  1.0000
  C   C1219     1.0  0.50450  0.92651  0.45950  1.0000
  H   H2079     1.0  0.66995  0.75907  0.19281  1.0000
  H   H2080     1.0  0.59725  0.69095  0.07764  1.0000
  H   H2081     1.0  0.70520  0.76336  0.10939  1.0000
  C   C1220     1.0  0.50848  0.93459  0.41021  1.0000
  C   C1221     1.0  0.58482  0.77954  0.37570  1.0000
  H   H2082     1.0  0.69310  0.74646  0.14387  1.0000
  H   H2083     1.0  0.67321  0.75712  0.14375  1.0000
  C   C1222     1.0  0.57568  0.78408  0.34798  1.0000
  H   H2084     1.0  0.58354  0.70063  0.10254  1.0000
  N   N86       1.0  0.69049  0.68935  0.40305  1.0000
  H   H2085     1.0  0.57922  0.70499  0.14649  1.0000
  H   H2086     1.0  0.61782  0.70927  0.14536  1.0000
  C   C1223     1.0  0.53621  0.91005  0.43795  1.0000
  H   H2087     1.0  0.70106  0.66903  0.37650  1.0000
  C   C1224     1.0  0.73238  0.76899  0.24650  1.0000
  H   H2088     1.0  0.61303  0.74331  0.33615  1.0000
  C   C1225     1.0  0.71972  0.67902  0.99614  1.0000
  H   H2089     1.0  0.72477  0.72429  0.02746  1.0000
  H   H2090     1.0  0.59294  0.77979  0.43792  1.0000
  H   H2091     1.0  0.61170  0.69097  0.16448  1.0000
  C   C1226     1.0  0.48889  0.88558  0.43012  1.0000
  N   N87       1.0  0.53768  0.85626  0.22182  1.0000
  C   C1227     1.0  0.54078  0.87364  0.20933  1.0000
  C   C1228     1.0  0.52867  0.84611  0.20005  1.0000
  C   C1229     1.0  0.55496  0.84790  0.22847  1.0000
  C   C1230     1.0  0.52700  0.85879  0.24807  1.0000
  C   C1231     1.0  0.55198  0.88531  0.22689  1.0000
  C   C1232     1.0  0.51131  0.85371  0.18987  1.0000
  C   C1233     1.0  0.55651  0.82823  0.22814  1.0000
  C   C1234     1.0  0.51938  0.84278  0.26133  1.0000
  H   H2092     1.0  0.54696  0.87243  0.18828  1.0000
  H   H2093     1.0  0.52850  0.88094  0.20587  1.0000
  H   H2094     1.0  0.52623  0.83301  0.20765  1.0000
  H   H2095     1.0  0.53702  0.84439  0.18117  1.0000
  H   H2096     1.0  0.56485  0.85198  0.21310  1.0000
  H   H2097     1.0  0.55956  0.85217  0.24912  1.0000
  H   H2098     1.0  0.53453  0.86473  0.26484  1.0000
  H   H2099     1.0  0.51603  0.86790  0.24400  1.0000
  H   H2100     1.0  0.55295  0.89780  0.21595  1.0000
  H   H2101     1.0  0.54633  0.88795  0.24778  1.0000
  H   H2102     1.0  0.56523  0.88003  0.22955  1.0000
  H   H2103     1.0  0.69778  0.68683  0.44647  1.0000
  S   S356      1.0  0.64158  0.73095  0.47114  1.0000
  H   H2104     1.0  0.65772  0.78332  0.18100  1.0000
  H   H2105     1.0  0.56926  0.82409  0.23645  1.0000
  H   H2106     1.0  0.55590  0.82335  0.20642  1.0000
  H   H2107     1.0  0.60627  0.72465  0.10674  1.0000
  C   C1235     1.0  0.66574  0.78954  0.16500  1.0000
  H   H2108     1.0  0.69117  0.78177  0.11579  1.0000
  H   H2109     1.0  0.57243  0.67766  0.11942  1.0000
  H   H2110     1.0  0.62512  0.77433  0.40309  1.0000
  C   C1236     1.0  0.60450  0.78543  0.42844  1.0000
  C   C1237     1.0  0.58154  0.67142  0.13428  1.0000
  H   H2111     1.0  0.60753  0.76153  0.40777  1.0000
  C   C1238     1.0  0.52438  0.96711  0.42924  1.0000
  C   C1239     1.0  0.60356  0.71656  0.08852  1.0000
  C   C1240     1.0  0.63801  0.67701  0.12819  1.0000
  C   C1241     1.0  0.59115  0.70939  0.15578  1.0000
  C   C1242     1.0  0.49082  0.94329  0.40444  1.0000
  H   H2112     1.0  0.73507  0.75361  0.31047  1.0000
  H   H2113     1.0  0.69182  0.68658  0.34461  1.0000
  H   H2114     1.0  0.70447  0.74033  0.20518  1.0000
  H   H2115     1.0  0.62978  0.81581  0.36444  1.0000
  S   S357      1.0  0.70222  0.67373  0.01830  1.0000
  H   H2116     1.0  0.57889  0.65135  0.06004  1.0000
  H   H2117     1.0  0.66230  0.80339  0.16579  1.0000
  C   C1243     1.0  0.48918  0.87921  0.45780  1.0000
  H   H2118     1.0  0.68740  0.71408  0.46415  1.0000
  H   H2119     1.0  0.67804  0.71254  0.38741  1.0000
  H   H2120     1.0  0.51859  0.96783  0.40823  1.0000
  H   H2121     1.0  0.57738  0.79761  0.34216  1.0000
  H   H2122     1.0  0.50351  0.91309  0.45287  1.0000
  H   H2123     1.0  0.59234  0.74934  0.34898  1.0000
  H   H2124     1.0  0.67114  0.69770  0.34772  1.0000
  H   H2125     1.0  0.59797  0.65363  0.99008  1.0000
  N   N88       1.0  0.60402  0.78053  0.37489  1.0000
  C   C1244     1.0  0.61183  0.76902  0.35269  1.0000
  C   C1245     1.0  0.60863  0.79863  0.36802  1.0000
  H   H2126     1.0  0.67304  0.67507  0.42916  1.0000
  H   H2127     1.0  0.51095  0.84674  0.27910  1.0000
  H   H2128     1.0  0.52069  0.95589  0.46969  1.0000
  H   H2129     1.0  0.50147  0.95970  0.45109  1.0000
  H   H2130     1.0  0.71677  0.75543  0.16744  1.0000
  H   H2131     1.0  0.49802  0.86879  0.46319  1.0000
  C   C1246     1.0  0.66912  0.66642  0.38772  1.0000
  H   H2132     1.0  0.49103  0.93156  0.45926  1.0000
  C   C1247     1.0  0.69552  0.69708  0.43048  1.0000
  H   H2133     1.0  0.70552  0.66637  0.41245  1.0000
  C   C1248     1.0  0.69211  0.76770  0.11590  1.0000
  H   H2134     1.0  0.71933  0.79441  0.17004  1.0000
  H   H2135     1.0  0.51113  0.83597  0.24674  1.0000
  H   H2136     1.0  0.66282  0.69044  0.40693  1.0000
  C   C1249     1.0  0.68876  0.70355  0.38164  1.0000
  C   C1250     1.0  0.54506  0.98183  0.36908  1.0000
  H   H2137     1.0  0.68292  0.76383  0.09966  1.0000
  H   H2138     1.0  0.63521  0.66327  0.12912  1.0000
  H   H2139     1.0  0.60776  0.66499  0.14071  1.0000
  C   C1251     1.0  0.58506  0.68436  0.99075  1.0000
  H   H2140     1.0  0.52330  0.98016  0.43804  1.0000
  H   H2141     1.0  0.53212  0.90376  0.45769  1.0000
  H   H2142     1.0  0.59565  0.68382  0.00610  1.0000
  H   H2143     1.0  0.72813  0.68795  0.40927  1.0000
  H   H2144     1.0  0.53822  0.96368  0.42734  1.0000
  H   H2145     1.0  0.57807  0.65782  0.13551  1.0000
  H   H2146     1.0  0.49097  0.95733  0.40637  1.0000
  H   H2147     1.0  0.54092  0.93488  0.42123  1.0000
  H   H2148     1.0  0.54077  0.93396  0.45807  1.0000
  H   H2149     1.0  0.50728  0.92090  0.40492  1.0000
  C   C1252     1.0  0.49292  0.89388  0.21435  1.0000
  C   C1253     1.0  0.72503  0.69280  0.47978  1.0000
  H   H2150     1.0  0.65571  0.66284  0.39188  1.0000
  H   H2151     1.0  0.73094  0.67234  0.38294  1.0000
  S   S358      1.0  0.65299  0.67387  0.99040  1.0000
  C   C1254     1.0  0.51080  0.98133  0.35373  1.0000
  Fe  Fe180     1.0  0.64573  0.70168  0.98300  1.0000
  H   H2152     1.0  0.55844  0.98202  0.37471  1.0000
  H   H2153     1.0  0.73544  0.77860  0.16212  1.0000
  Fe  Fe181     1.0  0.66709  0.78961  0.75629  1.0000
  S   S359      1.0  0.66666  0.76107  0.75675  1.0000
  S   S360      1.0  0.68984  0.80377  0.73825  1.0000
  Fe  Fe182     1.0  0.63006  0.79397  0.78125  1.0000
  S   S361      1.0  0.62764  0.76533  0.78272  1.0000
  S   S362      1.0  0.60645  0.80796  0.80128  1.0000
  Fe  Fe183     1.0  0.65441  0.76408  0.79969  1.0000
  S   S363      1.0  0.66567  0.75065  0.83853  1.0000
  Fe  Fe184     1.0  0.64001  0.76489  0.73973  1.0000
  S   S364      1.0  0.62831  0.75264  0.70129  1.0000
  S   S365      1.0  0.65650  0.79262  0.80007  1.0000
  S   S366      1.0  0.64081  0.79353  0.73728  1.0000
  Fe  Fe185     1.0  0.67628  0.68182  0.51279  1.0000
  S   S367      1.0  0.67166  0.70914  0.52453  1.0000
  C   C1255     1.0  0.57123  0.65057  0.95376  1.0000
  Fe  Fe186     1.0  0.63795  0.67295  0.52466  1.0000
  S   S368      1.0  0.63110  0.70022  0.53667  1.0000
  Fe  Fe187     1.0  0.64748  0.70762  0.49920  1.0000
  S   S369      1.0  0.63287  0.71103  0.94240  1.0000
  Fe  Fe188     1.0  0.65591  0.69964  0.56074  1.0000
  S   S370      1.0  0.66268  0.70573  0.60612  1.0000
  H   H2154     1.0  0.69296  0.81882  0.64657  1.0000
  S   S371      1.0  0.66198  0.67217  0.55047  1.0000
  Fe  Fe189     1.0  0.53808  0.89014  0.81880  1.0000
  S   S372      1.0  0.51569  0.87351  0.82626  1.0000
  S   S373      1.0  0.56414  0.88001  0.80129  1.0000
  Fe  Fe190     1.0  0.51632  0.92308  0.83223  1.0000
  H   H2155     1.0  0.51291  0.96666  0.91816  1.0000
  S   S374      1.0  0.50915  0.95138  0.83891  1.0000
  Fe  Fe191     1.0  0.50969  0.88992  0.86398  1.0000
  S   S375      1.0  0.50353  0.87859  0.90712  1.0000
  Fe  Fe192     1.0  0.50056  0.89322  0.80103  1.0000
  H   H2156     1.0  0.61345  0.76245  0.84117  1.0000
  S   S376      1.0  0.53325  0.90544  0.85844  1.0000
  S   S377      1.0  0.52302  0.90938  0.79191  1.0000
  C   C1256     1.0  0.52001  0.96962  0.84988  1.0000
  C   C1257     1.0  0.62489  0.77359  0.90756  1.0000
  H   H2157     1.0  0.49174  0.95517  0.89651  1.0000
  C   C1258     1.0  0.53784  0.97046  0.84894  1.0000
  H   H2158     1.0  0.59222  0.78304  0.88505  1.0000
  H   H2159     1.0  0.54552  0.95967  0.84146  1.0000
  H   H2160     1.0  0.59939  0.68694  0.57642  1.0000
  H   H2161     1.0  0.54214  0.92915  0.91471  1.0000
  H   H2162     1.0  0.69378  0.74214  0.67168  1.0000
  H   H2163     1.0  0.54648  0.90494  0.94558  1.0000
  H   H2164     1.0  0.62593  0.80617  0.91587  1.0000
  H   H2165     1.0  0.63028  0.79620  0.84652  1.0000
  N   N89       1.0  0.62562  0.66625  0.62639  1.0000
  C   C1259     1.0  0.59477  0.82806  0.80032  1.0000
  C   C1260     1.0  0.57926  0.82985  0.81552  1.0000
  C   C1261     1.0  0.56968  0.84551  0.81602  1.0000
  C   C1262     1.0  0.57554  0.85976  0.80145  1.0000
  C   C1263     1.0  0.59099  0.85795  0.78613  1.0000
  C   C1264     1.0  0.60050  0.84225  0.78546  1.0000
  H   H2166     1.0  0.57460  0.81903  0.82708  1.0000
  H   H2167     1.0  0.55785  0.84659  0.82787  1.0000
  H   H2168     1.0  0.59572  0.86882  0.77478  1.0000
  H   H2169     1.0  0.61238  0.84121  0.77373  1.0000
  C   C1265     1.0  0.63834  0.73988  0.67489  1.0000
  C   C1266     1.0  0.63064  0.73906  0.64840  1.0000
  C   C1267     1.0  0.63803  0.72893  0.62690  1.0000
  C   C1268     1.0  0.65311  0.71931  0.63184  1.0000
  C   C1269     1.0  0.66070  0.71995  0.65844  1.0000
  C   C1270     1.0  0.65344  0.73025  0.67981  1.0000
  H   H2170     1.0  0.61888  0.74635  0.64447  1.0000
  H   H2171     1.0  0.63196  0.72846  0.60663  1.0000
  H   H2172     1.0  0.67227  0.71239  0.66258  1.0000
  H   H2173     1.0  0.65934  0.73052  0.70023  1.0000
  C   C1271     1.0  0.65620  0.73954  0.86698  1.0000
  C   C1272     1.0  0.63947  0.73382  0.86605  1.0000
  C   C1273     1.0  0.63255  0.72512  0.88931  1.0000
  C   C1274     1.0  0.64230  0.72188  0.91360  1.0000
  C   C1275     1.0  0.65906  0.72747  0.91441  1.0000
  C   C1276     1.0  0.66594  0.73623  0.89123  1.0000
  H   H2174     1.0  0.63197  0.73596  0.84734  1.0000
  H   H2175     1.0  0.61958  0.72082  0.88838  1.0000
  H   H2176     1.0  0.66674  0.72506  0.93289  1.0000
  H   H2177     1.0  0.67895  0.74047  0.89208  1.0000
  C   C1277     1.0  0.53546  0.92995  0.93545  1.0000
  H   H2178     1.0  0.73253  0.76394  0.81316  1.0000
  H   H2179     1.0  0.55650  0.65308  0.49412  1.0000
  C   C1278     1.0  0.61317  0.65360  0.63781  1.0000
  C   C1279     1.0  0.65143  0.79297  0.87596  1.0000
  H   H2180     1.0  0.60230  0.69353  0.96029  1.0000
  C   C1280     1.0  0.71552  0.77838  0.74250  1.0000
  C   C1281     1.0  0.71124  0.79533  0.73544  1.0000
  C   C1282     1.0  0.50984  0.92656  0.49059  1.0000
  C   C1283     1.0  0.49997  0.92952  0.97339  1.0000
  H   H2181     1.0  0.70580  0.77026  0.75088  1.0000
  H   H2182     1.0  0.54457  0.93568  0.95009  1.0000
  N   N90       1.0  0.68116  0.77626  0.65504  1.0000
  C   C1284     1.0  0.69589  0.77026  0.67341  1.0000
  C   C1285     1.0  0.68649  0.79238  0.64044  1.0000
  C   C1286     1.0  0.67816  0.76248  0.63390  1.0000
  C   C1287     1.0  0.66568  0.77921  0.67363  1.0000
  C   C1288     1.0  0.69439  0.75250  0.68724  1.0000
  C   C1289     1.0  0.60827  0.68235  0.90409  1.0000
  C   C1290     1.0  0.66904  0.76774  0.60644  1.0000
  C   C1291     1.0  0.64932  0.78677  0.65976  1.0000
  H   H2183     1.0  0.70818  0.77003  0.66140  1.0000
  H   H2184     1.0  0.69759  0.77923  0.69089  1.0000
  H   H2185     1.0  0.67676  0.79722  0.62532  1.0000
  H   H2186     1.0  0.69820  0.78974  0.62750  1.0000
  H   H2187     1.0  0.69054  0.75625  0.62716  1.0000
  H   H2188     1.0  0.67063  0.75220  0.64352  1.0000
  H   H2189     1.0  0.66182  0.76704  0.68342  1.0000
  H   H2190     1.0  0.66862  0.78711  0.69213  1.0000
  H   H2191     1.0  0.70598  0.74975  0.70009  1.0000
  H   H2192     1.0  0.68329  0.75200  0.70172  1.0000
  H   H2193     1.0  0.62735  0.82195  0.87000  1.0000
  C   C1292     1.0  0.69020  0.80748  0.65971  1.0000
  C   C1293     1.0  0.60307  0.68407  0.59845  1.0000
  C   C1294     1.0  0.72240  0.67600  0.48850  1.0000
  H   H2194     1.0  0.66635  0.75601  0.59457  1.0000
  H   H2195     1.0  0.67734  0.77552  0.59280  1.0000
  H   H2196     1.0  0.65661  0.77452  0.60987  1.0000
  H   H2197     1.0  0.64144  0.77651  0.65139  1.0000
  H   H2198     1.0  0.65170  0.79631  0.64321  1.0000
  H   H2199     1.0  0.64153  0.79383  0.67569  1.0000
  N   N91       1.0  0.53695  0.86202  0.72489  1.0000
  C   C1295     1.0  0.53909  0.87944  0.71177  1.0000
  C   C1296     1.0  0.52813  0.85146  0.70344  1.0000
  C   C1297     1.0  0.55460  0.85439  0.73048  1.0000
  C   C1298     1.0  0.52684  0.86412  0.75181  1.0000
  C   C1299     1.0  0.54979  0.89199  0.72836  1.0000
  C   C1300     1.0  0.50991  0.85788  0.69532  1.0000
  C   C1301     1.0  0.55568  0.83631  0.74328  1.0000
  C   C1302     1.0  0.51799  0.84821  0.76372  1.0000
  H   H2200     1.0  0.54508  0.87833  0.69056  1.0000
  H   H2201     1.0  0.52643  0.88604  0.70847  1.0000
  H   H2202     1.0  0.52717  0.83800  0.70997  1.0000
  H   H2203     1.0  0.53588  0.85074  0.68375  1.0000
  H   H2204     1.0  0.56240  0.85418  0.71082  1.0000
  H   H2205     1.0  0.56156  0.86233  0.74547  1.0000
  H   H2206     1.0  0.53515  0.86888  0.76865  1.0000
  H   H2207     1.0  0.51660  0.87426  0.74935  1.0000
  H   H2208     1.0  0.54563  0.89302  0.75048  1.0000
  H   H2209     1.0  0.56367  0.88849  0.72744  1.0000
  H   H2210     1.0  0.54821  0.90492  0.71885  1.0000
  H   H2211     1.0  0.52539  0.90390  0.93281  1.0000
  H   H2212     1.0  0.51399  0.93206  0.89128  1.0000
  H   H2213     1.0  0.58869  0.66276  0.54965  1.0000
  H   H2214     1.0  0.56941  0.83231  0.74539  1.0000
  H   H2215     1.0  0.54978  0.82666  0.73003  1.0000
  H   H2216     1.0  0.55030  0.83607  0.76482  1.0000
  H   H2217     1.0  0.52188  0.84605  0.78583  1.0000
  H   H2218     1.0  0.52088  0.83612  0.75287  1.0000
  C   C1303     1.0  0.49168  0.89869  0.71830  1.0000
  C   C1304     1.0  0.60372  0.76395  0.85801  1.0000
  N   N92       1.0  0.59943  0.66685  0.94988  1.0000
  H   H2219     1.0  0.57961  0.66513  0.91867  1.0000
  S   S378      1.0  0.49265  0.90797  0.83957  1.0000
  H   H2220     1.0  0.53296  0.97029  0.95959  1.0000
  H   H2221     1.0  0.59262  0.67688  0.60824  1.0000
  H   H2222     1.0  0.70168  0.80490  0.67281  1.0000
  N   N93       1.0  0.61965  0.78669  0.88571  1.0000
  H   H2223     1.0  0.64811  0.65328  0.64404  1.0000
  C   C1305     1.0  0.50753  0.93316  0.91209  1.0000
  H   H2224     1.0  0.63626  0.77769  0.91928  1.0000
  H   H2225     1.0  0.50308  0.93714  0.50194  1.0000
  H   H2226     1.0  0.60414  0.69656  0.60889  1.0000
  H   H2227     1.0  0.52994  0.95611  0.89961  1.0000
  H   H2228     1.0  0.50246  0.95561  0.96048  1.0000
  C   C1306     1.0  0.61487  0.81932  0.88009  1.0000
  H   H2229     1.0  0.60388  0.80352  0.91178  1.0000
  H   H2230     1.0  0.60065  0.79096  0.85338  1.0000
  C   C1307     1.0  0.53720  0.96806  0.93769  1.0000
  C   C1308     1.0  0.61615  0.80362  0.89979  1.0000
  H   H2231     1.0  0.65984  0.78149  0.87996  1.0000
  H   H2232     1.0  0.59114  0.76205  0.84808  1.0000
  H   H2233     1.0  0.70482  0.69364  0.96612  1.0000
  H   H2234     1.0  0.50034  0.90787  0.67797  1.0000
  C   C1309     1.0  0.73236  0.77182  0.73827  1.0000
  C   C1310     1.0  0.59224  0.68380  0.96048  1.0000
  H   H2235     1.0  0.58203  0.68904  0.94635  1.0000
  C   C1311     1.0  0.48898  0.88064  0.95981  1.0000
  H   H2236     1.0  0.61656  0.75972  0.94446  1.0000
  H   H2237     1.0  0.50239  0.90350  0.72961  1.0000
  H   H2238     1.0  0.59966  0.76404  0.92029  1.0000
  C   C1312     1.0  0.63394  0.78772  0.86449  1.0000
  H   H2239     1.0  0.50154  0.86025  0.71382  1.0000
  H   H2240     1.0  0.53460  0.65603  0.48413  1.0000
  H   H2241     1.0  0.62825  0.66540  0.68573  1.0000
  H   H2242     1.0  0.65785  0.80122  0.86037  1.0000
  C   C1313     1.0  0.64340  0.65828  0.62355  1.0000
  N   N94       1.0  0.51928  0.94093  0.93300  1.0000
  C   C1314     1.0  0.60749  0.65667  0.97360  1.0000
  H   H2243     1.0  0.59902  0.67649  0.88995  1.0000
  C   C1315     1.0  0.63412  0.67660  0.67577  1.0000
  H   H2244     1.0  0.73176  0.70943  0.58540  1.0000
  H   H2245     1.0  0.61356  0.68671  0.65081  1.0000
  H   H2246     1.0  0.60559  0.75369  0.87391  1.0000
  C   C1316     1.0  0.62030  0.67387  0.59854  1.0000
  H   H2247     1.0  0.62924  0.76143  0.89766  1.0000
  H   H2248     1.0  0.67911  0.81108  0.67329  1.0000
  C   C1317     1.0  0.48858  0.88698  0.93212  1.0000
  H   H2249     1.0  0.72092  0.81876  0.71883  1.0000
  C   C1318     1.0  0.61114  0.76950  0.92970  1.0000
  H   H2250     1.0  0.63647  0.77515  0.85446  1.0000
  C   C1319     1.0  0.60356  0.78190  0.87087  1.0000
  C   C1320     1.0  0.49042  0.90123  0.68903  1.0000
  H   H2251     1.0  0.50387  0.85050  0.76409  1.0000
  H   H2252     1.0  0.65052  0.80044  0.89544  1.0000
  H   H2253     1.0  0.61107  0.83077  0.89249  1.0000
  H   H2254     1.0  0.64824  0.67467  0.67458  1.0000
  C   C1321     1.0  0.52428  0.95791  0.92085  1.0000
  H   H2255     1.0  0.60735  0.78087  0.94224  1.0000
  H   H2256     1.0  0.60504  0.81801  0.86371  1.0000
  H   H2257     1.0  0.60313  0.69496  0.91112  1.0000
  H   H2258     1.0  0.61991  0.68485  0.89139  1.0000
  H   H2259     1.0  0.52377  0.92758  0.49357  1.0000
  C   C1322     1.0  0.53366  0.91152  0.94616  1.0000
  H   H2260     1.0  0.50456  0.91990  0.91750  1.0000
  C   C1323     1.0  0.62651  0.68086  0.64670  1.0000
  S   S379      1.0  0.70266  0.66929  0.50314  1.0000
  H   H2261     1.0  0.63023  0.68263  0.59077  1.0000
  H   H2262     1.0  0.56332  0.66120  0.96263  1.0000
  C   C1324     1.0  0.71751  0.68894  0.97186  1.0000
  H   H2263     1.0  0.55022  0.96197  0.93717  1.0000
  H   H2264     1.0  0.61955  0.66419  0.58200  1.0000
  C   C1325     1.0  0.49021  0.94278  0.90738  1.0000
  C   C1326     1.0  0.61338  0.67038  0.92876  1.0000
  C   C1327     1.0  0.51097  0.94391  0.96125  1.0000
  H   H2265     1.0  0.50380  0.84806  0.68252  1.0000
  C   C1328     1.0  0.72409  0.80564  0.72443  1.0000
  H   H2266     1.0  0.50068  0.91745  0.96179  1.0000
  S   S380      1.0  0.65282  0.68049  0.48559  1.0000
  H   H2267     1.0  0.63414  0.69125  0.63759  1.0000
  H   H2268     1.0  0.63166  0.68768  0.68978  1.0000
  H   H2269     1.0  0.49822  0.87060  0.96536  1.0000
  H   H2270     1.0  0.51018  0.86957  0.68212  1.0000
  H   H2271     1.0  0.60221  0.66047  0.64833  1.0000
  H   H2272     1.0  0.62454  0.67595  0.93931  1.0000
  H   H2273     1.0  0.72972  0.69987  0.93553  1.0000
  H   H2274     1.0  0.65260  0.66810  0.61673  1.0000
  H   H2275     1.0  0.61843  0.65841  0.91894  1.0000
  H   H2276     1.0  0.51683  0.97479  0.78849  1.0000
  H   H2277     1.0  0.71520  0.70255  0.48364  1.0000
  H   H2278     1.0  0.50643  0.91427  0.50060  1.0000
  H   H2279     1.0  0.52085  0.94656  0.97715  1.0000
  C   C1329     1.0  0.73169  0.69251  0.95459  1.0000
  C   C1330     1.0  0.58586  0.65712  0.93527  1.0000
  H   H2280     1.0  0.52933  0.91110  0.96830  1.0000
  H   H2281     1.0  0.54027  0.65030  0.51991  1.0000
  H   H2282     1.0  0.53839  0.98081  0.92763  1.0000
  H   H2283     1.0  0.73370  0.65059  0.49058  1.0000
  H   H2284     1.0  0.48630  0.93386  0.97484  1.0000
  H   H2285     1.0  0.73543  0.75864  0.74352  1.0000
  C   C1331     1.0  0.73553  0.66362  0.48391  1.0000
  Fe  Fe193     1.0  0.82105  0.17945  0.04009  1.0000
  S   S381      1.0  0.83230  0.20490  0.02982  1.0000
  S   S382      1.0  0.84152  0.15973  0.05689  1.0000
  Fe  Fe194     1.0  0.78419  0.19438  0.02835  1.0000
  S   S383      1.0  0.79403  0.22024  0.01771  1.0000
  S   S384      1.0  0.75478  0.19601  0.02917  1.0000
  C   C1332     1.0  0.96159  0.06986  0.45993  1.0000
  S   S385      1.0  0.81900  0.20492  0.44458  1.0000
  Fe  Fe195     1.0  0.81083  0.21666  0.05574  1.0000
  S   S386      1.0  0.81342  0.23953  0.08501  1.0000
  H   H2286     1.0  0.81412  0.26733  0.12351  1.0000
  S   S387      1.0  0.80014  0.19146  0.06774  1.0000
  Fe  Fe196     1.0  0.78700  0.29204  0.26574  1.0000
  S   S388      1.0  0.78985  0.26442  0.27777  1.0000
  S   S389      1.0  0.76201  0.30529  0.25137  1.0000
  Fe  Fe197     1.0  0.82607  0.29817  0.27274  1.0000
  S   S390      1.0  0.83121  0.27054  0.28480  1.0000
  H   H2287     1.0  0.84954  0.25171  0.24074  1.0000
  Fe  Fe198     1.0  0.81319  0.26424  0.24960  1.0000
  S   S391      1.0  0.81770  0.24214  0.21894  1.0000
  Fe  Fe199     1.0  0.80738  0.27303  0.31190  1.0000
  S   S392      1.0  0.80364  0.26689  0.35882  1.0000
  S   S393      1.0  0.80944  0.29144  0.23595  1.0000
  S   S394      1.0  0.80309  0.30110  0.30135  1.0000
  Fe  Fe200     1.0  0.91682  0.08089  0.05960  1.0000
  S   S395      1.0  0.94167  0.09354  0.06881  1.0000
  S   S396      1.0  0.89179  0.09316  0.04127  1.0000
  Fe  Fe201     1.0  0.93340  0.04468  0.07087  1.0000
  S   S397      1.0  0.95889  0.05535  0.08072  1.0000
  S   S398      1.0  0.93314  0.01562  0.06694  1.0000
  Fe  Fe202     1.0  0.94400  0.07500  0.10552  1.0000
  S   S399      1.0  0.94922  0.08225  0.15111  1.0000
  Fe  Fe203     1.0  0.95457  0.07255  0.04302  1.0000
  H   H2288     1.0  0.77400  0.30305  0.16656  1.0000
  S   S400      1.0  0.91838  0.06341  0.09764  1.0000
  S   S401      1.0  0.92986  0.06088  0.03193  1.0000
  N   N95       1.0  0.86749  0.27165  0.20105  1.0000
  H   H2289     1.0  0.95246  0.08721  0.21030  1.0000
  C   C1333     1.0  0.96373  0.07991  0.20353  1.0000
  H   H2290     1.0  0.88719  0.25707  0.22375  1.0000
  H   H2291     1.0  0.84449  0.15593  0.99108  1.0000
  C   C1334     1.0  0.96563  0.07569  0.17502  1.0000
  H   H2292     1.0  0.96129  0.99160  0.17020  1.0000
  H   H2293     1.0  0.85889  0.25371  0.13548  1.0000
  H   H2294     1.0  0.90013  0.98779  0.14229  1.0000
  H   H2295     1.0  0.89286  0.29176  0.23142  1.0000
  H   H2296     1.0  0.78095  0.21220  0.40911  1.0000
  C   C1335     1.0  0.92783  0.99869  0.09008  1.0000
  C   C1336     1.0  0.91534  0.00062  0.11108  1.0000
  H   H2297     1.0  0.86710  0.01642  0.00734  1.0000
  H   H2298     1.0  0.90919  0.01297  0.11462  1.0000
  C   C1337     1.0  0.97380  0.01779  0.21094  1.0000
  H   H2299     1.0  0.86920  0.20536  0.99031  1.0000
  H   H2300     1.0  0.75061  0.27066  0.26139  1.0000
  C   C1338     1.0  0.85503  0.14082  0.05264  1.0000
  C   C1339     1.0  0.86915  0.13803  0.07056  1.0000
  C   C1340     1.0  0.88058  0.12371  0.06741  1.0000
  C   C1341     1.0  0.87803  0.11178  0.04631  1.0000
  C   C1342     1.0  0.86389  0.11455  0.02843  1.0000
  C   C1343     1.0  0.85252  0.12889  0.03151  1.0000
  H   H2301     1.0  0.87134  0.14707  0.08701  1.0000
  H   H2302     1.0  0.89129  0.12186  0.08145  1.0000
  H   H2303     1.0  0.86163  0.10544  0.01212  1.0000
  H   H2304     1.0  0.84164  0.13052  0.01779  1.0000
  H   H2305     1.0  0.75507  0.29560  0.18280  1.0000
  C   C1344     1.0  0.86501  0.25839  0.17886  1.0000
  H   H2306     1.0  0.74762  0.19328  0.45791  1.0000
  H   H2307     1.0  0.82431  0.13714  0.47120  1.0000
  H   H2308     1.0  0.83128  0.29494  0.18357  1.0000
  C   C1345     1.0  0.81498  0.22248  0.42126  1.0000
  C   C1346     1.0  0.80822  0.23821  0.43043  1.0000
  C   C1347     1.0  0.80502  0.25162  0.41103  1.0000
  C   C1348     1.0  0.80851  0.24955  0.38221  1.0000
  C   C1349     1.0  0.81525  0.23379  0.37305  1.0000
  C   C1350     1.0  0.81845  0.22037  0.39246  1.0000
  H   H2309     1.0  0.80558  0.24012  0.45248  1.0000
  H   H2310     1.0  0.79984  0.26375  0.41839  1.0000
  H   H2311     1.0  0.81795  0.23194  0.35100  1.0000
  H   H2312     1.0  0.82365  0.20826  0.38506  1.0000
  C   C1351     1.0  0.81487  0.23987  0.12224  1.0000
  C   C1352     1.0  0.81580  0.22497  0.13853  1.0000
  C   C1353     1.0  0.81676  0.22593  0.16802  1.0000
  C   C1354     1.0  0.81652  0.24175  0.18167  1.0000
  C   C1355     1.0  0.81551  0.25666  0.16541  1.0000
  C   C1356     1.0  0.81485  0.25571  0.13589  1.0000
  H   H2313     1.0  0.81587  0.21268  0.12841  1.0000
  H   H2314     1.0  0.81758  0.21428  0.18033  1.0000
  H   H2315     1.0  0.81520  0.26892  0.17552  1.0000
  S   S402      1.0  0.97888  0.06945  0.37891  1.0000
  H   H2316     1.0  0.75818  0.23249  0.20961  1.0000
  N   N96       1.0  0.88189  0.03211  0.03457  1.0000
  C   C1357     1.0  0.88490  0.02031  0.05939  1.0000
  C   C1358     1.0  0.88179  0.05011  0.04543  1.0000
  C   C1359     1.0  0.89680  0.02935  0.01465  1.0000
  H   H2317     1.0  0.75308  0.23492  0.38033  1.0000
  C   C1360     1.0  0.88755  0.00117  0.05272  1.0000
  C   C1361     1.0  0.86864  0.05430  0.06885  1.0000
  H   H2318     1.0  0.89726  0.05483  0.99401  1.0000
  H   H2319     1.0  0.97314  0.02254  0.23282  1.0000
  H   H2320     1.0  0.89628  0.02418  0.07139  1.0000
  H   H2321     1.0  0.87396  0.02115  0.07442  1.0000
  H   H2322     1.0  0.87952  0.05972  0.02867  1.0000
  H   H2323     1.0  0.89462  0.05302  0.05367  1.0000
  H   H2324     1.0  0.90910  0.03060  0.02595  1.0000
  H   H2325     1.0  0.86155  0.18127  0.02051  1.0000
  C   C1362     1.0  0.88572  0.29729  0.21331  1.0000
  H   H2326     1.0  0.85576  0.02416  0.03732  1.0000
  H   H2327     1.0  0.95944  0.03022  0.42517  1.0000
  H   H2328     1.0  0.86696  0.12490  0.44870  1.0000
  H   H2329     1.0  0.84627  0.18408  0.46621  1.0000
  H   H2330     1.0  0.86764  0.06835  0.07161  1.0000
  H   H2331     1.0  0.85571  0.04993  0.06389  1.0000
  H   H2332     1.0  0.87290  0.04879  0.08925  1.0000
  C   C1363     1.0  0.89743  0.04111  0.98869  1.0000
  C   C1364     1.0  0.77011  0.27622  0.15848  1.0000
  H   H2333     1.0  0.89418  0.30663  0.20312  1.0000
  H   H2334     1.0  0.87423  0.30452  0.22104  1.0000
  C   C1365     1.0  0.75513  0.22432  0.48156  1.0000
  C   C1366     1.0  0.87830  0.13244  0.45324  1.0000
  H   H2335     1.0  0.97292  0.00374  0.21169  1.0000
  C   C1367     1.0  0.98033  0.06635  0.16657  1.0000
  H   H2336     1.0  0.76379  0.28008  0.13848  1.0000
  N   N97       1.0  0.95580  0.01868  0.16568  1.0000
  H   H2337     1.0  0.77035  0.24247  0.40140  1.0000
  H   H2338     1.0  0.88064  0.17097  0.42901  1.0000
  H   H2339     1.0  0.77907  0.19515  0.46983  1.0000
  C   C1368     1.0  0.87379  0.14909  0.46904  1.0000
  C   C1369     1.0  0.94998  0.00055  0.16787  1.0000
  C   C1370     1.0  0.77065  0.25668  0.19863  1.0000
  C   C1371     1.0  0.76606  0.23182  0.38845  1.0000
  H   H2340     1.0  0.84017  0.27178  0.20876  1.0000
  C   C1372     1.0  0.76347  0.22513  0.45216  1.0000
  H   H2341     1.0  0.77483  0.23115  0.37001  1.0000
  H   H2342     1.0  0.84754  0.27168  0.14918  1.0000
  H   H2343     1.0  0.84943  0.03608  0.98561  1.0000
  H   H2344     1.0  0.86830  0.15561  0.41254  1.0000
  S   S403      1.0  0.80399  0.18013  0.00177  1.0000
  H   H2345     1.0  0.76843  0.25829  0.10885  1.0000
  C   C1373     1.0  0.76717  0.21458  0.40429  1.0000
  C   C1374     1.0  0.86018  0.26490  0.14933  1.0000
  H   H2346     1.0  0.87012  0.27281  0.13964  1.0000
  C   C1375     1.0  0.77086  0.23820  0.20992  1.0000
  N   N98       1.0  0.75643  0.21339  0.43059  1.0000
  H   H2347     1.0  0.84508  0.14299  0.43300  1.0000
  N   N99       1.0  0.76288  0.25998  0.17010  1.0000
  H   H2348     1.0  0.85458  0.24977  0.18503  1.0000
  C   C1376     1.0  0.76194  0.24784  0.11997  1.0000
  H   H2349     1.0  0.87681  0.25011  0.17658  1.0000
  H   H2350     1.0  0.76543  0.23599  0.10833  1.0000
  H   H2351     1.0  0.92866  0.98664  0.18506  1.0000
  H   H2352     1.0  0.94363  0.01442  0.43317  1.0000
  H   H2353     1.0  0.96232  0.04010  0.19123  1.0000
  H   H2354     1.0  0.76401  0.20445  0.38919  1.0000
  C   C1377     1.0  0.74258  0.29510  0.24443  1.0000
  H   H2355     1.0  0.86790  0.24351  0.25894  1.0000
  H   H2356     1.0  0.88866  0.16946  0.04471  1.0000
  C   C1378     1.0  0.88867  0.17686  0.02472  1.0000
  H   H2357     1.0  0.98242  0.01059  0.15940  1.0000
  C   C1379     1.0  0.85074  0.28088  0.20804  1.0000
  H   H2358     1.0  0.88535  0.13498  0.43347  1.0000
  H   H2359     1.0  0.88718  0.99369  0.07259  1.0000
  H   H2360     1.0  0.78430  0.26033  0.19876  1.0000
  H   H2361     1.0  0.94499  0.98975  0.20969  1.0000
  H   H2362     1.0  0.87478  0.27146  0.24494  1.0000
  C   C1380     1.0  0.95921  0.02645  0.19382  1.0000
  H   H2363     1.0  0.86220  0.18309  0.39122  1.0000
  H   H2364     1.0  0.84587  0.04862  0.01580  1.0000
  H   H2365     1.0  0.78028  0.22998  0.19826  1.0000
  C   C1381     1.0  0.86314  0.24772  0.23804  1.0000
  C   C1382     1.0  0.91020  0.98631  0.12673  1.0000
  C   C1383     1.0  0.77471  0.18826  0.45124  1.0000
  C   C1384     1.0  0.86733  0.16652  0.42727  1.0000
  H   H2366     1.0  0.88692  0.12427  0.46656  1.0000
  H   H2367     1.0  0.74034  0.27226  0.18857  1.0000
  H   H2368     1.0  0.91769  0.04216  0.15107  1.0000
  Fe  Fe204     1.0  0.81435  0.20614  0.99301  1.0000
  H   H2369     1.0  0.91805  0.02111  0.16490  1.0000
  H   H2370     1.0  0.86419  0.23645  0.22419  1.0000
  H   H2371     1.0  0.95093  0.06965  0.41830  1.0000
  C   C1385     1.0  0.96258  0.06973  0.43037  1.0000
  C   C1386     1.0  0.73889  0.18970  0.00525  1.0000
  C   C1387     1.0  0.87395  0.26247  0.22711  1.0000
  C   C1388     1.0  0.84502  0.29601  0.18874  1.0000
  H   H2372     1.0  0.77360  0.17473  0.45776  1.0000
  H   H2373     1.0  0.98213  0.06326  0.14468  1.0000
  H   H2374     1.0  0.85115  0.28614  0.22962  1.0000
  H   H2375     1.0  0.85185  0.29706  0.16856  1.0000
  C   C1389     1.0  0.75713  0.19516  0.44083  1.0000
  H   H2376     1.0  0.94372  0.99681  0.14810  1.0000
  H   H2377     1.0  0.87742  0.99641  0.03906  1.0000
  H   H2378     1.0  0.78466  0.18853  0.43460  1.0000
  H   H2379     1.0  0.96631  0.99908  0.11767  1.0000
  H   H2380     1.0  0.94828  0.04278  0.14614  1.0000
  H   H2381     1.0  0.85645  0.19292  0.42360  1.0000
  H   H2382     1.0  0.78233  0.24423  0.14967  1.0000
  H   H2383     1.0  0.88965  0.19049  0.03033  1.0000
  H   H2384     1.0  0.77752  0.22281  0.45468  1.0000
  H   H2385     1.0  0.92993  0.00695  0.20080  1.0000
  C   C1390     1.0  0.97150  0.01202  0.11872  1.0000
  C   C1391     1.0  0.76815  0.24577  0.15043  1.0000
  H   H2386     1.0  0.78395  0.27426  0.15328  1.0000
  C   C1392     1.0  0.94296  0.02996  0.15012  1.0000
  H   H2387     1.0  0.97740  0.03177  0.14792  1.0000
  H   H2388     1.0  0.84315  0.17695  0.40888  1.0000
  C   C1393     1.0  0.84400  0.15195  0.45093  1.0000
  C   C1394     1.0  0.76855  0.29197  0.17765  1.0000
  H   H2389     1.0  0.75340  0.18637  0.42397  1.0000
  H   H2390     1.0  0.89411  0.14766  0.99045  1.0000
  H   H2391     1.0  0.76421  0.26486  0.21470  1.0000
  H   H2392     1.0  0.94776  0.02679  0.20757  1.0000
  C   C1395     1.0  0.74370  0.26268  0.17223  1.0000
  H   H2393     1.0  0.86880  0.16045  0.01228  1.0000
  H   H2394     1.0  0.77518  0.23813  0.23205  1.0000
  H   H2395     1.0  0.89335  0.27607  0.18702  1.0000
  H   H2396     1.0  0.97432  0.07778  0.24532  1.0000
  H   H2397     1.0  0.77593  0.29015  0.19727  1.0000
  H   H2398     1.0  0.89718  0.01618  0.00625  1.0000
  H   H2399     1.0  0.76392  0.23321  0.15794  1.0000
  H   H2400     1.0  0.87819  0.29028  0.17210  1.0000
  C   C1396     1.0  0.92533  0.03295  0.16411  1.0000
  C   C1397     1.0  0.97654  0.07009  0.47586  1.0000
  H   H2401     1.0  0.94025  0.02471  0.12917  1.0000
  C   C1398     1.0  0.87183  0.17397  0.00907  1.0000
  C   C1399     1.0  0.86523  0.02780  0.02095  1.0000
  N   N100      1.0  0.86057  0.16082  0.45537  1.0000
  H   H2402     1.0  0.84588  0.30825  0.20006  1.0000
  H   H2403     1.0  0.90036  0.99840  0.04325  1.0000
  H   H2404     1.0  0.75152  0.16606  0.99327  1.0000
  C   C1400     1.0  0.74042  0.27794  0.25109  1.0000
  H   H2405     1.0  0.83359  0.16135  0.44507  1.0000
  C   C1401     1.0  0.85653  0.18066  0.41222  1.0000
  H   H2406     1.0  0.92612  0.03878  0.18508  1.0000
  S   S404      1.0  0.97727  0.07427  0.01235  1.0000
  H   H2407     1.0  0.96652  0.99680  0.43565  1.0000
  H   H2408     1.0  0.97713  0.98781  0.98791  1.0000
  C   C1402     1.0  0.88129  0.28350  0.19191  1.0000
  H   H2409     1.0  0.96403  0.02081  0.10483  1.0000
  H   H2410     1.0  0.94926  0.06992  0.47037  1.0000
  C   C1403     1.0  0.97612  0.07459  0.22346  1.0000
  C   C1404     1.0  0.85702  0.17584  0.47424  1.0000
  C   C1405     1.0  0.94995  0.02593  0.44070  1.0000
  H   H2411     1.0  0.98466  0.01119  0.10978  1.0000
  C   C1406     1.0  0.73800  0.21865  0.42517  1.0000
  C   C1407     1.0  0.97847  0.06977  0.41628  1.0000
  C   C1408     1.0  0.97232  0.01869  0.14903  1.0000
  H   H2412     1.0  0.90014  0.17272  0.01246  1.0000
  C   C1409     1.0  0.85611  0.04203  0.00329  1.0000
  C   C1410     1.0  0.96985  0.99470  0.45793  1.0000
  H   H2413     1.0  0.76200  0.23865  0.44520  1.0000
  H   H2414     1.0  0.73825  0.26868  0.15287  1.0000
  H   H2415     1.0  0.93982  0.03622  0.44179  1.0000
  H   H2416     1.0  0.74785  0.24980  0.11878  1.0000
  H   H2417     1.0  0.98530  0.01254  0.41799  1.0000
  H   H2418     1.0  0.86452  0.05157  0.99391  1.0000
  C   C1411     1.0  0.74017  0.17422  0.99094  1.0000
  H   H2419     1.0  0.74141  0.22839  0.48131  1.0000
  C   C1412     1.0  0.93778  0.99619  0.19239  1.0000
  C   C1413     1.0  0.83716  0.14180  0.47626  1.0000
  H   H2420     1.0  0.87791  0.19244  0.46016  1.0000
  H   H2421     1.0  0.88610  0.15557  0.47142  1.0000
  H   H2422     1.0  0.95843  0.98851  0.46706  1.0000
  N   N101      1.0  0.97294  0.01116  0.47289  1.0000
  C   C1414     1.0  0.95750  0.02318  0.47020  1.0000
  C   C1415     1.0  0.87225  0.18731  0.47969  1.0000
  H   H2423     1.0  0.73672  0.23256  0.42048  1.0000
  H   H2424     1.0  0.84540  0.13041  0.48135  1.0000
  H   H2425     1.0  0.73757  0.23516  0.16947  1.0000
  H   H2426     1.0  0.96044  0.03604  0.47804  1.0000
  H   H2427     1.0  0.89060  0.19822  0.98280  1.0000
  Fe  Fe205     1.0  0.82610  0.17569  0.53830  1.0000
  S   S405      1.0  0.83399  0.20213  0.52562  1.0000
  S   S406      1.0  0.85040  0.15884  0.54854  1.0000
  Fe  Fe206     1.0  0.78761  0.18696  0.53209  1.0000
  S   S407      1.0  0.79391  0.21364  0.51939  1.0000
  S   S408      1.0  0.75873  0.18415  0.53835  1.0000
  C   C1416     1.0  0.90411  0.08743  0.68634  1.0000
  S   S409      1.0  0.82379  0.21115  0.94814  1.0000
  Fe  Fe207     1.0  0.81305  0.21202  0.55463  1.0000
  S   S410      1.0  0.81530  0.23513  0.58349  1.0000
  H   H2428     1.0  0.81623  0.20802  0.62637  1.0000
  S   S411      1.0  0.80591  0.18590  0.56888  1.0000
  Fe  Fe208     1.0  0.79103  0.29011  0.75913  1.0000
  S   S412      1.0  0.78902  0.26258  0.77042  1.0000
  C   C1417     1.0  0.74339  0.16663  0.49525  1.0000
  Fe  Fe209     1.0  0.82971  0.29092  0.77371  1.0000
  S   S413      1.0  0.82978  0.26289  0.78587  1.0000
  N   N102      1.0  0.87177  0.17875  0.97842  1.0000
  Fe  Fe210     1.0  0.81400  0.25930  0.74694  1.0000
  S   S414      1.0  0.81813  0.23665  0.71751  1.0000
  Fe  Fe211     1.0  0.80483  0.26857  0.80827  1.0000
  S   S415      1.0  0.79483  0.26180  0.85226  1.0000
  S   S416      1.0  0.81525  0.28665  0.73346  1.0000
  S   S417      1.0  0.80542  0.29674  0.79824  1.0000
  Fe  Fe212     1.0  0.91577  0.07242  0.56005  1.0000
  S   S418      1.0  0.93963  0.08619  0.57091  1.0000
  S   S419      1.0  0.88903  0.08481  0.55052  1.0000
  Fe  Fe213     1.0  0.93429  0.03673  0.56795  1.0000
  S   S420      1.0  0.95886  0.04873  0.57957  1.0000
  S   S421      1.0  0.93795  0.00788  0.56285  1.0000
  Fe  Fe214     1.0  0.94298  0.06673  0.60597  1.0000
  S   S422      1.0  0.94573  0.07235  0.65283  1.0000
  Fe  Fe215     1.0  0.95345  0.06666  0.54318  1.0000
  H   H2429     1.0  0.85228  0.24022  0.74706  1.0000
  S   S423      1.0  0.91842  0.05373  0.59642  1.0000
  S   S424      1.0  0.92953  0.05395  0.53044  1.0000
  H   H2430     1.0  0.89518  0.25747  0.74109  1.0000
  C   C1418     1.0  0.77102  0.27298  0.65196  1.0000
  H   H2431     1.0  0.97179  0.07159  0.74643  1.0000
  H   H2432     1.0  0.86830  0.23430  0.65551  1.0000
  H   H2433     1.0  0.85357  0.06845  0.62273  1.0000
  C   C1419     1.0  0.96352  0.07039  0.67590  1.0000
  H   H2434     1.0  0.75607  0.29816  0.90062  1.0000
  C   C1420     1.0  0.74661  0.30450  0.73465  1.0000
  H   H2435     1.0  0.75658  0.21151  0.49138  1.0000
  H   H2436     1.0  0.86883  0.25261  0.76174  1.0000
  H   H2437     1.0  0.91045  0.12204  0.64489  1.0000
  C   C1421     1.0  0.93073  0.99083  0.58419  1.0000
  C   C1422     1.0  0.91742  0.99305  0.60373  1.0000
  C   C1423     1.0  0.90073  0.10137  0.61875  1.0000
  H   H2438     1.0  0.91099  0.00540  0.60576  1.0000
  C   C1424     1.0  0.73806  0.28899  0.73504  1.0000
  H   H2439     1.0  0.76162  0.23326  0.49553  1.0000
  H   H2440     1.0  0.75908  0.26500  0.82438  1.0000
  C   C1425     1.0  0.86086  0.13811  0.54787  1.0000
  C   C1426     1.0  0.87872  0.13672  0.55184  1.0000
  C   C1427     1.0  0.88764  0.12070  0.55173  1.0000
  C   C1428     1.0  0.87879  0.10566  0.54834  1.0000
  C   C1429     1.0  0.86095  0.10707  0.54405  1.0000
  C   C1430     1.0  0.85207  0.12312  0.54364  1.0000
  H   H2441     1.0  0.88575  0.14817  0.55497  1.0000
  H   H2442     1.0  0.90135  0.11998  0.55471  1.0000
  H   H2443     1.0  0.85389  0.09560  0.54127  1.0000
  H   H2444     1.0  0.83837  0.12385  0.54055  1.0000
  H   H2445     1.0  0.95996  0.03700  0.68643  1.0000
  H   H2446     1.0  0.87716  0.12912  0.62599  1.0000
  H   H2447     1.0  0.85938  0.11512  0.62355  1.0000
  C   C1431     1.0  0.76016  0.22819  0.95930  1.0000
  H   H2448     1.0  0.78492  0.28835  0.68149  1.0000
  C   C1432     1.0  0.81602  0.22591  0.92221  1.0000
  C   C1433     1.0  0.80317  0.23830  0.92790  1.0000
  C   C1434     1.0  0.79697  0.24924  0.90630  1.0000
  C   C1435     1.0  0.80375  0.24820  0.87890  1.0000
  C   C1436     1.0  0.81681  0.23601  0.87336  1.0000
  C   C1437     1.0  0.82283  0.22492  0.89486  1.0000
  H   H2449     1.0  0.79801  0.23946  0.94892  1.0000
  H   H2450     1.0  0.78694  0.25867  0.91091  1.0000
  H   H2451     1.0  0.82213  0.23500  0.85242  1.0000
  H   H2452     1.0  0.83282  0.21545  0.89020  1.0000
  C   C1438     1.0  0.81597  0.23524  0.62079  1.0000
  C   C1439     1.0  0.81610  0.25096  0.63480  1.0000
  C   C1440     1.0  0.81644  0.25167  0.66435  1.0000
  C   C1441     1.0  0.81694  0.23660  0.68028  1.0000
  C   C1442     1.0  0.81691  0.22090  0.66629  1.0000
  C   C1443     1.0  0.81629  0.22021  0.63677  1.0000
  H   H2453     1.0  0.81588  0.26266  0.62264  1.0000
  H   H2454     1.0  0.81646  0.26384  0.67476  1.0000
  H   H2455     1.0  0.81735  0.20916  0.67836  1.0000
  C   C1444     1.0  0.86855  0.12079  0.63806  1.0000
  H   H2456     1.0  0.85302  0.18204  0.94517  1.0000
  H   H2457     1.0  0.76406  0.29669  0.67435  1.0000
  C   C1445     1.0  0.87611  0.08391  0.62152  1.0000
  H   H2458     1.0  0.79371  0.18837  0.90352  1.0000
  H   H2459     1.0  0.91176  0.09897  0.68435  1.0000
  C   C1446     1.0  0.77130  0.24577  0.60638  1.0000
  H   H2460     1.0  0.89394  0.10992  0.60362  1.0000
  C   C1447     1.0  0.92895  0.01486  0.66689  1.0000
  H   H2461     1.0  0.92452  0.10307  0.64269  1.0000
  C   C1448     1.0  0.97973  0.07284  0.91550  1.0000
  H   H2462     1.0  0.97721  0.99056  0.67545  1.0000
  H   H2463     1.0  0.86284  0.07069  0.65659  1.0000
  H   H2464     1.0  0.95343  0.08204  0.91712  1.0000
  H   H2465     1.0  0.89021  0.06970  0.66306  1.0000
  C   C1449     1.0  0.89789  0.08093  0.65789  1.0000
  H   H2466     1.0  0.76722  0.27884  0.69786  1.0000
  H   H2467     1.0  0.91766  0.01673  0.65307  1.0000
  H   H2468     1.0  0.76706  0.24393  0.58447  1.0000
  C   C1450     1.0  0.75209  0.29106  0.80925  1.0000
  H   H2469     1.0  0.77648  0.23315  0.61363  1.0000
  H   H2470     1.0  0.88291  0.07263  0.61190  1.0000
  H   H2471     1.0  0.76690  0.28147  0.63422  1.0000
  H   H2472     1.0  0.87961  0.16729  0.93896  1.0000
  H   H2473     1.0  0.94677  0.01874  0.48367  1.0000
  H   H2474     1.0  0.79425  0.18675  0.94140  1.0000
  H   H2475     1.0  0.92253  0.11742  0.61389  1.0000
  S   S425      1.0  0.80705  0.17446  0.50286  1.0000
  C   C1451     1.0  0.96440  0.07780  0.92935  1.0000
  C   C1452     1.0  0.96259  0.02322  0.69074  1.0000
  H   H2476     1.0  0.85059  0.08811  0.64079  1.0000
  C   C1453     1.0  0.76315  0.29457  0.85638  1.0000
  C   C1454     1.0  0.97491  0.00677  0.50365  1.0000
  H   H2477     1.0  0.74329  0.29633  0.79281  1.0000
  H   H2478     1.0  0.86978  0.10149  0.67086  1.0000
  H   H2479     1.0  0.90693  0.09126  0.60550  1.0000
  H   H2480     1.0  0.85088  0.15165  0.95477  1.0000
  H   H2481     1.0  0.74500  0.27733  0.74067  1.0000
  H   H2482     1.0  0.90919  0.07516  0.64672  1.0000
  C   C1455     1.0  0.87873  0.10732  0.65563  1.0000
  C   C1456     1.0  0.75585  0.25215  0.62429  1.0000
  N   N103      1.0  0.88832  0.09368  0.63915  1.0000
  H   H2483     1.0  0.77781  0.30303  0.89177  1.0000
  H   H2484     1.0  0.97303  0.98470  0.95109  1.0000
  C   C1457     1.0  0.76839  0.18475  0.92339  1.0000
  H   H2485     1.0  0.77488  0.21233  0.85624  1.0000
  H   H2486     1.0  0.78238  0.21532  0.90222  1.0000
  C   C1458     1.0  0.96318  0.07757  0.95890  1.0000
  H   H2487     1.0  0.94504  0.03197  0.64411  1.0000
  H   H2488     1.0  0.73675  0.19127  0.88464  1.0000
  H   H2489     1.0  0.75215  0.21272  0.86321  1.0000
  H   H2490     1.0  0.86684  0.30713  0.69931  1.0000
  H   H2491     1.0  0.90973  0.03847  0.97745  1.0000
  C   C1459     1.0  0.74282  0.26167  0.66809  1.0000
  H   H2492     1.0  0.74648  0.24175  0.62467  1.0000
  C   C1460     1.0  0.97421  0.07015  0.72421  1.0000
  C   C1461     1.0  0.76478  0.20759  0.87056  1.0000
  H   H2493     1.0  0.89317  0.08998  0.70085  1.0000
  C   C1462     1.0  0.78805  0.18219  0.92223  1.0000
  H   H2494     1.0  0.87144  0.09165  0.60328  1.0000
  C   C1463     1.0  0.98012  0.06629  0.66640  1.0000
  C   C1464     1.0  0.94534  0.01812  0.64975  1.0000
  H   H2495     1.0  0.76322  0.23812  0.94360  1.0000
  H   H2496     1.0  0.90676  0.26041  0.70840  1.0000
  H   H2497     1.0  0.88212  0.19686  0.93024  1.0000
  C   C1465     1.0  0.97667  0.01848  0.64559  1.0000
  H   H2498     1.0  0.95239  0.01938  0.70563  1.0000
  H   H2499     1.0  0.91250  0.07738  0.69623  1.0000
  C   C1466     1.0  0.76791  0.21046  0.95141  1.0000
  S   S426      1.0  0.98083  0.07448  0.87820  1.0000
  H   H2500     1.0  0.88290  0.21732  0.94640  1.0000
  C   C1467     1.0  0.74204  0.18002  0.51440  1.0000
  C   C1468     1.0  0.85370  0.17822  0.96764  1.0000
  H   H2501     1.0  0.79135  0.16834  0.92085  1.0000
  H   H2502     1.0  0.95577  0.98646  0.62828  1.0000
  C   C1469     1.0  0.84496  0.16103  0.96944  1.0000
  H   H2503     1.0  0.92720  0.02413  0.68416  1.0000
  S   S427      1.0  0.76861  0.30663  0.74296  1.0000
  H   H2504     1.0  0.78332  0.25471  0.70195  1.0000
  H   H2505     1.0  0.73722  0.21670  0.91924  1.0000
  H   H2506     1.0  0.74436  0.26533  0.69019  1.0000
  H   H2507     1.0  0.84834  0.29828  0.71592  1.0000
  H   H2508     1.0  0.88226  0.18063  0.49244  1.0000
  H   H2509     1.0  0.83146  0.16298  0.96271  1.0000
  H   H2510     1.0  0.94391  0.01166  0.62948  1.0000
  C   C1470     1.0  0.85535  0.29954  0.69587  1.0000
  C   C1471     1.0  0.91524  0.11153  0.63132  1.0000
  N   N104      1.0  0.75976  0.25776  0.65373  1.0000
  H   H2511     1.0  0.78443  0.26882  0.64695  1.0000
  H   H2512     1.0  0.78167  0.25502  0.60551  1.0000
  H   H2513     1.0  0.76368  0.17754  0.94198  1.0000
  H   H2514     1.0  0.76551  0.19360  0.86823  1.0000
  C   C1472     1.0  0.87711  0.19702  0.97604  1.0000
  C   C1473     1.0  0.97621  0.02202  0.52365  1.0000
  S   S428      1.0  0.97612  0.07026  0.51323  1.0000
  H   H2515     1.0  0.98339  0.00824  0.71200  1.0000
  H   H2516     1.0  0.96420  0.02997  0.52417  1.0000
  N   N105      1.0  0.86963  0.26928  0.70082  1.0000
  C   C1474     1.0  0.85994  0.28210  0.68248  1.0000
  C   C1475     1.0  0.87607  0.25504  0.68203  1.0000
  C   C1476     1.0  0.88446  0.27817  0.71369  1.0000
  C   C1477     1.0  0.85745  0.26325  0.72314  1.0000
  H   H2517     1.0  0.76527  0.29261  0.80091  1.0000
  C   C1478     1.0  0.86211  0.24466  0.66811  1.0000
  C   C1479     1.0  0.89935  0.26689  0.72540  1.0000
  C   C1480     1.0  0.86345  0.24804  0.74179  1.0000
  H   H2518     1.0  0.86733  0.28485  0.66298  1.0000
  H   H2519     1.0  0.84763  0.27694  0.67534  1.0000
  H   H2520     1.0  0.88450  0.24565  0.69320  1.0000
  H   H2521     1.0  0.88433  0.26017  0.66503  1.0000
  H   H2522     1.0  0.89044  0.28673  0.69793  1.0000
  H   H2523     1.0  0.87989  0.28658  0.73113  1.0000
  H   H2524     1.0  0.85402  0.27376  0.73779  1.0000
  H   H2525     1.0  0.84491  0.26011  0.71405  1.0000
  C   C1481     1.0  0.76879  0.24292  0.66838  1.0000
  H   H2526     1.0  0.92875  0.00167  0.67532  1.0000
  C   C1482     1.0  0.76838  0.21360  0.90050  1.0000
  H   H2527     1.0  0.85385  0.23843  0.68387  1.0000
  H   H2528     1.0  0.85412  0.25248  0.65345  1.0000
  C   C1483     1.0  0.77330  0.24522  0.69943  1.0000
  H   H2529     1.0  0.78121  0.23960  0.65793  1.0000
  H   H2530     1.0  0.90838  0.27518  0.73624  1.0000
  C   C1484     1.0  0.97942  0.02167  0.70748  1.0000
  H   H2531     1.0  0.84686  0.30709  0.68148  1.0000
  H   H2532     1.0  0.87272  0.23904  0.73180  1.0000
  H   H2533     1.0  0.98255  0.06477  0.64420  1.0000
  H   H2534     1.0  0.86094  0.12923  0.65240  1.0000
  H   H2535     1.0  0.88749  0.11457  0.66879  1.0000
  C   C1485     1.0  0.85998  0.07749  0.63666  1.0000
  N   N106      1.0  0.76168  0.20300  0.92439  1.0000
  H   H2536     1.0  0.96393  0.99924  0.51133  1.0000
  H   H2537     1.0  0.89086  0.31151  0.79032  1.0000
  N   N107      1.0  0.74938  0.30064  0.83633  1.0000
  H   H2538     1.0  0.78202  0.21179  0.95097  1.0000
  H   H2539     1.0  0.77896  0.23298  0.70758  1.0000
  H   H2540     1.0  0.94792  0.07555  0.71254  1.0000
  H   H2541     1.0  0.73852  0.28777  0.65074  1.0000
  C   C1486     1.0  0.96070  0.07241  0.70489  1.0000
  N   N108      1.0  0.96198  0.01312  0.66397  1.0000
  H   H2542     1.0  0.97817  0.01708  0.54532  1.0000
  H   H2543     1.0  0.73641  0.26845  0.81718  1.0000
  S   S429      1.0  0.85652  0.30284  0.77544  1.0000
  Fe  Fe216     1.0  0.81409  0.20136  0.49178  1.0000
  H   H2544     1.0  0.86262  0.20848  0.94068  1.0000
  H   H2545     1.0  0.95657  0.99183  0.69132  1.0000
  H   H2546     1.0  0.76103  0.23131  0.66706  1.0000
  C   C1487     1.0  0.77154  0.28457  0.67800  1.0000
  H   H2547     1.0  0.76294  0.22686  0.90150  1.0000
  H   H2548     1.0  0.76204  0.24833  0.71287  1.0000
  H   H2549     1.0  0.76348  0.17788  0.90513  1.0000
  C   C1488     1.0  0.87607  0.20515  0.94647  1.0000
  H   H2550     1.0  0.76536  0.20177  0.96943  1.0000
  H   H2551     1.0  0.74971  0.26278  0.61200  1.0000
  H   H2552     1.0  0.88715  0.03836  0.97372  1.0000
  H   H2553     1.0  0.83565  0.14970  0.49520  1.0000
  C   C1489     1.0  0.74955  0.27164  0.81065  1.0000
  C   C1490     1.0  0.88385  0.16752  0.96118  1.0000
  H   H2554     1.0  0.76578  0.23214  0.97941  1.0000
  H   H2555     1.0  0.97750  0.02815  0.72794  1.0000
  C   C1491     1.0  0.97840  0.01009  0.61661  1.0000
  C   C1492     1.0  0.76434  0.30401  0.88443  1.0000
  H   H2556     1.0  0.73756  0.20138  0.94675  1.0000
  H   H2557     1.0  0.75152  0.26631  0.78935  1.0000
  C   C1493     1.0  0.96359  0.99437  0.67138  1.0000
  H   H2558     1.0  0.77604  0.29442  0.84625  1.0000
  H   H2559     1.0  0.97590  0.03255  0.64205  1.0000
  H   H2560     1.0  0.96680  0.01194  0.60362  1.0000
  H   H2561     1.0  0.86761  0.19847  0.49211  1.0000
  H   H2562     1.0  0.87454  0.14202  0.97415  1.0000
  C   C1494     1.0  0.97737  0.07255  0.97508  1.0000
  C   C1495     1.0  0.88657  0.14874  0.97088  1.0000
  H   H2563     1.0  0.89689  0.17280  0.96028  1.0000
  H   H2564     1.0  0.85257  0.17154  0.49508  1.0000
  H   H2565     1.0  0.89406  0.14162  0.95462  1.0000
  H   H2566     1.0  0.76152  0.28097  0.86218  1.0000
  H   H2567     1.0  0.86984  0.14572  0.49080  1.0000
  H   H2568     1.0  0.75520  0.15907  0.49379  1.0000
  H   H2569     1.0  0.95140  0.08175  0.96918  1.0000
  H   H2570     1.0  0.74613  0.22801  0.96287  1.0000
  H   H2571     1.0  0.98207  0.99635  0.61847  1.0000
  C   C1496     1.0  0.74231  0.20372  0.92509  1.0000
  H   H2572     1.0  0.84529  0.18759  0.97910  1.0000
  Fe  Fe217     1.0  0.94492  0.40409  0.27722  1.0000
  S   S430      1.0  0.91693  0.40857  0.28792  1.0000
  S   S431      1.0  0.95184  0.41055  0.23163  1.0000
  Fe  Fe218     1.0  0.95377  0.39739  0.33918  1.0000
  S   S432      1.0  0.92650  0.40161  0.35328  1.0000
  S   S433      1.0  0.97618  0.38976  0.36778  1.0000
  Fe  Fe219     1.0  0.91954  0.38547  0.31620  1.0000
  S   S434      1.0  0.90036  0.36442  0.32690  1.0000
  Fe  Fe220     1.0  0.92618  0.42420  0.32388  1.0000
  S   S435      1.0  0.91244  0.44980  0.33323  1.0000
  S   S436      1.0  0.94710  0.38005  0.30353  1.0000
  S   S437      1.0  0.95388  0.42098  0.31178  1.0000
  Fe  Fe221     1.0  0.95431  0.57517  0.36517  1.0000
  S   S438      1.0  0.92900  0.56237  0.36921  1.0000
  S   S439      1.0  0.96081  0.58608  0.32176  1.0000
  Fe  Fe222     1.0  0.96288  0.56866  0.42801  1.0000
  S   S440      1.0  0.93817  0.55555  0.43538  1.0000
  H   H2573     1.0  0.87184  0.34131  0.24320  1.0000
  Fe  Fe223     1.0  0.94335  0.54214  0.39436  1.0000
  S   S441      1.0  0.94762  0.51320  0.39012  1.0000
  Fe  Fe224     1.0  0.92580  0.57717  0.40962  1.0000
  S   S442      1.0  0.89979  0.58913  0.42451  1.0000
  S   S443      1.0  0.96869  0.55432  0.38806  1.0000
  S   S444      1.0  0.95047  0.59101  0.40438  1.0000
  C   C1497     1.0  0.88881  0.60951  0.42120  1.0000
  C   C1498     1.0  0.87202  0.61163  0.43202  1.0000
  C   C1499     1.0  0.86288  0.62752  0.43038  1.0000
  H   H2574     1.0  0.90678  0.34266  0.39269  1.0000
  C   C1500     1.0  0.88722  0.63955  0.40720  1.0000
  C   C1501     1.0  0.89633  0.62366  0.40873  1.0000
  H   H2575     1.0  0.86600  0.60082  0.44163  1.0000
  H   H2576     1.0  0.84996  0.62873  0.43852  1.0000
  H   H2577     1.0  0.90922  0.62235  0.40040  1.0000
  H   H2578     1.0  0.96158  0.32224  0.42996  1.0000
  H   H2579     1.0  0.91455  0.38044  0.40718  1.0000
  N   N109      1.0  0.97443  0.50979  0.47766  1.0000
  C   C1502     1.0  0.97285  0.56831  0.01321  1.0000
  C   C1503     1.0  0.96403  0.40792  0.17771  1.0000
  H   H2580     1.0  0.92182  0.64217  0.02902  1.0000
  H   H2581     1.0  0.96239  0.54364  0.31816  1.0000
  H   H2582     1.0  0.90983  0.59811  0.00039  1.0000
  H   H2583     1.0  0.94248  0.52653  0.47929  1.0000
  H   H2584     1.0  0.90609  0.64345  0.00209  1.0000
  H   H2585     1.0  0.97933  0.51854  0.34438  1.0000
  N   N110      1.0  0.94457  0.34703  0.39574  1.0000
  H   H2586     1.0  0.96604  0.52514  0.44185  1.0000
  C   C1504     1.0  0.92234  0.46739  0.34905  1.0000
  C   C1505     1.0  0.93874  0.46583  0.36051  1.0000
  C   C1506     1.0  0.94607  0.47994  0.37329  1.0000
  C   C1507     1.0  0.93726  0.49589  0.37442  1.0000
  C   C1508     1.0  0.92090  0.49753  0.36280  1.0000
  C   C1509     1.0  0.91345  0.48331  0.35038  1.0000
  H   H2587     1.0  0.94573  0.45369  0.35976  1.0000
  H   H2588     1.0  0.95873  0.47849  0.38216  1.0000
  H   H2589     1.0  0.91393  0.50967  0.36357  1.0000
  H   H2590     1.0  0.90073  0.48466  0.34169  1.0000
  C   C1510     1.0  0.96451  0.40067  0.20478  1.0000
  H   H2591     1.0  0.92823  0.52753  0.30356  1.0000
  H   H2592     1.0  0.93810  0.55985  0.27067  1.0000
  H   H2593     1.0  0.96528  0.35419  0.36812  1.0000
  H   H2594     1.0  0.97251  0.50382  0.43347  1.0000
  C   C1511     1.0  0.93558  0.53324  0.28596  1.0000
  C   C1512     1.0  0.92803  0.62701  0.99112  1.0000
  C   C1513     1.0  0.94160  0.51303  0.47303  1.0000
  C   C1514     1.0  0.87044  0.64165  0.41795  1.0000
  H   H2595     1.0  0.97818  0.61023  0.01342  1.0000
  C   C1515     1.0  0.96315  0.39695  0.42105  1.0000
  H   H2596     1.0  0.93809  0.55758  0.30841  1.0000
  H   H2597     1.0  0.90773  0.62473  0.02338  1.0000
  H   H2598     1.0  0.95124  0.40063  0.41094  1.0000
  C   C1516     1.0  0.86212  0.33010  0.28126  1.0000
  C   C1517     1.0  0.86358  0.32986  0.31051  1.0000
  C   C1518     1.0  0.87546  0.34025  0.32391  1.0000
  C   C1519     1.0  0.88605  0.35114  0.30844  1.0000
  C   C1520     1.0  0.88459  0.35140  0.27921  1.0000
  C   C1521     1.0  0.87277  0.34095  0.26580  1.0000
  H   H2599     1.0  0.95796  0.63706  0.00826  1.0000
  H   H2600     1.0  0.87637  0.33987  0.34651  1.0000
  H   H2601     1.0  0.89257  0.35963  0.26686  1.0000
  H   H2602     1.0  0.92953  0.33147  0.42387  1.0000
  N   N111      1.0  0.85687  0.40066  0.31975  1.0000
  C   C1522     1.0  0.86054  0.38980  0.34541  1.0000
  C   C1523     1.0  0.84143  0.39384  0.30539  1.0000
  C   C1524     1.0  0.85320  0.41901  0.32737  1.0000
  C   C1525     1.0  0.87240  0.39990  0.30091  1.0000
  C   C1526     1.0  0.87434  0.39620  0.36539  1.0000
  C   C1527     1.0  0.84432  0.37665  0.29033  1.0000
  C   C1528     1.0  0.83840  0.42217  0.34846  1.0000
  C   C1529     1.0  0.87091  0.40992  0.27295  1.0000
  H   H2603     1.0  0.84872  0.38804  0.35810  1.0000
  H   H2604     1.0  0.86483  0.37669  0.33928  1.0000
  H   H2605     1.0  0.83593  0.40315  0.28992  1.0000
  H   H2606     1.0  0.83086  0.39194  0.32076  1.0000
  H   H2607     1.0  0.86484  0.42492  0.33577  1.0000
  H   H2608     1.0  0.84990  0.42673  0.30834  1.0000
  H   H2609     1.0  0.88352  0.40517  0.31175  1.0000
  H   H2610     1.0  0.87673  0.38657  0.29637  1.0000
  H   H2611     1.0  0.88703  0.39690  0.35508  1.0000
  H   H2612     1.0  0.87071  0.40869  0.37475  1.0000
  H   H2613     1.0  0.87595  0.38692  0.38298  1.0000
  H   H2614     1.0  0.83192  0.37244  0.28206  1.0000
  H   H2615     1.0  0.85312  0.37769  0.27210  1.0000
  H   H2616     1.0  0.84916  0.36646  0.30472  1.0000
  H   H2617     1.0  0.82600  0.41825  0.33994  1.0000
  H   H2618     1.0  0.83710  0.43605  0.35269  1.0000
  H   H2619     1.0  0.84080  0.41571  0.36887  1.0000
  H   H2620     1.0  0.87532  0.42313  0.27546  1.0000
  H   H2621     1.0  0.85784  0.41055  0.26429  1.0000
  H   H2622     1.0  0.87905  0.40339  0.25682  1.0000
  N   N112      1.0  0.95400  0.52664  0.28591  1.0000
  H   H2623     1.0  0.96560  0.59454  0.26365  1.0000
  C   C1530     1.0  0.95393  0.50798  0.27860  1.0000
  C   C1531     1.0  0.97561  0.51477  0.44706  1.0000
  C   C1532     1.0  0.96118  0.52975  0.31462  1.0000
  C   C1533     1.0  0.96795  0.33463  0.42927  1.0000
  C   C1534     1.0  0.94506  0.49638  0.29999  1.0000
  H   H2624     1.0  0.92603  0.36265  0.37219  1.0000
  C   C1535     1.0  0.97021  0.61584  0.03053  1.0000
  H   H2625     1.0  0.98178  0.43861  0.16257  1.0000
  C   C1536     1.0  0.91536  0.63465  0.01298  1.0000
  H   H2626     1.0  0.97779  0.43962  0.21998  1.0000
  H   H2627     1.0  0.94769  0.50629  0.25793  1.0000
  C   C1537     1.0  0.97742  0.39202  0.40478  1.0000
  C   C1538     1.0  0.93478  0.36359  0.39021  1.0000
  S   S445      1.0  0.98531  0.56762  0.45914  1.0000
  H   H2628     1.0  0.95211  0.52592  0.33149  1.0000
  C   C1539     1.0  0.95392  0.62548  0.01984  1.0000
  C   C1540     1.0  0.97385  0.56892  0.04273  1.0000
  H   H2629     1.0  0.91879  0.55588  0.28933  1.0000
  H   H2630     1.0  0.93115  0.49942  0.30188  1.0000
  H   H2631     1.0  0.90713  0.64445  0.46368  1.0000
  H   H2632     1.0  0.92942  0.60675  0.04050  1.0000
  C   C1541     1.0  0.95648  0.34343  0.37127  1.0000
  H   H2633     1.0  0.91724  0.33375  0.36236  1.0000
  H   H2634     1.0  0.96634  0.54933  0.27098  1.0000
  C   C1542     1.0  0.97438  0.40119  0.15585  1.0000
  H   H2635     1.0  0.94751  0.35210  0.44014  1.0000
  C   C1543     1.0  0.95556  0.34959  0.42119  1.0000
  H   H2636     1.0  0.92901  0.52950  0.26641  1.0000
  C   C1544     1.0  0.93276  0.55275  0.28872  1.0000
  C   C1545     1.0  0.97541  0.38643  0.20968  1.0000
  C   C1546     1.0  0.92399  0.37065  0.41505  1.0000
  H   H2637     1.0  0.88934  0.63231  0.47350  1.0000
  C   C1547     1.0  0.96350  0.53637  0.26357  1.0000
  H   H2638     1.0  0.94265  0.32717  0.34261  1.0000
  H   H2639     1.0  0.96014  0.59657  0.98504  1.0000
  C   C1548     1.0  0.91582  0.33244  0.38531  1.0000
  H   H2640     1.0  0.97592  0.38069  0.23035  1.0000
  H   H2641     1.0  0.93994  0.51251  0.44999  1.0000
  H   H2642     1.0  0.95118  0.49691  0.32077  1.0000
  H   H2643     1.0  0.93823  0.34981  0.33691  1.0000
  H   H2644     1.0  0.96286  0.56568  0.05534  1.0000
  C   C1549     1.0  0.94809  0.34002  0.34290  1.0000
  H   H2645     1.0  0.97922  0.33390  0.41499  1.0000
  H   H2646     1.0  0.95292  0.39998  0.46297  1.0000
  H   H2647     1.0  0.93218  0.37706  0.43034  1.0000
  N   N113      1.0  0.94205  0.61524  0.00242  1.0000
  C   C1550     1.0  0.97670  0.57921  0.29703  1.0000
  H   H2648     1.0  0.97304  0.33694  0.45054  1.0000
  H   H2649     1.0  0.96117  0.56458  0.00332  1.0000
  H   H2650     1.0  0.96344  0.36102  0.41836  1.0000
  C   C1551     1.0  0.96417  0.39664  0.45057  1.0000
  C   C1552     1.0  0.92127  0.59047  0.00720  1.0000
  H   H2651     1.0  0.92657  0.58308  0.98926  1.0000
  H   H2652     1.0  0.94375  0.37367  0.38398  1.0000
  H   H2653     1.0  0.95556  0.41884  0.17361  1.0000
  C   C1553     1.0  0.93491  0.60141  0.02073  1.0000
  C   C1554     1.0  0.97959  0.39202  0.46421  1.0000
  H   H2654     1.0  0.97832  0.62492  0.04160  1.0000
  C   C1555     1.0  0.93301  0.33232  0.40123  1.0000
  H   H2655     1.0  0.95809  0.34016  0.32624  1.0000
  H   H2656     1.0  0.94636  0.48293  0.29299  1.0000
  H   H2657     1.0  0.94528  0.59227  0.02754  1.0000
  H   H2658     1.0  0.96702  0.50236  0.27582  1.0000
  H   H2659     1.0  0.91687  0.36063  0.42613  1.0000
  H   H2660     1.0  0.95535  0.53840  0.24466  1.0000
  H   H2661     1.0  0.97840  0.51682  0.23983  1.0000
  H   H2662     1.0  0.96486  0.33197  0.37531  1.0000
  H   H2663     1.0  0.78515  0.64214  0.99461  1.0000
  C   C1556     1.0  0.97583  0.58555  0.26935  1.0000
  C   C1557     1.0  0.89739  0.64275  0.48046  1.0000
  H   H2664     1.0  0.91683  0.58103  0.02287  1.0000
  H   H2665     1.0  0.98041  0.38311  0.99420  1.0000
  H   H2666     1.0  0.96712  0.60577  0.04601  1.0000
  H   H2667     1.0  0.97376  0.40688  0.13514  1.0000
  C   C1558     1.0  0.98051  0.52832  0.25252  1.0000
  H   H2668     1.0  0.91583  0.45377  0.99527  1.0000
  H   H2669     1.0  0.94723  0.63041  0.03890  1.0000
  H   H2670     1.0  0.85557  0.32163  0.32282  1.0000
  H   H2671     1.0  0.95675  0.48965  0.47084  1.0000
  H   H2672     1.0  0.98171  0.50924  0.31121  1.0000
  H   H2673     1.0  0.93988  0.31999  0.39651  1.0000
  C   C1559     1.0  0.97888  0.52154  0.32157  1.0000
  H   H2674     1.0  0.90953  0.32018  0.38932  1.0000
  S   S446      1.0  0.84741  0.31723  0.26282  1.0000
  C   C1560     1.0  0.98555  0.38719  0.16083  1.0000
  H   H2675     1.0  0.92981  0.50797  0.48263  1.0000
  C   C1561     1.0  0.95730  0.50194  0.48230  1.0000
  Fe  Fe225     1.0  0.95273  0.39542  0.79621  1.0000
  S   S447      1.0  0.92694  0.40768  0.78729  1.0000
  S   S448      1.0  0.97344  0.38764  0.76411  1.0000
  Fe  Fe226     1.0  0.94477  0.39192  0.85903  1.0000
  S   S449      1.0  0.91812  0.40350  0.85372  1.0000
  S   S450      1.0  0.95310  0.38127  0.90184  1.0000
  Fe  Fe227     1.0  0.91615  0.38709  0.81516  1.0000
  S   S451      1.0  0.89100  0.37454  0.80203  1.0000
  Fe  Fe228     1.0  0.93102  0.42293  0.82656  1.0000
  S   S452      1.0  0.92287  0.45133  0.82713  1.0000
  S   S453      1.0  0.94189  0.37422  0.82245  1.0000
  S   S454      1.0  0.95772  0.41207  0.83358  1.0000
  Fe  Fe229     1.0  0.95166  0.56977  0.86795  1.0000
  S   S455      1.0  0.92581  0.55953  0.87951  1.0000
  S   S456      1.0  0.95511  0.57537  0.82105  1.0000
  Fe  Fe230     1.0  0.96361  0.56842  0.92982  1.0000
  S   S457      1.0  0.93888  0.55775  0.94421  1.0000
  H   H2676     1.0  0.89955  0.39205  0.74729  1.0000
  Fe  Fe231     1.0  0.94108  0.54070  0.90621  1.0000
  S   S458      1.0  0.94146  0.51147  0.90994  1.0000
  Fe  Fe232     1.0  0.92598  0.57782  0.91610  1.0000
  S   S459      1.0  0.90602  0.59607  0.93777  1.0000
  S   S460      1.0  0.96671  0.55041  0.89339  1.0000
  S   S461      1.0  0.95095  0.58902  0.90288  1.0000
  C   C1562     1.0  0.88966  0.61210  0.93020  1.0000
  C   C1563     1.0  0.88315  0.61503  0.90324  1.0000
  C   C1564     1.0  0.86971  0.62732  0.89874  1.0000
  C   C1565     1.0  0.86273  0.63719  0.92091  1.0000
  C   C1566     1.0  0.97584  0.39253  0.72788  1.0000
  C   C1567     1.0  0.88267  0.62198  0.95235  1.0000
  H   H2677     1.0  0.88822  0.60754  0.88596  1.0000
  H   H2678     1.0  0.89004  0.35891  0.73821  1.0000
  H   H2679     1.0  0.96291  0.44686  0.95773  1.0000
  H   H2680     1.0  0.80930  0.63115  0.92863  1.0000
  C   C1568     1.0  0.98287  0.56932  0.74886  1.0000
  C   C1569     1.0  0.92748  0.41486  0.93016  1.0000
  N   N114      1.0  0.78213  0.63734  0.92162  1.0000
  S   S462      1.0  0.97957  0.39004  0.50141  1.0000
  C   C1570     1.0  0.92739  0.53224  0.80546  1.0000
  C   C1571     1.0  0.97247  0.57102  0.79750  1.0000
  H   H2681     1.0  0.91808  0.46377  0.96182  1.0000
  H   H2682     1.0  0.93643  0.40997  0.94653  1.0000
  H   H2683     1.0  0.98004  0.43869  0.66101  1.0000
  H   H2684     1.0  0.96681  0.48172  0.77346  1.0000
  C   C1572     1.0  0.97437  0.51126  0.84612  1.0000
  H   H2685     1.0  0.82028  0.63229  0.88312  1.0000
  C   C1573     1.0  0.92887  0.46810  0.84949  1.0000
  C   C1574     1.0  0.94249  0.46626  0.86825  1.0000
  C   C1575     1.0  0.94643  0.47981  0.88610  1.0000
  C   C1576     1.0  0.93708  0.49548  0.88503  1.0000
  C   C1577     1.0  0.92370  0.49744  0.86583  1.0000
  C   C1578     1.0  0.91957  0.48379  0.84836  1.0000
  H   H2686     1.0  0.94989  0.45436  0.86916  1.0000
  H   H2687     1.0  0.95676  0.47813  0.90094  1.0000
  H   H2688     1.0  0.91618  0.50927  0.86510  1.0000
  H   H2689     1.0  0.90896  0.48534  0.83400  1.0000
  H   H2690     1.0  0.97708  0.48326  0.51990  1.0000
  H   H2691     1.0  0.74373  0.33149  0.72701  1.0000
  C   C1579     1.0  0.96085  0.52247  0.83069  1.0000
  C   C1580     1.0  0.95136  0.60709  0.97794  1.0000
  H   H2692     1.0  0.93437  0.41284  0.90986  1.0000
  H   H2693     1.0  0.96161  0.37115  0.95805  1.0000
  C   C1581     1.0  0.96675  0.39036  0.92684  1.0000
  H   H2694     1.0  0.97287  0.53706  0.53603  1.0000
  C   C1582     1.0  0.96396  0.40293  0.71334  1.0000
  H   H2695     1.0  0.95307  0.40859  0.72439  1.0000
  H   H2696     1.0  0.98052  0.57095  0.72668  1.0000
  C   C1583     1.0  0.96619  0.40603  0.68440  1.0000
  H   H2697     1.0  0.79550  0.59907  0.90977  1.0000
  H   H2698     1.0  0.88283  0.63904  0.53340  1.0000
  H   H2699     1.0  0.80274  0.64485  0.86957  1.0000
  C   C1584     1.0  0.85598  0.33824  0.78488  1.0000
  C   C1585     1.0  0.86396  0.35378  0.79052  1.0000
  C   C1586     1.0  0.88159  0.35425  0.79646  1.0000
  C   C1587     1.0  0.89115  0.33878  0.79655  1.0000
  C   C1588     1.0  0.90529  0.45792  0.90916  1.0000
  H   H2700     1.0  0.84244  0.33828  0.78035  1.0000
  H   H2701     1.0  0.85636  0.36557  0.79028  1.0000
  H   H2702     1.0  0.90466  0.33877  0.80123  1.0000
  H   H2703     1.0  0.94222  0.60093  0.96378  1.0000
  C   C1589     1.0  0.98036  0.39892  0.66966  1.0000
  C   C1590     1.0  0.97471  0.57573  0.54252  1.0000
  C   C1591     1.0  0.84334  0.64716  0.51488  1.0000
  C   C1592     1.0  0.97571  0.40511  0.92110  1.0000
  H   H2704     1.0  0.92039  0.62046  0.97516  1.0000
  C   C1593     1.0  0.77862  0.64407  0.95068  1.0000
  H   H2705     1.0  0.98015  0.49903  0.65911  1.0000
  H   H2706     1.0  0.93788  0.45660  0.93163  1.0000
  H   H2707     1.0  0.88926  0.33676  0.73197  1.0000
  H   H2708     1.0  0.77159  0.31976  0.79866  1.0000
  N   N115      1.0  0.95796  0.51855  0.80022  1.0000
  C   C1594     1.0  0.97671  0.52548  0.49517  1.0000
  C   C1595     1.0  0.93973  0.44264  0.93425  1.0000
  S   S463      1.0  0.98244  0.40359  0.63328  1.0000
  H   H2709     1.0  0.77807  0.32281  0.83460  1.0000
  C   C1596     1.0  0.96857  0.38251  0.95334  1.0000
  H   H2710     1.0  0.78366  0.62197  0.97845  1.0000
  C   C1597     1.0  0.86556  0.32282  0.78458  1.0000
  H   H2711     1.0  0.90441  0.63877  0.49966  1.0000
  H   H2712     1.0  0.97175  0.51448  0.53760  1.0000
  H   H2713     1.0  0.86458  0.62904  0.87789  1.0000
  H   H2714     1.0  0.96620  0.53126  0.74265  1.0000
  H   H2715     1.0  0.98008  0.44126  0.61488  1.0000
  H   H2716     1.0  0.94964  0.54444  0.78927  1.0000
  H   H2717     1.0  0.90152  0.43152  0.90584  1.0000
  H   H2718     1.0  0.91498  0.46760  0.91256  1.0000
  H   H2719     1.0  0.97895  0.53424  0.78821  1.0000
  H   H2720     1.0  0.86461  0.63480  0.49422  1.0000
  N   N116      1.0  0.92576  0.36070  0.71878  1.0000
  C   C1598     1.0  0.94432  0.35506  0.72246  1.0000
  C   C1599     1.0  0.92313  0.36384  0.68784  1.0000
  C   C1600     1.0  0.91493  0.34622  0.72846  1.0000
  C   C1601     1.0  0.92218  0.37635  0.73635  1.0000
  C   C1602     1.0  0.94961  0.34918  0.75218  1.0000
  C   C1603     1.0  0.93415  0.37774  0.67454  1.0000
  C   C1604     1.0  0.89542  0.34858  0.72474  1.0000
  C   C1605     1.0  0.90668  0.38814  0.72801  1.0000
  H   H2721     1.0  0.92065  0.43799  0.88946  1.0000
  H   H2722     1.0  0.95295  0.36557  0.71697  1.0000
  H   H2723     1.0  0.90970  0.36740  0.68277  1.0000
  H   H2724     1.0  0.92584  0.35187  0.67596  1.0000
  H   H2725     1.0  0.90566  0.40275  0.95148  1.0000
  H   H2726     1.0  0.91668  0.34369  0.75125  1.0000
  H   H2727     1.0  0.92037  0.37267  0.75876  1.0000
  H   H2728     1.0  0.93352  0.38456  0.73611  1.0000
  H   H2729     1.0  0.96380  0.34770  0.75300  1.0000
  H   H2730     1.0  0.97677  0.46424  0.61163  1.0000
  H   H2731     1.0  0.94445  0.33661  0.75778  1.0000
  H   H2732     1.0  0.94779  0.37344  0.67260  1.0000
  H   H2733     1.0  0.92963  0.38055  0.65291  1.0000
  H   H2734     1.0  0.93319  0.38982  0.68631  1.0000
  C   C1606     1.0  0.80088  0.63894  0.91462  1.0000
  C   C1607     1.0  0.96839  0.52579  0.52464  1.0000
  C   C1608     1.0  0.88323  0.32328  0.79035  1.0000
  H   H2735     1.0  0.77411  0.64443  0.87944  1.0000
  H   H2736     1.0  0.89720  0.38253  0.71418  1.0000
  H   H2737     1.0  0.91111  0.40017  0.71843  1.0000
  H   H2738     1.0  0.91901  0.33422  0.71760  1.0000
  C   C1609     1.0  0.91277  0.43949  0.90892  1.0000
  C   C1610     1.0  0.78817  0.63506  0.97502  1.0000
  H   H2739     1.0  0.96444  0.53601  0.83301  1.0000
  H   H2740     1.0  0.93354  0.63800  0.97978  1.0000
  C   C1611     1.0  0.96177  0.61913  0.95923  1.0000
  C   C1612     1.0  0.96468  0.48583  0.79544  1.0000
  H   H2741     1.0  0.95341  0.62874  0.94835  1.0000
  C   C1613     1.0  0.96974  0.57314  0.76852  1.0000
  H   H2742     1.0  0.94892  0.52111  0.84322  1.0000
  N   N117      1.0  0.92300  0.43359  0.93413  1.0000
  H   H2743     1.0  0.94771  0.43879  0.91573  1.0000
  H   H2744     1.0  0.90335  0.40460  0.91371  1.0000
  H   H2745     1.0  0.97710  0.48804  0.80536  1.0000
  H   H2746     1.0  0.92865  0.53868  0.82590  1.0000
  H   H2747     1.0  0.80041  0.62238  0.87721  1.0000
  H   H2748     1.0  0.91800  0.54016  0.79321  1.0000
  H   H2749     1.0  0.97446  0.41129  0.90083  1.0000
  H   H2750     1.0  0.95520  0.49857  0.50464  1.0000
  H   H2751     1.0  0.94218  0.49800  0.81385  1.0000
  H   H2752     1.0  0.89960  0.46082  0.88831  1.0000
  C   C1614     1.0  0.91251  0.40251  0.93107  1.0000
  H   H2753     1.0  0.89159  0.35060  0.70267  1.0000
  H   H2754     1.0  0.86427  0.64183  0.96514  1.0000
  H   H2755     1.0  0.94792  0.34443  0.70798  1.0000
  H   H2756     1.0  0.95688  0.41404  0.67333  1.0000
  C   C1615     1.0  0.97425  0.52134  0.78394  1.0000
  C   C1616     1.0  0.73739  0.31945  0.72742  1.0000
  H   H2757     1.0  0.94579  0.35871  0.76816  1.0000
  C   C1617     1.0  0.77614  0.61936  0.91886  1.0000
  H   H2758     1.0  0.89965  0.43123  0.95805  1.0000
  C   C1618     1.0  0.95132  0.50087  0.79673  1.0000
  H   H2759     1.0  0.76391  0.61783  0.93062  1.0000
  C   C1619     1.0  0.95098  0.43974  0.96049  1.0000
  C   C1620     1.0  0.94462  0.53135  0.78940  1.0000
  H   H2760     1.0  0.96406  0.58050  0.55512  1.0000
  H   H2761     1.0  0.88735  0.61977  0.97337  1.0000
  H   H2762     1.0  0.96084  0.57844  0.50344  1.0000
  C   C1621     1.0  0.86948  0.63453  0.94775  1.0000
  C   C1622     1.0  0.78873  0.60474  0.92818  1.0000
  H   H2763     1.0  0.94137  0.52871  0.76725  1.0000
  H   H2764     1.0  0.92192  0.51953  0.80862  1.0000
  C   C1623     1.0  0.76782  0.32541  0.81903  1.0000
  H   H2765     1.0  0.97030  0.49793  0.84826  1.0000
  C   C1624     1.0  0.80614  0.63427  0.88432  1.0000
  H   H2766     1.0  0.78128  0.59426  0.93745  1.0000
  H   H2767     1.0  0.95732  0.57770  0.76120  1.0000
  H   H2768     1.0  0.76698  0.33942  0.81557  1.0000
  H   H2769     1.0  0.95932  0.47464  0.80644  1.0000
  H   H2770     1.0  0.94383  0.50021  0.77702  1.0000
  H   H2771     1.0  0.74683  0.32752  0.84755  1.0000
  C   C1625     1.0  0.85957  0.64815  0.49632  1.0000
  H   H2772     1.0  0.83389  0.63936  0.50397  1.0000
  C   C1626     1.0  0.97284  0.57457  0.51316  1.0000
  H   H2773     1.0  0.89471  0.45943  0.92460  1.0000
  C   C1627     1.0  0.97293  0.51985  0.75184  1.0000
  H   H2774     1.0  0.95426  0.52732  0.52350  1.0000
  H   H2775     1.0  0.84608  0.64072  0.53520  1.0000
  H   H2776     1.0  0.97135  0.53707  0.48428  1.0000
  C   C1628     1.0  0.91288  0.43571  0.96096  1.0000
  H   H2777     1.0  0.96848  0.61146  0.94278  1.0000
  H   H2778     1.0  0.79818  0.60811  0.94408  1.0000
  H   H2779     1.0  0.74674  0.63741  0.90612  1.0000
  H   H2780     1.0  0.95503  0.42622  0.96374  1.0000
  C   C1629     1.0  0.75028  0.31939  0.82939  1.0000
  H   H2781     1.0  0.97331  0.46863  0.65805  1.0000
  H   H2782     1.0  0.77316  0.61676  0.89653  1.0000
  H   H2783     1.0  0.91787  0.38929  0.92853  1.0000
  H   H2784     1.0  0.96648  0.50817  0.74548  1.0000
  H   H2785     1.0  0.76482  0.64338  0.95624  1.0000
  H   H2786     1.0  0.97551  0.51600  0.86787  1.0000
  C   C1630     1.0  0.77220  0.64879  0.90138  1.0000
  H   H2787     1.0  0.74066  0.32306  0.81305  1.0000
  C   C1631     1.0  0.97925  0.38924  0.97388  1.0000
  H   H2788     1.0  0.91853  0.42726  0.97767  1.0000
  H   H2789     1.0  0.98477  0.47375  0.68830  1.0000
  H   H2790     1.0  0.97192  0.62549  0.97086  1.0000
  H   H2791     1.0  0.76131  0.31783  0.88290  1.0000
  H   H2792     1.0  0.80227  0.63502  0.97251  1.0000
  H   H2793     1.0  0.89742  0.45815  0.97431  1.0000
  C   C1632     1.0  0.91112  0.45389  0.97335  1.0000
  H   H2794     1.0  0.94465  0.44457  0.97980  1.0000
  H   H2795     1.0  0.97579  0.44303  0.70771  1.0000
  H   H2796     1.0  0.98488  0.51261  0.79065  1.0000
  H   H2797     1.0  0.98529  0.53319  0.98213  1.0000
  Fe  Fe233     1.0  0.95322  0.90198  0.12858  1.0000
  S   S464      1.0  0.92501  0.90285  0.11867  1.0000
  H   H2798     1.0  0.78977  0.71633  0.02078  1.0000
  Fe  Fe234     1.0  0.94678  0.90937  0.19173  1.0000
  S   S465      1.0  0.91826  0.91085  0.18522  1.0000
  S   S466      1.0  0.95458  0.91677  0.23626  1.0000
  Fe  Fe235     1.0  0.92151  0.88730  0.15879  1.0000
  S   S467      1.0  0.90822  0.86136  0.16549  1.0000
  Fe  Fe236     1.0  0.92408  0.92627  0.14630  1.0000
  S   S468      1.0  0.90991  0.95216  0.14076  1.0000
  S   S469      1.0  0.95005  0.88519  0.16697  1.0000
  S   S470      1.0  0.95224  0.92601  0.15431  1.0000
  Fe  Fe237     1.0  0.82713  0.79740  0.20318  1.0000
  S   S471      1.0  0.84110  0.77311  0.19013  1.0000
  S   S472      1.0  0.83888  0.82420  0.20243  1.0000
  Fe  Fe238     1.0  0.79240  0.77879  0.21172  1.0000
  S   S473      1.0  0.80483  0.75406  0.19732  1.0000
  S   S474      1.0  0.76541  0.77239  0.22757  1.0000
  Fe  Fe239     1.0  0.82646  0.76060  0.22571  1.0000
  S   S475      1.0  0.83497  0.73903  0.25590  1.0000
  Fe  Fe240     1.0  0.81798  0.76868  0.16327  1.0000
  S   S476      1.0  0.81815  0.76588  0.11523  1.0000
  S   S477      1.0  0.81401  0.78508  0.24064  1.0000
  S   S478      1.0  0.80415  0.79322  0.17568  1.0000
  Fe  Fe241     1.0  0.83631  0.67824  0.43139  1.0000
  S   S479      1.0  0.84487  0.70382  0.44600  1.0000
  H   H2799     1.0  0.77531  0.77378  0.35735  1.0000
  Fe  Fe242     1.0  0.79799  0.69005  0.43965  1.0000
  S   S480      1.0  0.80496  0.71600  0.45404  1.0000
  S   S481      1.0  0.76906  0.68811  0.43369  1.0000
  Fe  Fe243     1.0  0.82405  0.71514  0.41833  1.0000
  S   S482      1.0  0.82729  0.73827  0.38948  1.0000
  H   H2800     1.0  0.94850  0.87885  0.31726  1.0000
  S   S483      1.0  0.82794  0.70368  0.02979  1.0000
  S   S484      1.0  0.81620  0.68994  0.40238  1.0000
  H   H2801     1.0  0.97530  0.96282  0.02226  1.0000
  C   C1633     1.0  0.85673  0.66532  0.33317  1.0000
  H   H2802     1.0  0.74815  0.73829  0.04636  1.0000
  C   C1634     1.0  0.78855  0.77443  0.30096  1.0000
  H   H2803     1.0  0.89900  0.85971  0.23260  1.0000
  H   H2804     1.0  0.87735  0.70811  0.39214  1.0000
  H   H2805     1.0  0.77473  0.73726  0.98381  1.0000
  H   H2806     1.0  0.74228  0.71723  0.00577  1.0000
  C   C1635     1.0  0.83187  0.73921  0.29287  1.0000
  C   C1636     1.0  0.82842  0.72391  0.30714  1.0000
  C   C1637     1.0  0.82658  0.72346  0.33662  1.0000
  C   C1638     1.0  0.82868  0.73823  0.35225  1.0000
  C   C1639     1.0  0.83204  0.75352  0.33796  1.0000
  C   C1640     1.0  0.83356  0.75404  0.30849  1.0000
  H   H2807     1.0  0.82691  0.71240  0.29526  1.0000
  H   H2808     1.0  0.82366  0.71170  0.34726  1.0000
  H   H2809     1.0  0.83368  0.76503  0.34980  1.0000
  H   H2810     1.0  0.83644  0.76585  0.29788  1.0000
  C   C1641     1.0  0.82126  0.74839  0.09192  1.0000
  C   C1642     1.0  0.82518  0.73179  0.10136  1.0000
  C   C1643     1.0  0.82743  0.71839  0.08198  1.0000
  C   C1644     1.0  0.82564  0.72131  0.05296  1.0000
  C   C1645     1.0  0.82164  0.73790  0.04351  1.0000
  C   C1646     1.0  0.81953  0.75133  0.06288  1.0000
  H   H2811     1.0  0.82657  0.72929  0.12357  1.0000
  H   H2812     1.0  0.83052  0.70562  0.08957  1.0000
  H   H2813     1.0  0.82027  0.74038  0.02130  1.0000
  H   H2814     1.0  0.81648  0.76410  0.05530  1.0000
  H   H2815     1.0  0.89259  0.84326  0.25606  1.0000
  C   C1647     1.0  0.88873  0.85141  0.17589  1.0000
  C   C1648     1.0  0.87361  0.86068  0.18247  1.0000
  C   C1649     1.0  0.85867  0.85216  0.19075  1.0000
  C   C1650     1.0  0.85848  0.83421  0.19274  1.0000
  C   C1651     1.0  0.87369  0.82495  0.18656  1.0000
  C   C1652     1.0  0.88858  0.83346  0.17803  1.0000
  H   H2816     1.0  0.87339  0.87445  0.18112  1.0000
  H   H2817     1.0  0.84710  0.85957  0.19555  1.0000
  H   H2818     1.0  0.87402  0.81121  0.18852  1.0000
  H   H2819     1.0  0.90017  0.82606  0.17331  1.0000
  C   C1653     1.0  0.91777  0.97001  0.12210  1.0000
  C   C1654     1.0  0.93072  0.96824  0.10185  1.0000
  H   H2820     1.0  0.74358  0.72191  0.07025  1.0000
  H   H2821     1.0  0.75582  0.77785  0.32121  1.0000
  H   H2822     1.0  0.93660  0.95578  0.09795  1.0000
  H   H2823     1.0  0.91047  0.86101  0.28272  1.0000
  S   S485      1.0  0.97630  0.89841  0.09878  1.0000
  H   H2824     1.0  0.73820  0.66527  0.02182  1.0000
  H   H2825     1.0  0.84319  0.66248  0.32882  1.0000
  H   H2826     1.0  0.78691  0.74510  0.01247  1.0000
  H   H2827     1.0  0.80248  0.77100  0.30147  1.0000
  C   C1655     1.0  0.73994  0.69675  0.46444  1.0000
  H   H2828     1.0  0.76032  0.69608  0.07397  1.0000
  C   C1656     1.0  0.96378  0.89548  0.04432  1.0000
  C   C1657     1.0  0.78156  0.74088  0.27498  1.0000
  H   H2829     1.0  0.79801  0.74184  0.31070  1.0000
  H   H2830     1.0  0.95474  0.89300  0.00193  1.0000
  H   H2831     1.0  0.95108  0.89610  0.05351  1.0000
  H   H2832     1.0  0.75714  0.76745  0.28921  1.0000
  H   H2833     1.0  0.79164  0.72343  0.06729  1.0000
  H   H2834     1.0  0.76804  0.74308  0.26871  1.0000
  H   H2835     1.0  0.79048  0.79468  0.33282  1.0000
  H   H2836     1.0  0.77092  0.71120  0.00394  1.0000
  H   H2837     1.0  0.85405  0.69458  0.28751  1.0000
  H   H2838     1.0  0.76041  0.69196  0.03747  1.0000
  C   C1658     1.0  0.88831  0.68449  0.35558  1.0000
  H   H2839     1.0  0.90980  0.88746  0.27268  1.0000
  C   C1659     1.0  0.93836  0.87808  0.30116  1.0000
  H   H2840     1.0  0.79473  0.80112  0.29764  1.0000
  H   H2841     1.0  0.84665  0.69140  0.33313  1.0000
  N   N118      1.0  0.85279  0.81119  0.10719  1.0000
  C   C1660     1.0  0.86164  0.82738  0.11414  1.0000
  C   C1661     1.0  0.85481  0.79909  0.13179  1.0000
  C   C1662     1.0  0.83397  0.81458  0.10206  1.0000
  C   C1663     1.0  0.86073  0.80374  0.08098  1.0000
  C   C1664     1.0  0.85994  0.84198  0.09238  1.0000
  C   C1665     1.0  0.87281  0.79069  0.13563  1.0000
  C   C1666     1.0  0.82415  0.82444  0.12530  1.0000
  C   C1667     1.0  0.85364  0.78660  0.07143  1.0000
  H   H2842     1.0  0.85699  0.83256  0.13452  1.0000
  H   H2843     1.0  0.87560  0.82485  0.11707  1.0000
  H   H2844     1.0  0.84554  0.78869  0.13091  1.0000
  H   H2845     1.0  0.85154  0.80570  0.15172  1.0000
  H   H2846     1.0  0.83182  0.82161  0.08198  1.0000
  H   H2847     1.0  0.82736  0.80234  0.09946  1.0000
  H   H2848     1.0  0.85866  0.81260  0.06292  1.0000
  H   H2849     1.0  0.87493  0.80245  0.08245  1.0000
  H   H2850     1.0  0.84644  0.84584  0.08810  1.0000
  H   H2851     1.0  0.86612  0.85336  0.10093  1.0000
  H   H2852     1.0  0.86674  0.83879  0.07255  1.0000
  H   H2853     1.0  0.87605  0.78156  0.11865  1.0000
  H   H2854     1.0  0.88288  0.80020  0.13711  1.0000
  H   H2855     1.0  0.87302  0.78326  0.15555  1.0000
  H   H2856     1.0  0.82830  0.83774  0.12711  1.0000
  H   H2857     1.0  0.82542  0.81798  0.14590  1.0000
  H   H2858     1.0  0.81030  0.82509  0.12023  1.0000
  H   H2859     1.0  0.84211  0.78871  0.05820  1.0000
  H   H2860     1.0  0.85029  0.77805  0.08901  1.0000
  H   H2861     1.0  0.86365  0.77940  0.05930  1.0000
  N   N119      1.0  0.76754  0.71758  0.04809  1.0000
  H   H2862     1.0  0.86140  0.71764  0.33486  1.0000
  H   H2863     1.0  0.88309  0.68037  0.37626  1.0000
  C   C1668     1.0  0.77479  0.74491  0.07575  1.0000
  H   H2864     1.0  0.86364  0.66252  0.31340  1.0000
  H   H2865     1.0  0.89821  0.69389  0.36050  1.0000
  H   H2866     1.0  0.93627  0.89126  0.29301  1.0000
  C   C1669     1.0  0.76737  0.69865  0.05406  1.0000
  H   H2867     1.0  0.91878  0.90354  0.25134  1.0000
  N   N120      1.0  0.87430  0.69267  0.33773  1.0000
  H   H2868     1.0  0.86717  0.72791  0.38196  1.0000
  S   S486      1.0  0.81729  0.67585  0.46710  1.0000
  H   H2869     1.0  0.95832  0.92177  0.29519  1.0000
  H   H2870     1.0  0.85479  0.70942  0.38350  1.0000
  H   H2871     1.0  0.90237  0.89102  0.23761  1.0000
  H   H2872     1.0  0.98259  0.89097  0.23141  1.0000
  H   H2873     1.0  0.97621  0.93225  0.03838  1.0000
  H   H2874     1.0  0.88360  0.71826  0.34167  1.0000
  C   C1670     1.0  0.86651  0.70087  0.28653  1.0000
  H   H2875     1.0  0.88258  0.67980  0.29936  1.0000
  H   H2876     1.0  0.86459  0.71481  0.28946  1.0000
  N   N121      1.0  0.77848  0.76142  0.31700  1.0000
  H   H2877     1.0  0.74325  0.75567  0.34544  1.0000
  H   H2878     1.0  0.78318  0.67572  0.06168  1.0000
  H   H2879     1.0  0.86147  0.65649  0.34997  1.0000
  H   H2880     1.0  0.92681  0.87364  0.31216  1.0000
  H   H2881     1.0  0.79319  0.69453  0.07273  1.0000
  H   H2882     1.0  0.78399  0.74905  0.09174  1.0000
  C   C1671     1.0  0.75282  0.68417  0.45899  1.0000
  C   C1672     1.0  0.77591  0.72007  0.01980  1.0000
  H   H2883     1.0  0.76184  0.74795  0.08441  1.0000
  C   C1673     1.0  0.98489  0.98139  0.45827  1.0000
  C   C1674     1.0  0.74418  0.78024  0.23476  1.0000
  H   H2884     1.0  0.79207  0.68935  0.03586  1.0000
  H   H2885     1.0  0.87148  0.69921  0.26482  1.0000
  C   C1675     1.0  0.78274  0.76294  0.34772  1.0000
  H   H2886     1.0  0.76712  0.74218  0.36521  1.0000
  C   C1676     1.0  0.74921  0.72428  0.04908  1.0000
  C   C1677     1.0  0.75975  0.76538  0.31187  1.0000
  H   H2887     1.0  0.78513  0.72736  0.27037  1.0000
  H   H2888     1.0  0.90645  0.67273  0.32510  1.0000
  H   H2889     1.0  0.96341  0.84663  0.20631  1.0000
  H   H2890     1.0  0.96026  0.86805  0.21818  1.0000
  C   C1678     1.0  0.86763  0.71398  0.37791  1.0000
  C   C1679     1.0  0.78640  0.79307  0.31084  1.0000
  C   C1680     1.0  0.96901  0.90718  0.26079  1.0000
  C   C1681     1.0  0.96804  0.91237  0.28893  1.0000
  H   H2891     1.0  0.74124  0.70946  0.45591  1.0000
  C   C1682     1.0  0.77771  0.72561  0.07099  1.0000
  C   C1683     1.0  0.96591  0.89370  0.01505  1.0000
  C   C1684     1.0  0.97808  0.89624  0.06166  1.0000
  C   C1685     1.0  0.73636  0.67299  0.00312  1.0000
  H   H2892     1.0  0.85430  0.68377  0.36518  1.0000
  H   H2893     1.0  0.79006  0.74865  0.26171  1.0000
  N   N122      1.0  0.93263  0.86220  0.25467  1.0000
  C   C1686     1.0  0.94165  0.84978  0.23494  1.0000
  C   C1687     1.0  0.91732  0.85337  0.26655  1.0000
  C   C1688     1.0  0.94487  0.86593  0.27799  1.0000
  C   C1689     1.0  0.92777  0.87813  0.23826  1.0000
  H   H2894     1.0  0.77313  0.79822  0.30802  1.0000
  C   C1690     1.0  0.90379  0.84852  0.24494  1.0000
  C   C1691     1.0  0.91391  0.89041  0.25110  1.0000
  H   H2895     1.0  0.94309  0.83687  0.24476  1.0000
  H   H2896     1.0  0.93396  0.84805  0.21566  1.0000
  C   C1692     1.0  0.87191  0.71104  0.34663  1.0000
  H   H2897     1.0  0.92150  0.84146  0.27784  1.0000
  H   H2898     1.0  0.94940  0.85382  0.28835  1.0000
  H   H2899     1.0  0.95650  0.87196  0.26960  1.0000
  H   H2900     1.0  0.93927  0.88561  0.23396  1.0000
  H   H2901     1.0  0.92305  0.87480  0.21711  1.0000
  C   C1693     1.0  0.78012  0.74714  0.36656  1.0000
  H   H2902     1.0  0.77793  0.73361  0.31780  1.0000
  H   H2903     1.0  0.74766  0.80591  0.22028  1.0000
  H   H2904     1.0  0.90873  0.83848  0.23051  1.0000
  C   C1694     1.0  0.85761  0.68401  0.34249  1.0000
  C   C1695     1.0  0.78506  0.68930  0.05616  1.0000
  C   C1696     1.0  0.73876  0.79709  0.22922  1.0000
  C   C1697     1.0  0.87960  0.69281  0.30724  1.0000
  H   H2905     1.0  0.76381  0.74607  0.01272  1.0000
  H   H2906     1.0  0.89175  0.69970  0.30456  1.0000
  C   C1698     1.0  0.75063  0.66766  0.46935  1.0000
  H   H2907     1.0  0.79650  0.76589  0.35031  1.0000
  C   C1699     1.0  0.95969  0.85452  0.22473  1.0000
  S   S487      1.0  0.85986  0.66229  0.41556  1.0000
  H   H2908     1.0  0.96062  0.94593  0.99106  1.0000
  C   C1700     1.0  0.97958  0.90559  0.30907  1.0000
  H   H2909     1.0  0.73639  0.75590  0.25077  1.0000
  H   H2910     1.0  0.85522  0.65218  0.47500  1.0000
  H   H2911     1.0  0.89333  0.65034  0.39787  1.0000
  H   H2912     1.0  0.78975  0.73680  0.36179  1.0000
  H   H2913     1.0  0.78222  0.75065  0.38875  1.0000
  H   H2914     1.0  0.96942  0.85182  0.24116  1.0000
  C   C1701     1.0  0.78419  0.74407  0.30644  1.0000
  C   C1702     1.0  0.73709  0.71677  0.02744  1.0000
  H   H2915     1.0  0.78501  0.77468  0.27845  1.0000
  H   H2916     1.0  0.77710  0.75261  0.05672  1.0000
  C   C1703     1.0  0.77524  0.73821  0.00700  1.0000
  C   C1704     1.0  0.89844  0.66901  0.34330  1.0000
  H   H2917     1.0  0.97989  0.94502  0.32857  1.0000
  H   H2918     1.0  0.97296  0.92685  0.99218  1.0000
  H   H2919     1.0  0.76329  0.67220  0.99190  1.0000
  H   H2920     1.0  0.75121  0.73918  0.32192  1.0000
  Fe  Fe244     1.0  0.82488  0.70214  0.48009  1.0000
  C   C1705     1.0  0.93553  0.98245  0.08569  1.0000
  H   H2921     1.0  0.97866  0.90969  0.33062  1.0000
  H   H2922     1.0  0.77506  0.71945  0.09166  1.0000
  H   H2923     1.0  0.98171  0.97053  0.44470  1.0000
  H   H2924     1.0  0.88171  0.66368  0.46375  1.0000
  C   C1706     1.0  0.98232  0.89287  0.00261  1.0000
  H   H2925     1.0  0.90747  0.66382  0.35937  1.0000
  H   H2926     1.0  0.94512  0.98076  0.06940  1.0000
  H   H2927     1.0  0.76010  0.65770  0.46461  1.0000
  C   C1707     1.0  0.98158  0.89498  0.25301  1.0000
  C   C1708     1.0  0.75062  0.67694  0.98623  1.0000
  H   H2928     1.0  0.89017  0.65851  0.33746  1.0000
  C   C1709     1.0  0.74683  0.75266  0.32343  1.0000
  Fe  Fe245     1.0  0.82337  0.70065  0.98273  1.0000
  Fe  Fe246     1.0  0.95718  0.89668  0.62761  1.0000
  S   S488      1.0  0.92918  0.89712  0.61640  1.0000
  H   H2929     1.0  0.86915  0.70449  0.51311  1.0000
  Fe  Fe247     1.0  0.94954  0.90267  0.69092  1.0000
  S   S489      1.0  0.92114  0.90404  0.68287  1.0000
  S   S490      1.0  0.95570  0.90809  0.73704  1.0000
  Fe  Fe248     1.0  0.92531  0.88099  0.65577  1.0000
  S   S491      1.0  0.91195  0.85519  0.66249  1.0000
  Fe  Fe249     1.0  0.92737  0.92008  0.64484  1.0000
  S   S492      1.0  0.91290  0.94569  0.63857  1.0000
  S   S493      1.0  0.95375  0.87909  0.66495  1.0000
  S   S494      1.0  0.95530  0.92017  0.65469  1.0000
  Fe  Fe250     1.0  0.82889  0.79662  0.70311  1.0000
  S   S495      1.0  0.84291  0.77222  0.69081  1.0000
  S   S496      1.0  0.84083  0.82325  0.70326  1.0000
  Fe  Fe251     1.0  0.79383  0.77858  0.70940  1.0000
  S   S497      1.0  0.80627  0.75365  0.69593  1.0000
  S   S498      1.0  0.76623  0.77292  0.72287  1.0000
  Fe  Fe252     1.0  0.82737  0.75990  0.72565  1.0000
  S   S499      1.0  0.83481  0.73804  0.75622  1.0000
  Fe  Fe253     1.0  0.82032  0.76805  0.66263  1.0000
  S   S500      1.0  0.82131  0.76524  0.61462  1.0000
  S   S501      1.0  0.81481  0.78454  0.73978  1.0000
  S   S502      1.0  0.80656  0.79277  0.67416  1.0000
  Fe  Fe254     1.0  0.83088  0.67460  0.93565  1.0000
  S   S503      1.0  0.84331  0.69883  0.94807  1.0000
  C   C1710     1.0  0.78371  0.68589  0.51421  1.0000
  Fe  Fe255     1.0  0.79435  0.69128  0.94448  1.0000
  S   S504      1.0  0.80483  0.71638  0.95665  1.0000
  S   S505      1.0  0.76547  0.69047  0.93797  1.0000
  Fe  Fe256     1.0  0.82348  0.71236  0.92069  1.0000
  S   S506      1.0  0.82957  0.73410  0.89017  1.0000
  H   H2930     1.0  0.95797  0.92800  0.94885  1.0000
  S   S507      1.0  0.82922  0.70376  0.52748  1.0000
  S   S508      1.0  0.81187  0.68829  0.90693  1.0000
  H   H2931     1.0  0.88105  0.69467  0.48528  1.0000
  H   H2932     1.0  0.98013  0.93664  0.80405  1.0000
  C   C1711     1.0  0.96894  0.93652  0.95068  1.0000
  H   H2933     1.0  0.78592  0.69459  0.49624  1.0000
  C   C1712     1.0  0.98410  0.88851  0.50170  1.0000
  C   C1713     1.0  0.76865  0.72774  0.50466  1.0000
  H   H2934     1.0  0.96525  0.97009  0.64940  1.0000
  H   H2935     1.0  0.78963  0.72967  0.58594  1.0000
  C   C1714     1.0  0.83200  0.73756  0.79334  1.0000
  C   C1715     1.0  0.82691  0.72245  0.80664  1.0000
  C   C1716     1.0  0.82571  0.72122  0.83617  1.0000
  C   C1717     1.0  0.82996  0.73502  0.85282  1.0000
  C   C1718     1.0  0.83488  0.75016  0.83949  1.0000
  C   C1719     1.0  0.83579  0.75148  0.81000  1.0000
  H   H2936     1.0  0.82396  0.71159  0.79398  1.0000
  H   H2937     1.0  0.82171  0.70955  0.84602  1.0000
  H   H2938     1.0  0.83821  0.76093  0.85208  1.0000
  H   H2939     1.0  0.83990  0.76314  0.80017  1.0000
  C   C1720     1.0  0.82323  0.74780  0.59100  1.0000
  C   C1721     1.0  0.82761  0.73118  0.59984  1.0000
  C   C1722     1.0  0.82943  0.71793  0.58009  1.0000
  C   C1723     1.0  0.82681  0.72106  0.55130  1.0000
  C   C1724     1.0  0.82223  0.73763  0.54249  1.0000
  C   C1725     1.0  0.82052  0.75090  0.56222  1.0000
  H   H2940     1.0  0.82978  0.72858  0.62186  1.0000
  H   H2941     1.0  0.83295  0.70517  0.58721  1.0000
  H   H2942     1.0  0.82018  0.74029  0.52047  1.0000
  H   H2943     1.0  0.81710  0.76368  0.55509  1.0000
  C   C1726     1.0  0.96886  0.88412  0.54625  1.0000
  C   C1727     1.0  0.89198  0.84673  0.67394  1.0000
  C   C1728     1.0  0.89106  0.82902  0.67881  1.0000
  C   C1729     1.0  0.87567  0.82163  0.68786  1.0000
  C   C1730     1.0  0.86079  0.83182  0.69198  1.0000
  C   C1731     1.0  0.86175  0.84954  0.68736  1.0000
  C   C1732     1.0  0.87717  0.85694  0.67844  1.0000
  H   H2944     1.0  0.90240  0.82093  0.67563  1.0000
  H   H2945     1.0  0.87535  0.80806  0.69181  1.0000
  H   H2946     1.0  0.85044  0.85765  0.69066  1.0000
  H   H2947     1.0  0.87756  0.87056  0.67494  1.0000
  C   C1733     1.0  0.92014  0.96285  0.61748  1.0000
  C   C1734     1.0  0.93354  0.96068  0.59808  1.0000
  H   H2948     1.0  0.97949  0.95897  0.79878  1.0000
  H   H2949     1.0  0.76244  0.71719  0.49405  1.0000
  H   H2950     1.0  0.93978  0.94824  0.59566  1.0000
  C   C1735     1.0  0.87956  0.65297  0.53427  1.0000
  C   C1736     1.0  0.97101  0.90012  0.76172  1.0000
  C   C1737     1.0  0.96916  0.90503  0.78990  1.0000
  C   C1738     1.0  0.97072  0.88131  0.51718  1.0000
  H   H2951     1.0  0.75675  0.76917  0.78325  1.0000
  H   H2952     1.0  0.95827  0.91308  0.79604  1.0000
  H   H2953     1.0  0.89009  0.67315  0.55992  1.0000
  H   H2954     1.0  0.85498  0.67981  0.49344  1.0000
  H   H2955     1.0  0.78048  0.73354  0.54318  1.0000
  H   H2956     1.0  0.89486  0.67745  0.83523  1.0000
  H   H2957     1.0  0.79556  0.68425  0.52668  1.0000
  H   H2958     1.0  0.85947  0.68485  0.89337  1.0000
  H   H2959     1.0  0.95866  0.87827  0.55787  1.0000
  H   H2960     1.0  0.80832  0.78210  0.80847  1.0000
  C   C1739     1.0  0.86231  0.66994  0.84682  1.0000
  H   H2961     1.0  0.94889  0.97262  0.56619  1.0000
  C   C1740     1.0  0.79984  0.78174  0.82721  1.0000
  H   H2962     1.0  0.84988  0.70125  0.87232  1.0000
  H   H2963     1.0  0.83957  0.67580  0.82061  1.0000
  N   N123      1.0  0.92341  0.86187  0.75728  1.0000
  C   C1741     1.0  0.90851  0.85692  0.73956  1.0000
  C   C1742     1.0  0.93816  0.86562  0.73789  1.0000
  C   C1743     1.0  0.91907  0.87749  0.77441  1.0000
  C   C1744     1.0  0.92789  0.84741  0.77716  1.0000
  C   C1745     1.0  0.89153  0.85408  0.75533  1.0000
  C   C1746     1.0  0.94704  0.85000  0.72386  1.0000
  C   C1747     1.0  0.91188  0.89310  0.75795  1.0000
  C   C1748     1.0  0.94354  0.84997  0.79616  1.0000
  H   H2964     1.0  0.90587  0.86657  0.72274  1.0000
  H   H2965     1.0  0.91164  0.84490  0.72816  1.0000
  H   H2966     1.0  0.94819  0.87270  0.74871  1.0000
  H   H2967     1.0  0.93389  0.87437  0.72063  1.0000
  H   H2968     1.0  0.90974  0.87462  0.79139  1.0000
  H   H2969     1.0  0.93065  0.88179  0.78545  1.0000
  H   H2970     1.0  0.91706  0.84518  0.79182  1.0000
  H   H2971     1.0  0.92954  0.83503  0.76607  1.0000
  H   H2972     1.0  0.88685  0.86552  0.76690  1.0000
  H   H2973     1.0  0.88153  0.85127  0.73980  1.0000
  H   H2974     1.0  0.89245  0.84290  0.76965  1.0000
  H   H2975     1.0  0.95761  0.85440  0.71025  1.0000
  H   H2976     1.0  0.95305  0.84108  0.73931  1.0000
  H   H2977     1.0  0.93817  0.84318  0.71025  1.0000
  H   H2978     1.0  0.90958  0.90385  0.77264  1.0000
  H   H2979     1.0  0.89952  0.89070  0.74777  1.0000
  H   H2980     1.0  0.92115  0.89746  0.74210  1.0000
  H   H2981     1.0  0.93954  0.85620  0.81609  1.0000
  H   H2982     1.0  0.95358  0.85764  0.78631  1.0000
  H   H2983     1.0  0.94986  0.83739  0.80098  1.0000
  N   N124      1.0  0.77752  0.76075  0.81020  1.0000
  C   C1749     1.0  0.78861  0.75698  0.78480  1.0000
  C   C1750     1.0  0.78114  0.77865  0.81911  1.0000
  C   C1751     1.0  0.98136  0.89985  0.81017  1.0000
  C   C1752     1.0  0.78164  0.74745  0.83244  1.0000
  C   C1753     1.0  0.78594  0.73984  0.77011  1.0000
  C   C1754     1.0  0.89463  0.67074  0.87910  1.0000
  H   H2984     1.0  0.78159  0.65782  0.95158  1.0000
  C   C1755     1.0  0.77736  0.75215  0.86322  1.0000
  H   H2985     1.0  0.78691  0.76723  0.76877  1.0000
  H   H2986     1.0  0.80236  0.75691  0.79024  1.0000
  H   H2987     1.0  0.94402  0.97709  0.65688  1.0000
  S   S509      1.0  0.98036  0.89571  0.59762  1.0000
  H   H2988     1.0  0.79215  0.71811  0.52429  1.0000
  C   C1756     1.0  0.93865  0.97454  0.58134  1.0000
  H   H2989     1.0  0.77517  0.73540  0.82777  1.0000
  H   H2990     1.0  0.79560  0.74407  0.83206  1.0000
  H   H2991     1.0  0.78674  0.72885  0.78481  1.0000
  H   H2992     1.0  0.77374  0.74000  0.75838  1.0000
  H   H2993     1.0  0.79626  0.73778  0.75423  1.0000
  H   H2994     1.0  0.75469  0.72744  0.56920  1.0000
  C   C1757     1.0  0.84280  0.67064  0.84170  1.0000
  H   H2995     1.0  0.83810  0.65745  0.84260  1.0000
  H   H2996     1.0  0.80049  0.79441  0.83727  1.0000
  H   H2997     1.0  0.90854  0.67162  0.88316  1.0000
  H   H2998     1.0  0.87153  0.72219  0.80613  1.0000
  H   H2999     1.0  0.77229  0.74079  0.87413  1.0000
  H   H3000     1.0  0.76771  0.76260  0.86611  1.0000
  H   H3001     1.0  0.78921  0.75510  0.87467  1.0000
  N   N125      1.0  0.85235  0.81253  0.60483  1.0000
  C   C1758     1.0  0.83898  0.81212  0.62773  1.0000
  C   C1759     1.0  0.86176  0.79539  0.60448  1.0000
  C   C1760     1.0  0.84433  0.81578  0.57662  1.0000
  C   C1761     1.0  0.86421  0.82677  0.61064  1.0000
  C   C1762     1.0  0.82702  0.82811  0.63026  1.0000
  C   C1763     1.0  0.87415  0.79173  0.62898  1.0000
  C   C1764     1.0  0.83044  0.80334  0.56829  1.0000
  C   C1765     1.0  0.87950  0.82854  0.59025  1.0000
  H   H3002     1.0  0.83081  0.80090  0.62560  1.0000
  H   H3003     1.0  0.84513  0.81030  0.64846  1.0000
  H   H3004     1.0  0.86907  0.79342  0.58462  1.0000
  H   H3005     1.0  0.85255  0.78488  0.60492  1.0000
  H   H3006     1.0  0.83867  0.82897  0.57512  1.0000
  H   H3007     1.0  0.85428  0.81513  0.55980  1.0000
  H   H3008     1.0  0.85716  0.83933  0.60986  1.0000
  H   H3009     1.0  0.86907  0.82615  0.63240  1.0000
  H   H3010     1.0  0.81966  0.83083  0.61090  1.0000
  H   H3011     1.0  0.81753  0.82590  0.64722  1.0000
  H   H3012     1.0  0.83403  0.83946  0.63660  1.0000
  H   H3013     1.0  0.87977  0.77860  0.62687  1.0000
  H   H3014     1.0  0.88495  0.80051  0.62891  1.0000
  H   H3015     1.0  0.86747  0.79224  0.64951  1.0000
  H   H3016     1.0  0.83551  0.78997  0.56747  1.0000
  H   H3017     1.0  0.82578  0.80674  0.54697  1.0000
  H   H3018     1.0  0.81917  0.80410  0.58254  1.0000
  H   H3019     1.0  0.87604  0.83726  0.57255  1.0000
  H   H3020     1.0  0.88439  0.81629  0.58160  1.0000
  H   H3021     1.0  0.89042  0.83384  0.60172  1.0000
  H   H3022     1.0  0.79377  0.71315  0.61090  1.0000
  H   H3023     1.0  0.76508  0.68140  0.54624  1.0000
  S   S510      1.0  0.84522  0.65204  0.91387  1.0000
  H   H3024     1.0  0.80494  0.77210  0.84232  1.0000
  C   C1766     1.0  0.86498  0.67739  0.50965  1.0000
  C   C1767     1.0  0.78264  0.70385  0.57261  1.0000
  H   H3025     1.0  0.85353  0.69959  0.82207  1.0000
  H   H3026     1.0  0.96549  0.94853  0.93933  1.0000
  H   H3027     1.0  0.96181  0.87336  0.50665  1.0000
  H   H3028     1.0  0.86849  0.66326  0.82865  1.0000
  H   H3029     1.0  0.77770  0.78790  0.80198  1.0000
  H   H3030     1.0  0.83566  0.67796  0.85801  1.0000
  H   H3031     1.0  0.85812  0.67855  0.53013  1.0000
  C   C1768     1.0  0.75912  0.76013  0.80106  1.0000
  C   C1769     1.0  0.88945  0.68307  0.85492  1.0000
  H   H3032     1.0  0.97976  0.90378  0.83172  1.0000
  H   H3033     1.0  0.86720  0.72388  0.84253  1.0000
  H   H3034     1.0  0.89684  0.66934  0.48861  1.0000
  C   C1770     1.0  0.78446  0.71782  0.59485  1.0000
  C   C1771     1.0  0.89470  0.66203  0.54735  1.0000
  C   C1772     1.0  0.98060  0.89390  0.56039  1.0000
  S   S511      1.0  0.81204  0.67538  0.97191  1.0000
  N   N126      1.0  0.87048  0.68679  0.85187  1.0000
  H   H3035     1.0  0.97489  0.95230  0.84674  1.0000
  H   H3036     1.0  0.74520  0.75413  0.83997  1.0000
  C   C1773     1.0  0.74524  0.78213  0.72734  1.0000
  C   C1774     1.0  0.75360  0.71491  0.55873  1.0000
  H   H3037     1.0  0.89249  0.65729  0.87346  1.0000
  C   C1775     1.0  0.86741  0.69776  0.82616  1.0000
  H   H3038     1.0  0.87907  0.70215  0.91221  1.0000
  C   C1776     1.0  0.86242  0.69489  0.87759  1.0000
  N   N127      1.0  0.87319  0.65975  0.50648  1.0000
  H   H3039     1.0  0.86917  0.65381  0.55030  1.0000
  C   C1777     1.0  0.76829  0.69218  0.53205  1.0000
  H   H3040     1.0  0.89665  0.69480  0.85770  1.0000
  C   C1778     1.0  0.91211  0.97912  0.62014  1.0000
  H   H3041     1.0  0.77308  0.78287  0.83706  1.0000
  H   H3042     1.0  0.75076  0.80723  0.71210  1.0000
  H   H3043     1.0  0.87292  0.69137  0.80720  1.0000
  N   N128      1.0  0.77081  0.70820  0.54853  1.0000
  C   C1779     1.0  0.74833  0.68661  0.96168  1.0000
  C   C1780     1.0  0.87415  0.71593  0.82674  1.0000
  H   H3044     1.0  0.86427  0.71834  0.90131  1.0000
  H   H3045     1.0  0.88771  0.67368  0.89893  1.0000
  H   H3046     1.0  0.75126  0.69967  0.59784  1.0000
  H   H3047     1.0  0.77229  0.72081  0.60610  1.0000
  H   H3048     1.0  0.80484  0.65222  0.91819  1.0000
  H   H3049     1.0  0.77868  0.69212  0.58384  1.0000
  H   H3050     1.0  0.75880  0.73774  0.51008  1.0000
  H   H3051     1.0  0.88283  0.71446  0.88064  1.0000
  H   H3052     1.0  0.88816  0.71612  0.82994  1.0000
  H   H3053     1.0  0.97494  0.94524  0.75504  1.0000
  H   H3054     1.0  0.75706  0.69360  0.51794  1.0000
  H   H3055     1.0  0.88781  0.69173  0.52136  1.0000
  H   H3056     1.0  0.86426  0.66122  0.86506  1.0000
  C   C1781     1.0  0.87307  0.70804  0.89328  1.0000
  C   C1782     1.0  0.77882  0.72180  0.53080  1.0000
  H   H3057     1.0  0.79581  0.70071  0.56473  1.0000
  H   H3058     1.0  0.77694  0.66202  0.90184  1.0000
  H   H3059     1.0  0.75620  0.74729  0.79316  1.0000
  H   H3060     1.0  0.90431  0.66616  0.53187  1.0000
  C   C1783     1.0  0.87668  0.69275  0.50725  1.0000
  C   C1784     1.0  0.74102  0.79913  0.72051  1.0000
  H   H3061     1.0  0.90183  0.65292  0.56132  1.0000
  H   H3062     1.0  0.74622  0.77694  0.83247  1.0000
  H   H3063     1.0  0.90165  0.98090  0.63490  1.0000
  H   H3064     1.0  0.83701  0.65983  0.51854  1.0000
  C   C1785     1.0  0.74526  0.76409  0.82337  1.0000
  C   C1786     1.0  0.95667  0.98169  0.65000  1.0000
  C   C1787     1.0  0.97460  0.97815  0.97170  1.0000
  H   H3065     1.0  0.98000  0.93000  0.94027  1.0000
  H   H3066     1.0  0.77758  0.73299  0.48886  1.0000
  H   H3067     1.0  0.74894  0.65716  0.92504  1.0000
  H   H3068     1.0  0.96213  0.97253  0.97647  1.0000
  H   H3069     1.0  0.74041  0.69107  0.56792  1.0000
  H   H3070     1.0  0.74677  0.65748  0.88814  1.0000
  H   H3071     1.0  0.78095  0.67327  0.50525  1.0000
  H   H3072     1.0  0.74488  0.71755  0.54071  1.0000
  S   S512      1.0  0.98411  0.89115  0.96540  1.0000
  C   C1788     1.0  0.74394  0.70292  0.57863  1.0000
  C   C1789     1.0  0.88715  0.65976  0.48442  1.0000
  C   C1790     1.0  0.75259  0.65006  0.90580  1.0000
  C   C1791     1.0  0.98501  0.88951  0.75415  1.0000
  C   C1792     1.0  0.97233  0.93963  0.98195  1.0000
