data_image0
_chemical_formula_structural       FeCFeHSHS2FeHSFeC2SHC2H2CHC3NH3CHSH2SCH12C2H3SH3C2H3CH3CHNH5FeH3CH7SHC2H4CHC2HCHCH5C4HC2H3CNCH2CH7C4H2SH3C2H2CH3FeH4CHSH2CHCFeS2FeS2FeSFeS3FeS2FeSHFeSFeS3C6H4C6HCH2C7H5C4H4CH2C3HCH2CNH5CH7SH2SHC4H6NH3CHCH2FeH3CH3CSNC2H2SCHSHCH2CNHC2FeH2C2HCH2CHC2H2NC8H17CH7CNCH3C4H13CHCH3CH6CH11CSHC2H2C2HCHC2HC3HCFeS2FeS2FeSFeS3FeS2FeS2FeSFeS3FeSHFeS2FeSFeHS2FeS2FeS2FeSCS3HC6H4CH4C6H4C6H4C6H4C6H4C6H8CHCH8CHCH3C3H3C3H3CH2C3H5FeCH6CHSCHN2C4HC2H8CH2CH3CNC8H20CH4SH2CH2C2H7CH3NC2HC4H2CHCHCHCHCH2NHCHCHSH2CH5C2H2CH2CH4CH4CH2NC2H5FeSFeCHCS2FeH3SHSHC3SH2FeH8C4H3CHNCHCH2CHC2FeH2CH3C2H2CH6CHCH3CH3SCSC2H2CH3FeH2C2H4CH3C2H2CH3CH4C2H10SH2SHCHCHC2H4FeS2FeS2FeSFeS3FeS2FeS2FeSFeS3C6H4C6H4C6H6C4H4C4H4CH7SC2SHCNH6CH2CHNH3C2HC2HCH2CH3CH2FeC2HNH2CHCH4CHCHNC8H21CHC2FeH6CHCH2C5H2SCH2NH3CSCSH5C2H5CH8CHSH2C2HCFeSCFeS2FeSFeS3FeS2FeS2FeSFeS3FeSHFeS2FeSFeHSHFeS2FeSHFeSNS3C7H3C3NHNC6H4C6H4C6H4C6H4C6H5CH5CNH2CNCH2C3H10CH3C2H2CHC2HCHCH6CHCH3CHCH3CSH2CH3CH5CHCNCHNH3FeC2NCH4CH2C2H6C3HCH2C2H12C4H3CH2C2HCHC3HCH5CHCH2NCH3C4SH2SHSH4CH7C2H4CHCH4CH7CHFeS2FeSCFeSFeS3FeS2FeS2FeSFeS3FeS2FeSHFeSFeS3FeSHFeS2FeSFeS3CH4C6H4C6H4C6H4C6H4C6H4C6H5CNH5CHC2H3SH6CHC2HCH4NC2H2CH4CHNC2HCHNC8H21C2HCHC2H3CHCHCH6CH4SHC2HCH5C3H4CH5C2H6CH3NSH4C2HCHCH3CH3CHSFeSH2SFeSH2FeS2FeS2FeCFeSHSFeS2FeSHFeSFeS3CH2NHC6SH3C6H2CHC6H4C7H3C6H2CHC2H2FeH2CH9C4H3CH2CHCH2CHCH4C2NHCHC2HC2H9C2H17C2H5CHC2FeHCH3SH3C2H3CH2NHNSHC2H3CH2CHCH2C3HNH2CH3C2H2CHCH4CH2SH4CH5SH2CHSCH2NHCH5CH3SCHFeCSH3SFeHSH3SHCHCH2NSH2CHC3HCH2C2H4SH5FeC2H8C2H2NH3SHCH7FeHC2HCH4CSCNC8H3CH2CH4CHNHCH5C2H4CH3CHC2HCH2CHCH2CHCH3C2H2FeS2FeS2FeSFeS3FeS2FeS2FeSFeS3FeS2FeSCFeSFeS3FeSCFeS2FeSFeS3C2H3C6H4C6H4C7NH2C6H4C6H4C7H3CNC4H3C2HCH7NHCH2CH15C4H3C2H2CH7CHNH3C4HCHCH4CHCH5CNC8H16CH5NCHNCH5SH5C2HC5HCH2C2H5CHCH8C2H5C2H2C2SC2HCNH5CH7CH3CH4C3H2CH7C2H2CH7CHC3H2CH6NH4NSCHCFeSH2FeS2FeS2FeHFeSCSFeS2FeSHFeSFeS3H5C6NH3C6H2C8H3C7H2CHC6H3FeH4C2H2CH2CHCHCHC2SH23CHCHCH6CH9SCHNCH4CH6C2H2NH2CHSHCH2C3HCH8SCH4SC2H3CHC3H2CH6CHNH2C4H2SHSH3CHC2H2FeCSH2S2FeHSHFeHSHCH3C3HCSH2FeHCH2C2H3SH3CH5CHC3FeH2SH4C3HCH2C2H4CNH2SH4CH4CHC2H2SC2HC3H4CH4CH2Fe2SFeHSHS2FeCHFeHS3CH3CH2C4SH6CSH9NH2C3H7CH3FeH2C4H4NCH3CHCHCHCH4CH3C3HC2H4C5HC2H4CH2CHCH6C2H2FeH2S2H3SFeS2FeS2FeHFeSCSFeS2FeS2FeSFeS3H2CH7C8H2C6H2C8SCH2C6H4C6H2C2H2CNHCH5SCHC2H4CH3C2HCH3C2H8C3H2CHCH4CHCH2CH2FeH2NCH7NH12CH2CH4CH2C2NSHC2HNCH3CH2CH11C2HCH2CH3CHC2H3CHSHCH4CHCHFeC2HCH2CH2CH4SC3H2NH4SCFeS2FeS2FeHFeS3FeS2FeS2FeSFeHS2FeS2FeS2FeSFeS3FeS2FeSCFeSFeS3HC2HC6H4C6H4C6H4CH2NC7H4C6H4C6HCH3CH4SHCH10CHC2HCH3C2HNC4HC3H8CHCH9NHC2H2C3HCH6CH9NHCH2CH2CH5NH2CHC2H5CH2NC8H22CH2C4H6CH5CHC2HCSCH7CSCHNCHCH4C2HCH6C2HCH3CHC3HFeSFe2SHS2FeHSH3SH2CH4C4H5FeC2H2SH10FeH4C2H2CHNH2CHCHCHC2SH2CH2SCHCH2SCHSH3C2HSNC8H8C2H2CH5C2H2CHCNCHCHSCHCHSFeS2FeS2FeCFeSHSFeSHFeS2FeHFeS3HC2H3CHCHC6H5C4H4C7H4C6H4C6H4CHCHFeHC2H4SH3CH3C2H2CH3CH4CH4CHCH2CH6SHCH2CSCH4NCHNC2FeCH3CH10C2H3CHCH4C2HCH2NC2NH4C2HCH4CH7CHCSH4SHC2H5CHC2H2SCH2NC2NH2C3NH4FeS2FeS2FeHFeS3FeSCFeS2FeSFeCSHFeS2FeS2FeSFeNS2FeS2FeS2FeSFeS3H4C6H4C6H4C6H4CNCH2C6H4C6H4C6H6CSHCHCH2NH2NCHC3HC2H3CH18NC8H20CSH8CH2SCNHNHCH2CH3CSCHCH3CHCHCHCHC2H4CHCH4CHCH5C2H4CH2CH3SCH2C2H5CHCHCNHC2HC2HCH2C3HCH2CHCH3CH2CHC2HCH2NHC2H11CH3CH2FeSHFeS2FeHFeS3FeS2FeS2FeSFeHS2FeS2FeS2FeSFeS3FeS2FeS2FeSFeS3H10C6H5C6H4C6H7C6H4C6H4C6H4NHC6HCH2CNHCNH6NC8H8SH9CH4CHCH3SHCNCH3NH8CH4C2H5CH2NC5HC2H3CH3CH4C2H2CHSH7CH2C2HCH3CH6CH5NC8H9C2H5C2HC2HCH4C2H7CHCHC4HCHNH5C2NHCH2C2HFeS3FeHCHFeS2FeS2FeSFeS3FeS2FeS2FeSFeS3HCH3C6H4C6H4C6H4C6H4C6H5CHCH4SC3H2C2HCH3NCHCHCFeCNCNHCH3CH7CH9C2H7SCH5CH7CH2SNH2C3H2SH2CFeH2CH3CH3CH2CH2CH5CH3NHC2HC2H7CH3CHCH3SH3FeSHFeCSHSHSHCHCHC2HCHCHCHC2H3C2H3CH5C2HCNC2H2CHC3H2CHCH3CHCH5CHNCHNHCHCHSH5SHCH5CHNH2CH2FeCSH3CHC3H7C2HC3H2FeHCH3FeSCFeS2FeCFeS3FeSHFeS2FeSFeCS2FeS2FeS2FeSFeS3FeS2FeS2FeSFeS3C4H2CH2C7H5C6H3C7H5SHC6H4C6NH3C7H4NH3CH6CSCH4NHCSCH6C2H3NC8H20CH2CH2CH2CHCH2C4H5CH5CH7NC3H4CH10CHCH7CHCH4NC8H7CHCH5SH9C2HCHC3H2CHCH6NH3CHCH5NC3H3SCFeS3FeH2SFeS2FeS2FeSFeS3FeS2FeS2FeSFeS3C2H3C6H4C6H4C6H4C6H3SC6H4CHC5H6NH2CFeSHNCH3NC8H9CH4CH5CH3SH3CH3CH2CH4C2NHCH4CH3SHCHCHCH5CH6CH4C2FeCH2FeH3CH6C2H4CHCH2CHCH2C2H2C2H2SC2H2NH2C2H5NH2CHC2H2CH3CH6CH3CSH2C3SH2SFeHCFeCHC3SHCSH3C2H9CH3CHC2HNHC2H2C3H2FeC2SC3HCH7C2H9SH9CH5CH4CH7C2H3
_chemical_formula_sum              "Fe256 C1792 H3072 S512 N128"
_cell_length_a       85.7622
_cell_length_b       45.6607
_cell_length_c       63.9038
_cell_angle_alpha    89.8091
_cell_angle_beta     88.8195
_cell_angle_gamma    90.3689

_space_group_name_H-M_alt    "P 1"
_space_group_IT_number       1

loop_
  _space_group_symop_operation_xyz
  'x, y, z'

loop_
  _atom_site_type_symbol
  _atom_site_label
  _atom_site_symmetry_multiplicity
  _atom_site_fract_x
  _atom_site_fract_y
  _atom_site_fract_z
  _atom_site_occupancy
  Fe  Fe1       1.0  0.08495  0.05803  0.30426  1.0000
  C   C1        1.0  0.13806  0.45426  0.29516  1.0000
  Fe  Fe2       1.0  0.05247  0.05824  0.28335  1.0000
  H   H1        1.0  0.03520  0.11185  0.21749  1.0000
  S   S1        1.0  0.04269  0.07478  0.25210  1.0000
  H   H2        1.0  0.06259  0.39401  0.32922  1.0000
  S   S2        1.0  0.06591  0.09133  0.30182  1.0000
  S   S3        1.0  0.07254  0.02627  0.28351  1.0000
  Fe  Fe3       1.0  0.22770  0.02536  0.30293  1.0000
  H   H3        1.0  0.09609  0.41380  0.29108  1.0000
  S   S4        1.0  0.24271  0.02430  0.27285  1.0000
  Fe  Fe4       1.0  0.06177  0.00803  0.31359  1.0000
  C   C2        1.0  0.20883  0.11574  0.02899  1.0000
  C   C3        1.0  0.18284  0.04235  0.25955  1.0000
  S   S5        1.0  0.20715  0.05589  0.30245  1.0000
  H   H4        1.0  0.01895  0.16739  0.06855  1.0000
  C   C4        1.0  0.12630  0.05569  0.30550  1.0000
  C   C5        1.0  0.12535  0.02533  0.30820  1.0000
  H   H5        1.0  0.03580  0.99787  0.20811  1.0000
  H   H6        1.0  0.19140  0.08121  0.02807  1.0000
  C   C6        1.0  0.15464  0.05316  0.30882  1.0000
  H   H7        1.0  0.11104  0.47311  0.00547  1.0000
  C   C7        1.0  0.21337  0.00427  0.21000  1.0000
  C   C8        1.0  0.25015  0.47216  0.23970  1.0000
  C   C9        1.0  0.14099  0.06951  0.30577  1.0000
  N   N1        1.0  0.10960  0.44449  0.30912  1.0000
  H   H8        1.0  0.22470  0.03118  0.00824  1.0000
  H   H9        1.0  0.18070  0.99848  0.22245  1.0000
  H   H10       1.0  0.10617  0.46711  0.26675  1.0000
  C   C10       1.0  0.02987  0.48081  0.00344  1.0000
  H   H11       1.0  0.21115  0.04785  0.02600  1.0000
  S   S6        1.0  0.04074  0.03776  0.31189  1.0000
  H   H12       1.0  0.18388  0.06655  0.26080  1.0000
  H   H13       1.0  0.25811  0.37589  0.28721  1.0000
  S   S7        1.0  0.20791  0.49023  0.32037  1.0000
  C   C11       1.0  0.02021  0.21026  0.08406  1.0000
  H   H14       1.0  0.12633  0.47521  0.32119  1.0000
  H   H15       1.0  0.03044  0.22053  0.09168  1.0000
  H   H16       1.0  0.02177  0.09381  0.17404  1.0000
  H   H17       1.0  0.24417  0.45100  0.30288  1.0000
  H   H18       1.0  0.11352  0.42471  0.27842  1.0000
  H   H19       1.0  0.03077  0.19545  0.29317  1.0000
  H   H20       1.0  0.22371  0.99976  0.24014  1.0000
  H   H21       1.0  0.18575  0.11470  0.01750  1.0000
  H   H22       1.0  0.21205  0.99630  0.27392  1.0000
  H   H23       1.0  0.02515  0.14063  0.26703  1.0000
  H   H24       1.0  0.09009  0.49391  0.02558  1.0000
  H   H25       1.0  0.20448  0.02545  0.00433  1.0000
  C   C12       1.0  0.23706  0.41870  0.28089  1.0000
  C   C13       1.0  0.10603  0.48316  0.27968  1.0000
  H   H26       1.0  0.02212  0.04696  0.15311  1.0000
  H   H27       1.0  0.08449  0.14332  0.31810  1.0000
  H   H28       1.0  0.05701  0.19232  0.32684  1.0000
  S   S8        1.0  0.10948  0.07714  0.30160  1.0000
  H   H29       1.0  0.20264  0.99911  0.20135  1.0000
  H   H30       1.0  0.19630  0.04084  0.23154  1.0000
  H   H31       1.0  0.08798  0.46364  0.29906  1.0000
  C   C14       1.0  0.11651  0.39068  0.30104  1.0000
  C   C15       1.0  0.02291  0.17686  0.08355  1.0000
  H   H32       1.0  0.03047  0.06300  0.19756  1.0000
  H   H33       1.0  0.09783  0.16802  0.30570  1.0000
  H   H34       1.0  0.13114  0.43825  0.32557  1.0000
  C   C16       1.0  0.25265  0.99571  0.25921  1.0000
  H   H35       1.0  0.18323  0.05166  0.99985  1.0000
  H   H36       1.0  0.11706  0.37528  0.28762  1.0000
  H   H37       1.0  0.24545  0.42412  0.26804  1.0000
  C   C17       1.0  0.10856  0.41922  0.29405  1.0000
  H   H38       1.0  0.20780  0.04034  0.25437  1.0000
  N   N2        1.0  0.25874  0.41308  0.30825  1.0000
  H   H39       1.0  0.01629  0.08882  0.30919  1.0000
  H   H40       1.0  0.02207  0.11437  0.32848  1.0000
  H   H41       1.0  0.02148  0.21773  0.06752  1.0000
  H   H42       1.0  0.03558  0.17249  0.08486  1.0000
  H   H43       1.0  0.02741  0.21417  0.32483  1.0000
  Fe  Fe5       1.0  0.05552  0.06945  0.33019  1.0000
  H   H44       1.0  0.20706  0.11306  0.04617  1.0000
  H   H45       1.0  0.01702  0.26134  0.10204  1.0000
  H   H46       1.0  0.25626  0.21138  0.15334  1.0000
  C   C18       1.0  0.02843  0.17146  0.29349  1.0000
  H   H47       1.0  0.01512  0.24193  0.13448  1.0000
  H   H48       1.0  0.01523  0.46050  0.02757  1.0000
  H   H49       1.0  0.23382  0.37092  0.31230  1.0000
  H   H50       1.0  0.03920  0.03737  0.18023  1.0000
  H   H51       1.0  0.02840  0.17825  0.25939  1.0000
  H   H52       1.0  0.10964  0.37947  0.31365  1.0000
  H   H53       1.0  0.14650  0.43603  0.29642  1.0000
  S   S9        1.0  0.17058  0.00116  0.31421  1.0000
  H   H54       1.0  0.11411  0.01444  0.30798  1.0000
  C   C19       1.0  0.03490  0.02156  0.21162  1.0000
  C   C20       1.0  0.10171  0.43465  0.32935  1.0000
  H   H55       1.0  0.04393  0.15546  0.26868  1.0000
  H   H56       1.0  0.16522  0.09348  0.00227  1.0000
  H   H57       1.0  0.26372  0.14985  0.16627  1.0000
  H   H58       1.0  0.12861  0.39445  0.30620  1.0000
  C   C21       1.0  0.19715  0.03069  0.24728  1.0000
  H   H59       1.0  0.22431  0.08122  0.99863  1.0000
  C   C22       1.0  0.02439  0.10735  0.22595  1.0000
  C   C23       1.0  0.10046  0.46997  0.30076  1.0000
  H   H60       1.0  0.03190  0.11343  0.30302  1.0000
  C   C24       1.0  0.02050  0.11163  0.31143  1.0000
  H   H61       1.0  0.03794  0.16279  0.30322  1.0000
  C   C25       1.0  0.02463  0.08995  0.24419  1.0000
  H   H62       1.0  0.02711  0.02502  0.22545  1.0000
  H   H63       1.0  0.14184  0.09297  0.30357  1.0000
  H   H64       1.0  0.17186  0.03783  0.25124  1.0000
  H   H65       1.0  0.14513  0.47472  0.29612  1.0000
  H   H66       1.0  0.26432  0.02592  0.23803  1.0000
  C   C26       1.0  0.26253  0.00311  0.24210  1.0000
  C   C27       1.0  0.25870  0.38056  0.30428  1.0000
  C   C28       1.0  0.01600  0.46760  0.01141  1.0000
  C   C29       1.0  0.03140  0.16097  0.27087  1.0000
  H   H67       1.0  0.18196  0.03390  0.27577  1.0000
  C   C30       1.0  0.12616  0.45333  0.31374  1.0000
  C   C31       1.0  0.26457  0.46179  0.23168  1.0000
  H   H68       1.0  0.26334  0.05344  0.01158  1.0000
  H   H69       1.0  0.08986  0.42569  0.32632  1.0000
  H   H70       1.0  0.02651  0.21018  0.12643  1.0000
  C   C32       1.0  0.19572  0.09925  0.01766  1.0000
  N   N3        1.0  0.19866  0.99786  0.24572  1.0000
  C   C33       1.0  0.01481  0.21803  0.13139  1.0000
  H   H71       1.0  0.04670  0.02899  0.21630  1.0000
  H   H72       1.0  0.20865  0.13949  0.02520  1.0000
  C   C34       1.0  0.24336  0.42664  0.30263  1.0000
  H   H73       1.0  0.23956  0.46743  0.23138  1.0000
  H   H74       1.0  0.01741  0.16460  0.09670  1.0000
  H   H75       1.0  0.11228  0.13087  0.32423  1.0000
  H   H76       1.0  0.16588  0.06403  0.30900  1.0000
  H   H77       1.0  0.25580  0.22200  0.18971  1.0000
  H   H78       1.0  0.13307  0.45400  0.27939  1.0000
  H   H79       1.0  0.22063  0.10706  0.02582  1.0000
  C   C35       1.0  0.24565  0.36285  0.31567  1.0000
  C   C36       1.0  0.21313  0.04200  0.00936  1.0000
  C   C37       1.0  0.15370  0.02275  0.31129  1.0000
  C   C38       1.0  0.02987  0.03979  0.19251  1.0000
  H   H80       1.0  0.24615  0.33973  0.31034  1.0000
  H   H81       1.0  0.23363  0.39533  0.27983  1.0000
  S   S10       1.0  0.06022  0.45635  0.32534  1.0000
  H   H82       1.0  0.23411  0.42097  0.31441  1.0000
  H   H83       1.0  0.22642  0.43180  0.27808  1.0000
  H   H84       1.0  0.03964  0.48390  0.01366  1.0000
  C   C39       1.0  0.24928  0.48832  0.25844  1.0000
  C   C40       1.0  0.09329  0.16049  0.32123  1.0000
  H   H85       1.0  0.08767  0.17962  0.32879  1.0000
  H   H86       1.0  0.05483  0.13815  0.32603  1.0000
  C   C41       1.0  0.13902  0.00892  0.31090  1.0000
  H   H87       1.0  0.25890  0.23480  0.12101  1.0000
  H   H88       1.0  0.10053  0.48863  0.31185  1.0000
  H   H89       1.0  0.21555  0.02825  0.21003  1.0000
  Fe  Fe6       1.0  0.19423  0.02120  0.32087  1.0000
  H   H90       1.0  0.06644  0.99715  0.00720  1.0000
  H   H91       1.0  0.08257  0.49174  0.99985  1.0000
  H   H92       1.0  0.22332  0.99449  0.20113  1.0000
  H   H93       1.0  0.13811  0.47525  0.99748  1.0000
  C   C42       1.0  0.25936  0.36545  0.48373  1.0000
  H   H94       1.0  0.14368  0.22388  0.40643  1.0000
  S   S11       1.0  0.04724  0.09549  0.35840  1.0000
  H   H95       1.0  0.02971  0.49143  0.59694  1.0000
  H   H96       1.0  0.11634  0.12829  0.38357  1.0000
  C   C43       1.0  0.26064  0.10694  0.35673  1.0000
  H   H97       1.0  0.11105  0.46904  0.35026  1.0000
  C   C44       1.0  0.12666  0.10291  0.35846  1.0000
  Fe  Fe7       1.0  0.05963  0.26872  0.43563  1.0000
  S   S12       1.0  0.04541  0.28655  0.40930  1.0000
  S   S13       1.0  0.05043  0.25845  0.46890  1.0000
  Fe  Fe8       1.0  0.09060  0.27625  0.41038  1.0000
  S   S14       1.0  0.07838  0.29487  0.38260  1.0000
  S   S15       1.0  0.11636  0.26640  0.40460  1.0000
  Fe  Fe9       1.0  0.06419  0.32119  0.40551  1.0000
  S   S16       1.0  0.05879  0.37028  0.40473  1.0000
  Fe  Fe10      1.0  0.06087  0.25877  0.38853  1.0000
  S   S17       1.0  0.05344  0.23393  0.35970  1.0000
  S   S18       1.0  0.07766  0.30506  0.43319  1.0000
  S   S19       1.0  0.07383  0.23845  0.41498  1.0000
  Fe  Fe11      1.0  0.20007  0.30702  0.43671  1.0000
  S   S20       1.0  0.20398  0.28799  0.40486  1.0000
  S   S21       1.0  0.17587  0.32012  0.44841  1.0000
  Fe  Fe12      1.0  0.23513  0.30466  0.44740  1.0000
  S   S22       1.0  0.24128  0.28524  0.41575  1.0000
  H   H98       1.0  0.21872  0.44227  0.34357  1.0000
  Fe  Fe13      1.0  0.22457  0.31878  0.40324  1.0000
  S   S23       1.0  0.22673  0.34470  0.37299  1.0000
  Fe  Fe14      1.0  0.22007  0.25616  0.42011  1.0000
  S   S24       1.0  0.21754  0.20623  0.41765  1.0000
  S   S25       1.0  0.21975  0.33991  0.43438  1.0000
  S   S26       1.0  0.21487  0.27346  0.45252  1.0000
  C   C45       1.0  0.13219  0.28502  0.41602  1.0000
  C   C46       1.0  0.14685  0.28387  0.40588  1.0000
  C   C47       1.0  0.16022  0.29488  0.41554  1.0000
  C   C48       1.0  0.15909  0.30734  0.43546  1.0000
  C   C49       1.0  0.14433  0.30964  0.44527  1.0000
  C   C50       1.0  0.13091  0.29845  0.43562  1.0000
  H   H99       1.0  0.14791  0.27389  0.39059  1.0000
  H   H100      1.0  0.17138  0.29357  0.40757  1.0000
  H   H101      1.0  0.14332  0.31947  0.46062  1.0000
  H   H102      1.0  0.11968  0.29940  0.44362  1.0000
  C   C51       1.0  0.21597  0.14574  0.35999  1.0000
  C   C52       1.0  0.21162  0.13539  0.37992  1.0000
  C   C53       1.0  0.21218  0.15421  0.39736  1.0000
  C   C54       1.0  0.21665  0.18379  0.39503  1.0000
  C   C55       1.0  0.22046  0.19440  0.37502  1.0000
  C   C56       1.0  0.22019  0.17542  0.35764  1.0000
  H   H103      1.0  0.17861  0.17074  0.39445  1.0000
  C   C57       1.0  0.11811  0.13055  0.36634  1.0000
  H   H104      1.0  0.22391  0.21708  0.37296  1.0000
  H   H105      1.0  0.09717  0.09651  0.38679  1.0000
  C   C58       1.0  0.22934  0.44499  0.37365  1.0000
  C   C59       1.0  0.22289  0.43014  0.35677  1.0000
  C   C60       1.0  0.22201  0.39939  0.35687  1.0000
  C   C61       1.0  0.22737  0.38326  0.37396  1.0000
  C   C62       1.0  0.23348  0.39808  0.39109  1.0000
  C   C63       1.0  0.23455  0.42886  0.39087  1.0000
  C   C64       1.0  0.25614  0.32065  0.60334  1.0000
  H   H106      1.0  0.09209  0.15218  0.38460  1.0000
  H   H107      1.0  0.23774  0.38581  0.40429  1.0000
  H   H108      1.0  0.23953  0.44018  0.40402  1.0000
  H   H109      1.0  0.18108  0.25359  0.43862  1.0000
  H   H110      1.0  0.15584  0.37216  0.42702  1.0000
  C   C65       1.0  0.06143  0.38323  0.36213  1.0000
  C   C66       1.0  0.05965  0.39396  0.38251  1.0000
  C   C67       1.0  0.05815  0.42440  0.38541  1.0000
  C   C68       1.0  0.05837  0.44389  0.36818  1.0000
  H   H111      1.0  0.24767  0.04372  0.37605  1.0000
  H   H112      1.0  0.06252  0.35991  0.35961  1.0000
  H   H113      1.0  0.05675  0.43295  0.40110  1.0000
  H   H114      1.0  0.05718  0.46719  0.37069  1.0000
  C   C69       1.0  0.05002  0.13381  0.35896  1.0000
  H   H115      1.0  0.12918  0.10377  0.34140  1.0000
  H   H116      1.0  0.01892  0.33113  0.65299  1.0000
  C   C70       1.0  0.05290  0.19538  0.36010  1.0000
  C   C71       1.0  0.05000  0.17962  0.37860  1.0000
  C   C72       1.0  0.04837  0.14893  0.37797  1.0000
  H   H117      1.0  0.15321  0.24404  0.43955  1.0000
  C   C73       1.0  0.09432  0.16012  0.36831  1.0000
  H   H118      1.0  0.04850  0.19115  0.39327  1.0000
  H   H119      1.0  0.04570  0.13689  0.39223  1.0000
  C   C74       1.0  0.18214  0.45213  0.38901  1.0000
  N   N4        1.0  0.17979  0.39875  0.40214  1.0000
  H   H120      1.0  0.11371  0.18873  0.37820  1.0000
  H   H121      1.0  0.01752  0.37276  0.43008  1.0000
  H   H122      1.0  0.17021  0.23552  0.40345  1.0000
  H   H123      1.0  0.18361  0.46077  0.40502  1.0000
  H   H124      1.0  0.18949  0.46594  0.37829  1.0000
  C   C75       1.0  0.15314  0.37422  0.41019  1.0000
  H   H125      1.0  0.01994  0.10072  0.56593  1.0000
  H   H126      1.0  0.02137  0.40146  0.44863  1.0000
  H   H127      1.0  0.17988  0.38852  0.43531  1.0000
  H   H128      1.0  0.04187  0.42323  0.60828  1.0000
  H   H129      1.0  0.23830  0.08995  0.36566  1.0000
  H   H130      1.0  0.01781  0.43911  0.63750  1.0000
  H   H131      1.0  0.08577  0.07208  0.37217  1.0000
  S   S27       1.0  0.23663  0.04461  0.33283  1.0000
  H   H132      1.0  0.01595  0.20944  0.34801  1.0000
  H   H133      1.0  0.05868  0.36639  0.45358  1.0000
  S   S28       1.0  0.21690  0.12250  0.33771  1.0000
  H   H134      1.0  0.12655  0.14906  0.36447  1.0000
  C   C76       1.0  0.24310  0.31210  0.53751  1.0000
  C   C77       1.0  0.24800  0.10104  0.37376  1.0000
  C   C78       1.0  0.23878  0.08382  0.40802  1.0000
  C   C79       1.0  0.25619  0.05238  0.38743  1.0000
  H   H135      1.0  0.08252  0.16373  0.36200  1.0000
  H   H136      1.0  0.23675  0.32214  0.58242  1.0000
  H   H137      1.0  0.20796  0.11286  0.38187  1.0000
  H   H138      1.0  0.25416  0.13259  0.42211  1.0000
  H   H139      1.0  0.03855  0.41052  0.58250  1.0000
  H   H140      1.0  0.09098  0.47454  0.34267  1.0000
  N   N5        1.0  0.10304  0.13748  0.35565  1.0000
  H   H141      1.0  0.20020  0.41940  0.38808  1.0000
  H   H142      1.0  0.23955  0.31402  0.52091  1.0000
  H   H143      1.0  0.02128  0.08103  0.50947  1.0000
  C   C80       1.0  0.01614  0.48545  0.64333  1.0000
  H   H144      1.0  0.22349  0.18373  0.34229  1.0000
  C   C81       1.0  0.02968  0.24251  0.50055  1.0000
  H   H145      1.0  0.09553  0.44717  0.36124  1.0000
  H   H146      1.0  0.02360  0.23009  0.44895  1.0000
  Fe  Fe15      1.0  0.22147  0.01075  0.34911  1.0000
  H   H147      1.0  0.15927  0.39958  0.38263  1.0000
  H   H148      1.0  0.25206  0.29857  0.57453  1.0000
  H   H149      1.0  0.20392  0.43597  0.42212  1.0000
  C   C82       1.0  0.01832  0.43192  0.59651  1.0000
  H   H150      1.0  0.03302  0.30479  0.48524  1.0000
  H   H151      1.0  0.07725  0.10572  0.38162  1.0000
  H   H152      1.0  0.21459  0.06959  0.41237  1.0000
  C   C83       1.0  0.18323  0.40682  0.42449  1.0000
  S   S29       1.0  0.25385  0.30706  0.47270  1.0000
  N   N6        1.0  0.25588  0.34444  0.56647  1.0000
  C   C84       1.0  0.02149  0.23040  0.46569  1.0000
  C   C85       1.0  0.05469  0.18023  0.34117  1.0000
  H   H153      1.0  0.25552  0.35293  0.53294  1.0000
  H   H154      1.0  0.25805  0.37700  0.59106  1.0000
  S   S30       1.0  0.20057  0.04014  0.35199  1.0000
  C   C86       1.0  0.22479  0.06419  0.40213  1.0000
  H   H155      1.0  0.22734  0.04067  0.40473  1.0000
  S   S31       1.0  0.07546  0.03830  0.33408  1.0000
  H   H156      1.0  0.03008  0.34066  0.49471  1.0000
  C   C87       1.0  0.24970  0.32071  0.58095  1.0000
  H   H157      1.0  0.14044  0.37851  0.40915  1.0000
  H   H158      1.0  0.04449  0.31774  0.45233  1.0000
  C   C88       1.0  0.09988  0.45804  0.34664  1.0000
  N   N7        1.0  0.25257  0.08385  0.39286  1.0000
  H   H159      1.0  0.24293  0.12257  0.37812  1.0000
  C   C89       1.0  0.25178  0.37361  0.57616  1.0000
  C   C90       1.0  0.05349  0.14955  0.34066  1.0000
  Fe  Fe16      1.0  0.21515  0.07275  0.33363  1.0000
  H   H160      1.0  0.17219  0.36259  0.36933  1.0000
  H   H161      1.0  0.23408  0.10632  0.41011  1.0000
  C   C91       1.0  0.16236  0.39936  0.39945  1.0000
  C   C92       1.0  0.18633  0.36871  0.39794  1.0000
  H   H162      1.0  0.02249  0.16164  0.33432  1.0000
  C   C93       1.0  0.18339  0.35586  0.37602  1.0000
  H   H163      1.0  0.19920  0.36880  0.39959  1.0000
  H   H164      1.0  0.18234  0.35246  0.40994  1.0000
  C   C94       1.0  0.09281  0.11066  0.35398  1.0000
  H   H165      1.0  0.23706  0.35552  0.54550  1.0000
  C   C95       1.0  0.03615  0.42894  0.59341  1.0000
  C   C96       1.0  0.08801  0.09572  0.37491  1.0000
  H   H166      1.0  0.19296  0.36206  0.36487  1.0000
  H   H167      1.0  0.18282  0.33158  0.37715  1.0000
  N   N8        1.0  0.16119  0.20340  0.42560  1.0000
  C   C97       1.0  0.14546  0.20321  0.41531  1.0000
  C   C98       1.0  0.17308  0.21321  0.40926  1.0000
  C   C99       1.0  0.16056  0.22492  0.44356  1.0000
  C   C100      1.0  0.16420  0.17282  0.43346  1.0000
  C   C101      1.0  0.13105  0.19941  0.43003  1.0000
  C   C102      1.0  0.17501  0.19316  0.39002  1.0000
  C   C103      1.0  0.17614  0.23836  0.45064  1.0000
  C   C104      1.0  0.18022  0.16699  0.44306  1.0000
  H   H168      1.0  0.14471  0.18539  0.40353  1.0000
  H   H169      1.0  0.18486  0.21572  0.41576  1.0000
  H   H170      1.0  0.15481  0.21485  0.45764  1.0000
  H   H171      1.0  0.15552  0.16672  0.44591  1.0000
  H   H172      1.0  0.16222  0.15611  0.42113  1.0000
  H   H173      1.0  0.13122  0.17857  0.43892  1.0000
  H   H174      1.0  0.12964  0.21811  0.44094  1.0000
  H   H175      1.0  0.12040  0.19909  0.42041  1.0000
  H   H176      1.0  0.16437  0.19236  0.38050  1.0000
  H   H177      1.0  0.18448  0.20220  0.37971  1.0000
  H   H178      1.0  0.23280  0.30369  0.54653  1.0000
  H   H179      1.0  0.18498  0.22188  0.45459  1.0000
  H   H180      1.0  0.17396  0.25176  0.46488  1.0000
  H   H181      1.0  0.18010  0.17225  0.46002  1.0000
  H   H182      1.0  0.18991  0.17890  0.43518  1.0000
  H   H183      1.0  0.18320  0.14351  0.44107  1.0000
  H   H184      1.0  0.10819  0.41640  0.33667  1.0000
  C   C105      1.0  0.24807  0.34266  0.54541  1.0000
  H   H185      1.0  0.22120  0.06726  0.38575  1.0000
  H   H186      1.0  0.24971  0.37114  0.47388  1.0000
  H   H187      1.0  0.11606  0.16607  0.33425  1.0000
  H   H188      1.0  0.09484  0.20491  0.37970  1.0000
  H   H189      1.0  0.21714  0.38806  0.34365  1.0000
  H   H190      1.0  0.18500  0.41349  0.37046  1.0000
  H   H191      1.0  0.08167  0.11614  0.34639  1.0000
  C   C106      1.0  0.25562  0.40095  0.56262  1.0000
  N   N9        1.0  0.02206  0.33388  0.46304  1.0000
  C   C107      1.0  0.05990  0.43308  0.34779  1.0000
  H   H192      1.0  0.03824  0.25180  0.51087  1.0000
  H   H193      1.0  0.17607  0.42572  0.42983  1.0000
  H   H194      1.0  0.26089  0.08913  0.34495  1.0000
  C   C108      1.0  0.18733  0.41998  0.38689  1.0000
  C   C109      1.0  0.02462  0.32322  0.48514  1.0000
  C   C110      1.0  0.03268  0.24254  0.47878  1.0000
  C   C111      1.0  0.10243  0.19025  0.37014  1.0000
  H   H195      1.0  0.15740  0.42011  0.40574  1.0000
  H   H196      1.0  0.20860  0.39764  0.42363  1.0000
  H   H197      1.0  0.20912  0.14581  0.41275  1.0000
  H   H198      1.0  0.09795  0.09400  0.34325  1.0000
  H   H199      1.0  0.01614  0.48056  0.57773  1.0000
  H   H200      1.0  0.16987  0.45497  0.38424  1.0000
  H   H201      1.0  0.13805  0.10117  0.36634  1.0000
  H   H202      1.0  0.10415  0.20115  0.35474  1.0000
  H   H203      1.0  0.25146  0.42079  0.57101  1.0000
  H   H204      1.0  0.04160  0.44886  0.58643  1.0000
  H   H205      1.0  0.03328  0.46111  0.62690  1.0000
  H   H206      1.0  0.15532  0.35307  0.40223  1.0000
  H   H207      1.0  0.23909  0.37440  0.58028  1.0000
  C   C112      1.0  0.06145  0.40267  0.34491  1.0000
  H   H208      1.0  0.12002  0.08258  0.36224  1.0000
  C   C113      1.0  0.20037  0.41462  0.42911  1.0000
  H   H209      1.0  0.25243  0.29560  0.53791  1.0000
  H   H210      1.0  0.02039  0.29382  0.65920  1.0000
  H   H211      1.0  0.03732  0.34566  0.43650  1.0000
  C   C114      1.0  0.26385  0.33614  0.48544  1.0000
  H   H212      1.0  0.02843  0.09206  0.53382  1.0000
  H   H213      1.0  0.05341  0.35151  0.47857  1.0000
  H   H214      1.0  0.02549  0.12730  0.49811  1.0000
  H   H215      1.0  0.24988  0.40069  0.54724  1.0000
  H   H216      1.0  0.25482  0.03814  0.40158  1.0000
  H   H217      1.0  0.01558  0.37463  0.47789  1.0000
  C   C115      1.0  0.10699  0.14855  0.33389  1.0000
  H   H218      1.0  0.24234  0.07656  0.42390  1.0000
  H   H219      1.0  0.25174  0.40931  0.34088  1.0000
  H   H220      1.0  0.26192  0.14452  0.39683  1.0000
  H   H221      1.0  0.02113  0.28973  0.45096  1.0000
  H   H222      1.0  0.25161  0.30097  0.61181  1.0000
  H   H223      1.0  0.20173  0.41659  0.44631  1.0000
  H   H224      1.0  0.02171  0.48184  0.65867  1.0000
  H   H225      1.0  0.02102  0.16463  0.50340  1.0000
  H   H226      1.0  0.25315  0.46386  0.33393  1.0000
  H   H227      1.0  0.25222  0.33993  0.61249  1.0000
  H   H228      1.0  0.01935  0.13994  0.53653  1.0000
  C   C116      1.0  0.04856  0.36101  0.46410  1.0000
  S   S32       1.0  0.23118  0.48352  0.37360  1.0000
  H   H229      1.0  0.04252  0.38176  0.46779  1.0000
  C   C117      1.0  0.03796  0.33874  0.45305  1.0000
  C   C118      1.0  0.01603  0.14212  0.50336  1.0000
  H   H230      1.0  0.02561  0.03833  0.53070  1.0000
  H   H231      1.0  0.25782  0.12767  0.34848  1.0000
  C   C119      1.0  0.02038  0.45983  0.62873  1.0000
  C   C120      1.0  0.01782  0.08316  0.52629  1.0000
  H   H232      1.0  0.01905  0.32403  0.41870  1.0000
  C   C121      1.0  0.01571  0.23055  0.50916  1.0000
  H   H233      1.0  0.24728  0.36238  0.33285  1.0000
  C   C122      1.0  0.26346  0.45049  0.33780  1.0000
  C   C123      1.0  0.01722  0.48569  0.59469  1.0000
  H   H234      1.0  0.26352  0.40994  0.49372  1.0000
  C   C124      1.0  0.26155  0.41821  0.33117  1.0000
  C   C125      1.0  0.26383  0.12999  0.41048  1.0000
  C   C126      1.0  0.01517  0.05168  0.53460  1.0000
  H   H235      1.0  0.26455  0.45141  0.35509  1.0000
  C   C127      1.0  0.01588  0.20631  0.33076  1.0000
  Fe  Fe17      1.0  0.05328  0.32160  0.78427  1.0000
  S   S33       1.0  0.04204  0.30284  0.81369  1.0000
  S   S34       1.0  0.04284  0.33495  0.75283  1.0000
  Fe  Fe18      1.0  0.08641  0.31388  0.80163  1.0000
  S   S35       1.0  0.07774  0.29488  0.83216  1.0000
  S   S36       1.0  0.11152  0.32390  0.79212  1.0000
  Fe  Fe19      1.0  0.06102  0.26879  0.81304  1.0000
  S   S37       1.0  0.05570  0.21999  0.81743  1.0000
  Fe  Fe20      1.0  0.05966  0.33035  0.83073  1.0000
  S   S38       1.0  0.05541  0.35327  0.86165  1.0000
  S   S39       1.0  0.07098  0.28527  0.78228  1.0000
  S   S40       1.0  0.06958  0.35146  0.80163  1.0000
  Fe  Fe21      1.0  0.19650  0.27376  0.82150  1.0000
  S   S41       1.0  0.20972  0.29148  0.84867  1.0000
  S   S42       1.0  0.17115  0.26224  0.82934  1.0000
  Fe  Fe22      1.0  0.22647  0.26718  0.79441  1.0000
  S   S43       1.0  0.24171  0.28433  0.81991  1.0000
  S   S44       1.0  0.23437  0.25323  0.76135  1.0000
  Fe  Fe23      1.0  0.22699  0.25609  0.84152  1.0000
  S   S45       1.0  0.23588  0.23245  0.87005  1.0000
  Fe  Fe24      1.0  0.22321  0.31863  0.82532  1.0000
  S   S46       1.0  0.23184  0.36540  0.83123  1.0000
  S   S47       1.0  0.21301  0.23634  0.81585  1.0000
  S   S48       1.0  0.20875  0.30363  0.79814  1.0000
  Fe  Fe25      1.0  0.05405  0.04127  0.92977  1.0000
  S   S49       1.0  0.04797  0.05895  0.89781  1.0000
  H   H236      1.0  0.10464  0.46650  0.83075  1.0000
  Fe  Fe26      1.0  0.08891  0.03527  0.91729  1.0000
  S   S50       1.0  0.08537  0.05193  0.88467  1.0000
  S   S51       1.0  0.11156  0.01564  0.92879  1.0000
  Fe  Fe27      1.0  0.06996  0.08633  0.89941  1.0000
  S   S52       1.0  0.07363  0.13566  0.89327  1.0000
  Fe  Fe28      1.0  0.06385  0.02331  0.88534  1.0000
  H   H237      1.0  0.18827  0.05985  0.97338  1.0000
  S   S53       1.0  0.07500  0.07117  0.93235  1.0000
  S   S54       1.0  0.06837  0.00424  0.91689  1.0000
  Fe  Fe29      1.0  0.19993  0.06002  0.92603  1.0000
  S   S55       1.0  0.20583  0.04115  0.89460  1.0000
  S   S56       1.0  0.17683  0.08271  0.93271  1.0000
  Fe  Fe30      1.0  0.23327  0.05090  0.94238  1.0000
  S   S57       1.0  0.24149  0.03081  0.91181  1.0000
  S   S58       1.0  0.24803  0.05236  0.97207  1.0000
  Fe  Fe31      1.0  0.22799  0.06750  0.89692  1.0000
  S   S59       1.0  0.23540  0.09331  0.86802  1.0000
  C   C128      1.0  0.20459  0.46509  0.80841  1.0000
  S   S60       1.0  0.21020  0.45206  0.90448  1.0000
  S   S61       1.0  0.22127  0.08891  0.92728  1.0000
  S   S62       1.0  0.21119  0.02348  0.94359  1.0000
  H   H238      1.0  0.12706  0.19008  0.83389  1.0000
  C   C129      1.0  0.12962  0.03480  0.92843  1.0000
  C   C130      1.0  0.13035  0.06541  0.92893  1.0000
  C   C131      1.0  0.14489  0.07980  0.93026  1.0000
  C   C132      1.0  0.15884  0.06379  0.93046  1.0000
  C   C133      1.0  0.15813  0.03322  0.92956  1.0000
  C   C134      1.0  0.14357  0.01882  0.92884  1.0000
  H   H239      1.0  0.11968  0.07794  0.92884  1.0000
  H   H240      1.0  0.14529  0.10342  0.93123  1.0000
  H   H241      1.0  0.16877  0.02062  0.92977  1.0000
  H   H242      1.0  0.02552  0.21895  0.84263  1.0000
  C   C135      1.0  0.25207  0.23664  0.75264  1.0000
  H   H243      1.0  0.08827  0.44599  0.82031  1.0000
  H   H244      1.0  0.11706  0.23494  0.85312  1.0000
  H   H245      1.0  0.24348  0.22900  0.72166  1.0000
  H   H246      1.0  0.14044  0.20771  0.79280  1.0000
  C   C136      1.0  0.21645  0.42846  0.88395  1.0000
  C   C137      1.0  0.20757  0.40319  0.87975  1.0000
  C   C138      1.0  0.21205  0.38373  0.86365  1.0000
  C   C139      1.0  0.22551  0.38934  0.85152  1.0000
  C   C140      1.0  0.23444  0.41451  0.85579  1.0000
  C   C141      1.0  0.23006  0.43378  0.87207  1.0000
  H   H247      1.0  0.19711  0.39870  0.88899  1.0000
  H   H248      1.0  0.20506  0.36446  0.86058  1.0000
  H   H249      1.0  0.24494  0.41895  0.84661  1.0000
  H   H250      1.0  0.23721  0.45269  0.87548  1.0000
  C   C142      1.0  0.23606  0.19382  0.86925  1.0000
  C   C143      1.0  0.23704  0.17787  0.88799  1.0000
  C   C144      1.0  0.23686  0.14706  0.88782  1.0000
  C   C145      1.0  0.23598  0.13198  0.86886  1.0000
  C   C146      1.0  0.23528  0.14794  0.85010  1.0000
  C   C147      1.0  0.23517  0.17875  0.85029  1.0000
  H   H251      1.0  0.23787  0.18939  0.90270  1.0000
  H   H252      1.0  0.23770  0.13500  0.90232  1.0000
  H   H253      1.0  0.23470  0.13643  0.83536  1.0000
  H   H254      1.0  0.23459  0.19081  0.83574  1.0000
  C   C148      1.0  0.06068  0.19692  0.83870  1.0000
  C   C149      1.0  0.05617  0.16725  0.83843  1.0000
  C   C150      1.0  0.06005  0.14810  0.85490  1.0000
  C   C151      1.0  0.06845  0.15850  0.87191  1.0000
  C   C152      1.0  0.07296  0.18821  0.87214  1.0000
  C   C153      1.0  0.06916  0.20730  0.85563  1.0000
  H   H255      1.0  0.04963  0.15894  0.82539  1.0000
  H   H256      1.0  0.05649  0.12533  0.85449  1.0000
  H   H257      1.0  0.07950  0.19643  0.88520  1.0000
  H   H258      1.0  0.07282  0.22999  0.85597  1.0000
  C   C154      1.0  0.05148  0.39113  0.86216  1.0000
  C   C155      1.0  0.05152  0.40570  0.88144  1.0000
  C   C156      1.0  0.04910  0.43605  0.88244  1.0000
  C   C157      1.0  0.04644  0.45206  0.86419  1.0000
  C   C158      1.0  0.04598  0.43737  0.84493  1.0000
  C   C159      1.0  0.04865  0.40700  0.84387  1.0000
  H   H259      1.0  0.05358  0.39353  0.89566  1.0000
  H   H260      1.0  0.04912  0.44699  0.89740  1.0000
  H   H261      1.0  0.04385  0.44957  0.83074  1.0000
  H   H262      1.0  0.04849  0.39592  0.82894  1.0000
  C   C160      1.0  0.12810  0.30797  0.80343  1.0000
  C   C161      1.0  0.12697  0.29098  0.82165  1.0000
  C   C162      1.0  0.14038  0.27776  0.82967  1.0000
  C   C163      1.0  0.15500  0.28152  0.81967  1.0000
  C   C164      1.0  0.15622  0.29922  0.80183  1.0000
  C   C165      1.0  0.14279  0.31237  0.79375  1.0000
  H   H263      1.0  0.11578  0.28792  0.82947  1.0000
  H   H264      1.0  0.13950  0.26451  0.84369  1.0000
  H   H265      1.0  0.16742  0.30225  0.79399  1.0000
  H   H266      1.0  0.14377  0.32563  0.77971  1.0000
  H   H267      1.0  0.08215  0.16049  0.79643  1.0000
  H   H268      1.0  0.11431  0.16380  0.78219  1.0000
  H   H269      1.0  0.25335  0.36137  0.86591  1.0000
  H   H270      1.0  0.10028  0.25859  0.80298  1.0000
  C   C166      1.0  0.13283  0.19475  0.78246  1.0000
  H   H271      1.0  0.11835  0.24456  0.79250  1.0000
  C   C167      1.0  0.10936  0.22066  0.84376  1.0000
  H   H272      1.0  0.04578  0.30342  0.89896  1.0000
  H   H273      1.0  0.26159  0.27903  0.88808  1.0000
  H   H274      1.0  0.21518  0.45631  0.81579  1.0000
  H   H275      1.0  0.03008  0.30830  0.69889  1.0000
  H   H276      1.0  0.25352  0.27127  0.69782  1.0000
  H   H277      1.0  0.09864  0.35322  0.85896  1.0000
  H   H278      1.0  0.04054  0.23086  0.87168  1.0000
  H   H279      1.0  0.04925  0.25100  0.91403  1.0000
  C   C168      1.0  0.02555  0.28945  0.70819  1.0000
  H   H280      1.0  0.01923  0.49292  0.95325  1.0000
  C   C169      1.0  0.25442  0.38484  0.91285  1.0000
  H   H281      1.0  0.23469  0.37323  0.89443  1.0000
  H   H282      1.0  0.19850  0.10669  0.96445  1.0000
  H   H283      1.0  0.10265  0.44152  0.89974  1.0000
  C   C170      1.0  0.01845  0.48588  0.96942  1.0000
  C   C171      1.0  0.01886  0.01789  0.99093  1.0000
  C   C172      1.0  0.09235  0.45963  0.83348  1.0000
  H   H284      1.0  0.11568  0.45659  0.97108  1.0000
  H   H285      1.0  0.21547  0.06132  0.97864  1.0000
  H   H286      1.0  0.16125  0.07099  0.98021  1.0000
  C   C173      1.0  0.16995  0.08634  0.98686  1.0000
  C   C174      1.0  0.25921  0.31814  0.90951  1.0000
  C   C175      1.0  0.01890  0.32527  0.88244  1.0000
  H   H287      1.0  0.02253  0.29656  0.72434  1.0000
  H   H288      1.0  0.24044  0.29816  0.87672  1.0000
  H   H289      1.0  0.19077  0.44593  0.84620  1.0000
  C   C176      1.0  0.22398  0.30764  0.90138  1.0000
  H   H290      1.0  0.11557  0.36464  0.84324  1.0000
  H   H291      1.0  0.23565  0.35480  0.91881  1.0000
  C   C177      1.0  0.02165  0.23876  0.85132  1.0000
  C   C178      1.0  0.02589  0.35491  0.74594  1.0000
  C   C179      1.0  0.03540  0.25047  0.86416  1.0000
  H   H292      1.0  0.08260  0.13321  0.81638  1.0000
  H   H293      1.0  0.10525  0.38869  0.88432  1.0000
  H   H294      1.0  0.21396  0.47081  0.84853  1.0000
  H   H295      1.0  0.19289  0.13156  0.98447  1.0000
  H   H296      1.0  0.24799  0.40060  0.92302  1.0000
  Fe  Fe32      1.0  0.21862  0.00600  0.91188  1.0000
  C   C180      1.0  0.02705  0.01107  0.97225  1.0000
  H   H297      1.0  0.09869  0.35038  0.83124  1.0000
  H   H298      1.0  0.25691  0.33501  0.70314  1.0000
  H   H299      1.0  0.12707  0.20912  0.77097  1.0000
  H   H300      1.0  0.18941  0.46432  0.87101  1.0000
  H   H301      1.0  0.06085  0.24360  0.89077  1.0000
  H   H302      1.0  0.03394  0.36105  0.71404  1.0000
  C   C181      1.0  0.21348  0.06914  0.99492  1.0000
  H   H303      1.0  0.22606  0.11315  0.97087  1.0000
  S   S63       1.0  0.03748  0.03957  0.95860  1.0000
  C   C182      1.0  0.01962  0.27645  0.91811  1.0000
  H   H304      1.0  0.05481  0.29198  0.87571  1.0000
  N   N10       1.0  0.24985  0.33534  0.89397  1.0000
  N   N11       1.0  0.09980  0.41733  0.85830  1.0000
  C   C183      1.0  0.09554  0.39508  0.84185  1.0000
  C   C184      1.0  0.08994  0.44406  0.85475  1.0000
  C   C185      1.0  0.09594  0.40407  0.87952  1.0000
  C   C186      1.0  0.11702  0.42376  0.85595  1.0000
  H   H305      1.0  0.17217  0.45473  0.85757  1.0000
  C   C187      1.0  0.09313  0.42539  0.89790  1.0000
  C   C188      1.0  0.12375  0.44869  0.86935  1.0000
  H   H306      1.0  0.06648  0.27187  0.90814  1.0000
  H   H307      1.0  0.09917  0.40269  0.82590  1.0000
  H   H308      1.0  0.25321  0.27143  0.91367  1.0000
  H   H309      1.0  0.07740  0.43805  0.85621  1.0000
  H   H310      1.0  0.08505  0.39059  0.87883  1.0000
  H   H311      1.0  0.12722  0.44050  0.88495  1.0000
  H   H312      1.0  0.12049  0.42797  0.83931  1.0000
  H   H313      1.0  0.01809  0.25482  0.83927  1.0000
  C   C189      1.0  0.03120  0.49015  0.98242  1.0000
  H   H314      1.0  0.26377  0.37510  0.92230  1.0000
  H   H315      1.0  0.08818  0.45455  0.97914  1.0000
  C   C190      1.0  0.18562  0.07014  0.98886  1.0000
  H   H316      1.0  0.09214  0.41267  0.91271  1.0000
  H   H317      1.0  0.25584  0.29472  0.72746  1.0000
  H   H318      1.0  0.13426  0.45799  0.86126  1.0000
  C   C191      1.0  0.20128  0.11376  0.98066  1.0000
  N   N12       1.0  0.18380  0.14383  0.87809  1.0000
  C   C192      1.0  0.18263  0.15515  0.90027  1.0000
  C   C193      1.0  0.16736  0.14095  0.87032  1.0000
  C   C194      1.0  0.19254  0.16656  0.86520  1.0000
  C   C195      1.0  0.19241  0.11509  0.87819  1.0000
  C   C196      1.0  0.19820  0.16244  0.91086  1.0000
  C   C197      1.0  0.15658  0.12006  0.88311  1.0000
  C   C198      1.0  0.19459  0.16046  0.84165  1.0000
  C   C199      1.0  0.18984  0.09414  0.85953  1.0000
  H   H319      1.0  0.17535  0.17528  0.90104  1.0000
  H   H320      1.0  0.17668  0.13888  0.91074  1.0000
  H   H321      1.0  0.16704  0.13350  0.85390  1.0000
  H   H322      1.0  0.16164  0.16281  0.87009  1.0000
  H   H323      1.0  0.18685  0.18837  0.86680  1.0000
  H   H324      1.0  0.20459  0.16947  0.87091  1.0000
  H   H325      1.0  0.20516  0.11900  0.87931  1.0000
  H   H326      1.0  0.18914  0.10228  0.89248  1.0000
  H   H327      1.0  0.20657  0.14413  0.90981  1.0000
  H   H328      1.0  0.20363  0.18272  0.90433  1.0000
  H   H329      1.0  0.19591  0.16652  0.92777  1.0000
  H   H330      1.0  0.14589  0.11538  0.87414  1.0000
  H   H331      1.0  0.16215  0.09878  0.88652  1.0000
  H   H332      1.0  0.15268  0.13027  0.89804  1.0000
  H   H333      1.0  0.20233  0.14149  0.83875  1.0000
  H   H334      1.0  0.20059  0.17959  0.83424  1.0000
  H   H335      1.0  0.18338  0.15786  0.83356  1.0000
  H   H336      1.0  0.20117  0.08391  0.85513  1.0000
  H   H337      1.0  0.18546  0.10428  0.84514  1.0000
  H   H338      1.0  0.18204  0.07568  0.86432  1.0000
  C   C200      1.0  0.25349  0.22754  0.73164  1.0000
  H   H339      1.0  0.05971  0.02659  0.99142  1.0000
  H   H340      1.0  0.12390  0.40405  0.86001  1.0000
  H   H341      1.0  0.10001  0.23462  0.83752  1.0000
  H   H342      1.0  0.21670  0.29018  0.89435  1.0000
  S   S64       1.0  0.04420  0.49044  0.86502  1.0000
  H   H343      1.0  0.12698  0.22294  0.81966  1.0000
  H   H344      1.0  0.23044  0.33104  0.87311  1.0000
  C   C201      1.0  0.02446  0.36468  0.72513  1.0000
  H   H345      1.0  0.25335  0.31879  0.92523  1.0000
  H   H346      1.0  0.09166  0.17704  0.83172  1.0000
  C   C202      1.0  0.05622  0.26104  0.90109  1.0000
  C   C203      1.0  0.11910  0.20587  0.82623  1.0000
  H   H347      1.0  0.02440  0.23754  0.90026  1.0000
  H   H348      1.0  0.10185  0.24794  0.77648  1.0000
  H   H349      1.0  0.08264  0.39201  0.84138  1.0000
  H   H350      1.0  0.10429  0.20424  0.85483  1.0000
  H   H351      1.0  0.03530  0.27373  0.70965  1.0000
  H   H352      1.0  0.09734  0.13274  0.79643  1.0000
  H   H353      1.0  0.12758  0.15832  0.80290  1.0000
  C   C204      1.0  0.18434  0.46274  0.85523  1.0000
  H   H354      1.0  0.08515  0.47979  0.83344  1.0000
  H   H355      1.0  0.21603  0.32585  0.90570  1.0000
  H   H356      1.0  0.22912  0.29831  0.91566  1.0000
  N   N13       1.0  0.10985  0.19066  0.80956  1.0000
  C   C205      1.0  0.23649  0.31793  0.88520  1.0000
  C   C206      1.0  0.12087  0.17543  0.79452  1.0000
  H   H357      1.0  0.10754  0.15249  0.82992  1.0000
  C   C207      1.0  0.24283  0.36162  0.90491  1.0000
  C   C208      1.0  0.09914  0.21106  0.79813  1.0000
  C   C209      1.0  0.10009  0.16720  0.82043  1.0000
  C   C210      1.0  0.10557  0.24192  0.79247  1.0000
  H   H358      1.0  0.14071  0.18033  0.77317  1.0000
  H   H359      1.0  0.25552  0.11383  0.96132  1.0000
  C   C211      1.0  0.04701  0.28406  0.88874  1.0000
  H   H360      1.0  0.09123  0.44837  0.95193  1.0000
  C   C212      1.0  0.26027  0.10894  0.97647  1.0000
  H   H361      1.0  0.20642  0.46267  0.79124  1.0000
  C   C213      1.0  0.26178  0.28522  0.90476  1.0000
  H   H362      1.0  0.08835  0.21475  0.80772  1.0000
  C   C214      1.0  0.09203  0.46529  0.96432  1.0000
  H   H363      1.0  0.03175  0.30725  0.85637  1.0000
  C   C215      1.0  0.09011  0.14756  0.80626  1.0000
  H   H364      1.0  0.09511  0.20081  0.78339  1.0000
  H   H365      1.0  0.25713  0.29915  0.67805  1.0000
  N   N14       1.0  0.03162  0.27372  0.88026  1.0000
  H   H366      1.0  0.08193  0.43712  0.89624  1.0000
  C   C216      1.0  0.10266  0.36429  0.84433  1.0000
  H   H367      1.0  0.19427  0.45151  0.81270  1.0000
  C   C217      1.0  0.06943  0.01092  0.99340  1.0000
  H   H368      1.0  0.04441  0.25857  0.85265  1.0000
  S   S65       1.0  0.06761  0.49112  0.91830  1.0000
  H   H369      1.0  0.01666  0.26270  0.68376  1.0000
  H   H370      1.0  0.07592  0.00832  0.96082  1.0000
  C   C218      1.0  0.25833  0.08089  0.98506  1.0000
  H   H371      1.0  0.11589  0.46757  0.87138  1.0000
  H   H372      1.0  0.09157  0.46102  0.86689  1.0000
  H   H373      1.0  0.08382  0.48279  0.95999  1.0000
  H   H374      1.0  0.26360  0.16051  0.75328  1.0000
  H   H375      1.0  0.14195  0.48860  0.90721  1.0000
  C   C219      1.0  0.26011  0.34662  0.87621  1.0000
  C   C220      1.0  0.14080  0.48510  0.98194  1.0000
  H   H376      1.0  0.26418  0.24133  0.78159  1.0000
  H   H377      1.0  0.02557  0.29791  0.91883  1.0000
  C   C221      1.0  0.02086  0.26049  0.89676  1.0000
  H   H378      1.0  0.02865  0.33559  0.89083  1.0000
  H   H379      1.0  0.22232  0.13511  0.99384  1.0000
  C   C222      1.0  0.21762  0.12808  0.97870  1.0000
  H   H380      1.0  0.25590  0.33449  0.74964  1.0000
  H   H381      1.0  0.26426  0.12545  0.72601  1.0000
  H   H382      1.0  0.25951  0.30834  0.85500  1.0000
  H   H383      1.0  0.02421  0.26233  0.93074  1.0000
  C   C223      1.0  0.02391  0.29876  0.86910  1.0000
  H   H384      1.0  0.25954  0.39796  0.89973  1.0000
  H   H385      1.0  0.17075  0.10525  0.97596  1.0000
  H   H386      1.0  0.21694  0.14785  0.96858  1.0000
  H   H387      1.0  0.01888  0.04023  0.99650  1.0000
  C   C224      1.0  0.26219  0.28031  0.68642  1.0000
  H   H388      1.0  0.17529  0.49251  0.83220  1.0000
  H   H389      1.0  0.11333  0.47982  0.94905  1.0000
  N   N15       1.0  0.19930  0.08844  0.99584  1.0000
  C   C225      1.0  0.18417  0.49323  0.84467  1.0000
  C   C226      1.0  0.10909  0.47585  0.96544  1.0000
  H   H390      1.0  0.26432  0.26295  0.67456  1.0000
  H   H391      1.0  0.14116  0.46789  0.96971  1.0000
  H   H392      1.0  0.07997  0.02430  0.99651  1.0000
  H   H393      1.0  0.10154  0.99716  0.96985  1.0000
  H   H394      1.0  0.14312  0.99514  0.92853  1.0000
  Fe  Fe33      1.0  0.08061  0.55346  0.30146  1.0000
  S   S66       1.0  0.10477  0.56308  0.28768  1.0000
  Fe  Fe34      1.0  0.04512  0.55440  0.29364  1.0000
  C   C227      1.0  0.25082  0.80935  0.16982  1.0000
  H   H395      1.0  0.03044  0.79718  0.30282  1.0000
  C   C228      1.0  0.09723  0.63957  0.31424  1.0000
  S   S67       1.0  0.06232  0.58868  0.30385  1.0000
  S   S68       1.0  0.06385  0.52063  0.28811  1.0000
  Fe  Fe35      1.0  0.22230  0.52002  0.29928  1.0000
  H   H396      1.0  0.12704  0.64158  0.32162  1.0000
  H   H397      1.0  0.25797  0.55337  0.24815  1.0000
  H   H398      1.0  0.02443  0.54815  0.00040  1.0000
  S   S69       1.0  0.02267  0.56146  0.27527  1.0000
  H   H399      1.0  0.23206  0.77984  0.17966  1.0000
  S   S70       1.0  0.20477  0.55699  0.30200  1.0000
  H   H400      1.0  0.21473  0.96753  0.23056  1.0000
  C   C229      1.0  0.12188  0.55166  0.30039  1.0000
  C   C230      1.0  0.13656  0.55620  0.29067  1.0000
  C   C231      1.0  0.15032  0.54712  0.30047  1.0000
  S   S71       1.0  0.04003  0.53777  0.32641  1.0000
  H   H401      1.0  0.19555  0.93949  0.25964  1.0000
  H   H402      1.0  0.02521  0.56088  0.03678  1.0000
  Fe  Fe36      1.0  0.05984  0.50627  0.32165  1.0000
  H   H403      1.0  0.16154  0.55013  0.29266  1.0000
  H   H404      1.0  0.05395  0.95042  0.00708  1.0000
  H   H405      1.0  0.24741  0.54848  0.04598  1.0000
  H   H406      1.0  0.09771  0.50050  0.27511  1.0000
  H   H407      1.0  0.03080  0.55903  0.16438  1.0000
  H   H408      1.0  0.24967  0.63942  0.00344  1.0000
  H   H409      1.0  0.26266  0.50701  0.28319  1.0000
  H   H410      1.0  0.01970  0.59003  0.17415  1.0000
  C   C232      1.0  0.14946  0.53351  0.32011  1.0000
  C   C233      1.0  0.10844  0.49634  0.00154  1.0000
  C   C234      1.0  0.02678  0.85170  0.31876  1.0000
  C   C235      1.0  0.02877  0.60398  0.24465  1.0000
  H   H411      1.0  0.02650  0.84976  0.30138  1.0000
  H   H412      1.0  0.04080  0.60352  0.24944  1.0000
  H   H413      1.0  0.24357  0.82926  0.17243  1.0000
  C   C236      1.0  0.09159  0.50242  0.00935  1.0000
  H   H414      1.0  0.03303  0.65694  0.27824  1.0000
  N   N16       1.0  0.03604  0.82692  0.32792  1.0000
  C   C237      1.0  0.20162  0.98554  0.26719  1.0000
  H   H415      1.0  0.03305  0.63554  0.21989  1.0000
  C   C238      1.0  0.24839  0.52867  0.05587  1.0000
  H   H416      1.0  0.01550  0.51977  0.16090  1.0000
  H   H417      1.0  0.13819  0.98540  0.31275  1.0000
  C   C239      1.0  0.26421  0.52616  0.06689  1.0000
  H   H418      1.0  0.01774  0.56740  0.20943  1.0000
  C   C240      1.0  0.25694  0.62144  0.99829  1.0000
  C   C241      1.0  0.06363  0.80438  0.32388  1.0000
  Fe  Fe37      1.0  0.21866  0.57205  0.32977  1.0000
  H   H419      1.0  0.24289  0.95999  0.27728  1.0000
  H   H420      1.0  0.09815  0.59595  0.32697  1.0000
  C   C242      1.0  0.01916  0.60912  0.32869  1.0000
  H   H421      1.0  0.20370  0.94497  0.28486  1.0000
  H   H422      1.0  0.24826  0.80257  0.15361  1.0000
  H   H423      1.0  0.26317  0.53580  0.08282  1.0000
  C   C243      1.0  0.03092  0.65341  0.29529  1.0000
  C   C244      1.0  0.24422  0.78488  0.18423  1.0000
  H   H424      1.0  0.16949  0.99005  0.26470  1.0000
  H   H425      1.0  0.02397  0.89918  0.31910  1.0000
  C   C245      1.0  0.02042  0.55256  0.19616  1.0000
  H   H426      1.0  0.08916  0.52624  0.01001  1.0000
  H   H427      1.0  0.05265  0.83326  0.30208  1.0000
  H   H428      1.0  0.23887  0.53043  0.06785  1.0000
  H   H429      1.0  0.01664  0.51584  0.09155  1.0000
  H   H430      1.0  0.25425  0.84310  0.13380  1.0000
  H   H431      1.0  0.11610  0.50951  0.01187  1.0000
  C   C246      1.0  0.01492  0.51692  0.07437  1.0000
  H   H432      1.0  0.25598  0.92141  0.25595  1.0000
  C   C247      1.0  0.02757  0.57186  0.17847  1.0000
  H   H433      1.0  0.06149  0.78570  0.31322  1.0000
  H   H434      1.0  0.26127  0.84712  0.19717  1.0000
  H   H435      1.0  0.10496  0.63205  0.30117  1.0000
  C   C248      1.0  0.25040  0.96609  0.26417  1.0000
  H   H436      1.0  0.24362  0.79174  0.20086  1.0000
  H   H437      1.0  0.15942  0.98329  0.24128  1.0000
  H   H438      1.0  0.25513  0.54814  0.21010  1.0000
  S   S72       1.0  0.23072  0.50058  0.26785  1.0000
  C   C249      1.0  0.13483  0.52977  0.33002  1.0000
  S   S73       1.0  0.06262  0.95799  0.31758  1.0000
  C   C250      1.0  0.02966  0.79811  0.32025  1.0000
  C   C251      1.0  0.17016  0.97779  0.24985  1.0000
  H   H439      1.0  0.07590  0.81162  0.32107  1.0000
  H   H440      1.0  0.11750  0.49425  0.28101  1.0000
  C   C252      1.0  0.25786  0.94424  0.25203  1.0000
  H   H441      1.0  0.08515  0.63934  0.30836  1.0000
  H   H442      1.0  0.13730  0.56649  0.27540  1.0000
  H   H443      1.0  0.05581  0.69513  0.32766  1.0000
  Fe  Fe38      1.0  0.19168  0.52827  0.32526  1.0000
  H   H444      1.0  0.02219  0.49957  0.18205  1.0000
  H   H445      1.0  0.03840  0.58235  0.18420  1.0000
  C   C253      1.0  0.20437  0.95219  0.26824  1.0000
  C   C254      1.0  0.01772  0.58596  0.25476  1.0000
  H   H446      1.0  0.18787  0.96303  0.22825  1.0000
  H   H447      1.0  0.04359  0.88814  0.31442  1.0000
  H   H448      1.0  0.25092  0.76428  0.18268  1.0000
  H   H449      1.0  0.11001  0.53511  0.32795  1.0000
  C   C255      1.0  0.02433  0.62218  0.22792  1.0000
  H   H450      1.0  0.16924  0.95399  0.25336  1.0000
  H   H451      1.0  0.01562  0.56417  0.07290  1.0000
  H   H452      1.0  0.03000  0.53834  0.20173  1.0000
  C   C256      1.0  0.05256  0.83005  0.31939  1.0000
  C   C257      1.0  0.12112  0.53856  0.32017  1.0000
  H   H453      1.0  0.03164  0.61554  0.32945  1.0000
  H   H454      1.0  0.03985  0.63784  0.30054  1.0000
  C   C258      1.0  0.01559  0.54569  0.03238  1.0000
  H   H455      1.0  0.08052  0.95240  0.00693  1.0000
  H   H456      1.0  0.03668  0.77946  0.32604  1.0000
  H   H457      1.0  0.21622  0.94652  0.26230  1.0000
  C   C259      1.0  0.03282  0.88280  0.32363  1.0000
  H   H458      1.0  0.12640  0.60280  0.32216  1.0000
  H   H459      1.0  0.25744  0.50209  0.19026  1.0000
  H   H460      1.0  0.03267  0.67479  0.30307  1.0000
  H   H461      1.0  0.26419  0.55262  0.17448  1.0000
  C   C260      1.0  0.18462  0.98434  0.23554  1.0000
  C   C261      1.0  0.21303  0.99153  0.23241  1.0000
  H   H462      1.0  0.10028  0.66249  0.31820  1.0000
  H   H463      1.0  0.05827  0.84995  0.32581  1.0000
  H   H464      1.0  0.19211  0.99048  0.27853  1.0000
  H   H465      1.0  0.07551  0.90230  0.32893  1.0000
  H   H466      1.0  0.01957  0.51691  0.23091  1.0000
  H   H467      1.0  0.25878  0.58387  0.07390  1.0000
  H   H468      1.0  0.02034  0.52323  0.03388  1.0000
  H   H469      1.0  0.01897  0.59054  0.31747  1.0000
  H   H470      1.0  0.05859  0.64104  0.32929  1.0000
  H   H471      1.0  0.02664  0.51481  0.06688  1.0000
  S   S74       1.0  0.23707  0.53712  0.32531  1.0000
  H   H472      1.0  0.26257  0.50214  0.16313  1.0000
  H   H473      1.0  0.24625  0.50919  0.04592  1.0000
  S   S75       1.0  0.21418  0.98932  0.31935  1.0000
  H   H474      1.0  0.26453  0.76925  0.14492  1.0000
  C   C262      1.0  0.26309  0.49439  0.26889  1.0000
  H   H475      1.0  0.02560  0.99373  0.17153  1.0000
  C   C263      1.0  0.09600  0.66449  0.36472  1.0000
  H   H476      1.0  0.09871  0.61049  0.38883  1.0000
  C   C264      1.0  0.18677  0.91330  0.36989  1.0000
  C   C265      1.0  0.18569  0.86251  0.38193  1.0000
  H   H477      1.0  0.23460  0.89116  0.34379  1.0000
  H   H478      1.0  0.26403  0.63990  0.42625  1.0000
  H   H479      1.0  0.08843  0.59007  0.36880  1.0000
  H   H480      1.0  0.06261  0.79666  0.34026  1.0000
  Fe  Fe39      1.0  0.05274  0.77656  0.43501  1.0000
  S   S76       1.0  0.03938  0.79257  0.40723  1.0000
  S   S77       1.0  0.04476  0.76108  0.46792  1.0000
  Fe  Fe40      1.0  0.08444  0.78352  0.41134  1.0000
  S   S78       1.0  0.07338  0.80009  0.38208  1.0000
  S   S79       1.0  0.10955  0.76772  0.41096  1.0000
  Fe  Fe41      1.0  0.05821  0.82724  0.40331  1.0000
  S   S80       1.0  0.05105  0.87470  0.39719  1.0000
  Fe  Fe42      1.0  0.05557  0.76450  0.38777  1.0000
  S   S81       1.0  0.04878  0.73819  0.35925  1.0000
  S   S82       1.0  0.07058  0.81328  0.43262  1.0000
  S   S83       1.0  0.06754  0.74601  0.41556  1.0000
  Fe  Fe43      1.0  0.19560  0.80973  0.43182  1.0000
  S   S84       1.0  0.20135  0.79299  0.39968  1.0000
  S   S85       1.0  0.17211  0.83084  0.43864  1.0000
  Fe  Fe44      1.0  0.22893  0.79958  0.44769  1.0000
  S   S86       1.0  0.23680  0.78165  0.41631  1.0000
  S   S87       1.0  0.24672  0.79989  0.47417  1.0000
  Fe  Fe45      1.0  0.22338  0.81943  0.40300  1.0000
  S   S88       1.0  0.23256  0.84777  0.37629  1.0000
  Fe  Fe46      1.0  0.21407  0.75662  0.41583  1.0000
  S   S89       1.0  0.20991  0.70759  0.40959  1.0000
  S   S90       1.0  0.21693  0.83862  0.43413  1.0000
  S   S91       1.0  0.20692  0.77202  0.44827  1.0000
  C   C266      1.0  0.12676  0.78718  0.41711  1.0000
  C   C267      1.0  0.14119  0.77339  0.41372  1.0000
  C   C268      1.0  0.15515  0.78674  0.41999  1.0000
  C   C269      1.0  0.15481  0.81396  0.42989  1.0000
  C   C270      1.0  0.14040  0.82795  0.43312  1.0000
  C   C271      1.0  0.12641  0.81469  0.42668  1.0000
  H   H481      1.0  0.14157  0.75204  0.40644  1.0000
  H   H482      1.0  0.16616  0.77571  0.41745  1.0000
  H   H483      1.0  0.14005  0.84903  0.44079  1.0000
  H   H484      1.0  0.11536  0.82542  0.42951  1.0000
  C   C272      1.0  0.21973  0.64518  0.35405  1.0000
  C   C273      1.0  0.22578  0.67396  0.35368  1.0000
  C   C274      1.0  0.22248  0.69377  0.37012  1.0000
  C   C275      1.0  0.21308  0.68498  0.38721  1.0000
  C   C276      1.0  0.20672  0.65645  0.38731  1.0000
  C   C277      1.0  0.20993  0.63673  0.37081  1.0000
  H   H485      1.0  0.26317  0.89782  0.55554  1.0000
  H   H486      1.0  0.22749  0.71557  0.36979  1.0000
  H   H487      1.0  0.19941  0.64943  0.40040  1.0000
  H   H488      1.0  0.18366  0.91502  0.43281  1.0000
  C   C278      1.0  0.22876  0.94799  0.37745  1.0000
  C   C279      1.0  0.22697  0.93182  0.39605  1.0000
  C   C280      1.0  0.22754  0.90104  0.39578  1.0000
  C   C281      1.0  0.23046  0.88623  0.37699  1.0000
  C   C282      1.0  0.23228  0.90242  0.35839  1.0000
  C   C283      1.0  0.23124  0.93317  0.35856  1.0000
  H   H489      1.0  0.22503  0.94315  0.41070  1.0000
  H   H490      1.0  0.22613  0.88888  0.41018  1.0000
  H   H491      1.0  0.19869  0.91441  0.37631  1.0000
  H   H492      1.0  0.25375  0.89267  0.58039  1.0000
  H   H493      1.0  0.03502  0.88592  0.34048  1.0000
  H   H494      1.0  0.17898  0.95426  0.38521  1.0000
  C   C284      1.0  0.06580  0.89042  0.35931  1.0000
  C   C285      1.0  0.05588  0.89871  0.37590  1.0000
  C   C286      1.0  0.04896  0.92657  0.37524  1.0000
  C   C287      1.0  0.05155  0.94562  0.35803  1.0000
  H   H495      1.0  0.20513  0.61477  0.37132  1.0000
  H   H496      1.0  0.07145  0.86933  0.35972  1.0000
  H   H497      1.0  0.04133  0.93333  0.38801  1.0000
  H   H498      1.0  0.04585  0.96667  0.35760  1.0000
  C   C288      1.0  0.05465  0.63846  0.36259  1.0000
  C   C289      1.0  0.05206  0.65471  0.38091  1.0000
  C   C290      1.0  0.05078  0.68537  0.38009  1.0000
  C   C291      1.0  0.05190  0.70005  0.36088  1.0000
  H   H499      1.0  0.02234  0.57825  0.35422  1.0000
  H   H500      1.0  0.08944  0.67231  0.35104  1.0000
  H   H501      1.0  0.05083  0.64351  0.39581  1.0000
  H   H502      1.0  0.04844  0.69755  0.39429  1.0000
  C   C292      1.0  0.09833  0.61871  0.33321  1.0000
  H   H503      1.0  0.11922  0.65103  0.37250  1.0000
  H   H504      1.0  0.03626  0.73396  0.50721  1.0000
  H   H505      1.0  0.26436  0.79570  0.53920  1.0000
  H   H506      1.0  0.15719  0.83985  0.37228  1.0000
  H   H507      1.0  0.25429  0.90342  0.49483  1.0000
  H   H508      1.0  0.02080  0.50656  0.63717  1.0000
  H   H509      1.0  0.22597  0.83208  0.53327  1.0000
  S   S92       1.0  0.05541  0.59986  0.36438  1.0000
  C   C293      1.0  0.17353  0.90033  0.40380  1.0000
  C   C294      1.0  0.02656  0.74683  0.47773  1.0000
  S   S93       1.0  0.07760  0.53754  0.33447  1.0000
  H   H510      1.0  0.16546  0.91932  0.40432  1.0000
  C   C295      1.0  0.02578  0.73488  0.49810  1.0000
  N   N17       1.0  0.11239  0.62328  0.34667  1.0000
  H   H511      1.0  0.15202  0.62647  0.33154  1.0000
  H   H512      1.0  0.11781  0.66991  0.34852  1.0000
  H   H513      1.0  0.18860  0.95897  0.36043  1.0000
  H   H514      1.0  0.03948  0.80543  0.35782  1.0000
  H   H515      1.0  0.23904  0.82053  0.62672  1.0000
  H   H516      1.0  0.24609  0.92263  0.43493  1.0000
  C   C296      1.0  0.25518  0.88307  0.56454  1.0000
  H   H517      1.0  0.25908  0.84367  0.44370  1.0000
  H   H518      1.0  0.18971  0.82473  0.36168  1.0000
  C   C297      1.0  0.11213  0.65225  0.35812  1.0000
  H   H519      1.0  0.17966  0.84577  0.39198  1.0000
  N   N18       1.0  0.17690  0.89096  0.38155  1.0000
  H   H520      1.0  0.23188  0.58284  0.37411  1.0000
  H   H521      1.0  0.15405  0.90714  0.37355  1.0000
  H   H522      1.0  0.02038  0.80883  0.53537  1.0000
  C   C298      1.0  0.05480  0.68389  0.34256  1.0000
  C   C299      1.0  0.11353  0.59800  0.36184  1.0000
  H   H523      1.0  0.24680  0.79153  0.61128  1.0000
  C   C300      1.0  0.06097  0.93688  0.34107  1.0000
  C   C301      1.0  0.25054  0.85830  0.48598  1.0000
  H   H524      1.0  0.16727  0.88264  0.41262  1.0000
  C   C302      1.0  0.26244  0.85228  0.56534  1.0000
  H   H525      1.0  0.19711  0.86544  0.38962  1.0000
  H   H526      1.0  0.23778  0.79969  0.53518  1.0000
  C   C303      1.0  0.25621  0.82966  0.48678  1.0000
  H   H527      1.0  0.23990  0.86272  0.47778  1.0000
  H   H528      1.0  0.01688  0.61352  0.36307  1.0000
  H   H529      1.0  0.25865  0.90846  0.45430  1.0000
  C   C304      1.0  0.23689  0.82309  0.53973  1.0000
  H   H530      1.0  0.26401  0.66314  0.36839  1.0000
  H   H531      1.0  0.14018  0.86163  0.36934  1.0000
  Fe  Fe47      1.0  0.22163  0.50944  0.34643  1.0000
  C   C305      1.0  0.25289  0.90307  0.43945  1.0000
  C   C306      1.0  0.15160  0.86064  0.37720  1.0000
  H   H532      1.0  0.24122  0.55503  0.38965  1.0000
  N   N19       1.0  0.25205  0.82838  0.57437  1.0000
  H   H533      1.0  0.08863  0.64867  0.37360  1.0000
  H   H534      1.0  0.23338  0.68078  0.34081  1.0000
  C   C307      1.0  0.23519  0.59573  0.40708  1.0000
  H   H535      1.0  0.24048  0.64447  0.38586  1.0000
  C   C308      1.0  0.24043  0.65621  0.42724  1.0000
  H   H536      1.0  0.25032  0.61707  0.43953  1.0000
  H   H537      1.0  0.24627  0.83577  0.53176  1.0000
  H   H538      1.0  0.18114  0.85409  0.34818  1.0000
  H   H539      1.0  0.18864  0.90665  0.35328  1.0000
  C   C309      1.0  0.18780  0.90847  0.41692  1.0000
  H   H540      1.0  0.24243  0.66773  0.44225  1.0000
  C   C310      1.0  0.06816  0.90925  0.34192  1.0000
  H   H541      1.0  0.24222  0.85633  0.59873  1.0000
  N   N20       1.0  0.10228  0.74097  0.47277  1.0000
  C   C311      1.0  0.09146  0.76637  0.46918  1.0000
  C   C312      1.0  0.09764  0.71681  0.45800  1.0000
  C   C313      1.0  0.11882  0.75139  0.46802  1.0000
  C   C314      1.0  0.10048  0.73166  0.49534  1.0000
  C   C315      1.0  0.09504  0.79470  0.48142  1.0000
  C   C316      1.0  0.08106  0.70394  0.46122  1.0000
  C   C317      1.0  0.13042  0.72911  0.45851  1.0000
  C   C318      1.0  0.10951  0.70412  0.50168  1.0000
  H   H542      1.0  0.09152  0.77226  0.45225  1.0000
  H   H543      1.0  0.07919  0.76057  0.47343  1.0000
  H   H544      1.0  0.10563  0.69788  0.45889  1.0000
  H   H545      1.0  0.09862  0.72468  0.44149  1.0000
  H   H546      1.0  0.11891  0.76967  0.45649  1.0000
  H   H547      1.0  0.12425  0.76086  0.48219  1.0000
  H   H548      1.0  0.10446  0.74934  0.50594  1.0000
  H   H549      1.0  0.08796  0.72795  0.49956  1.0000
  H   H550      1.0  0.09313  0.79173  0.49850  1.0000
  H   H551      1.0  0.10696  0.80332  0.47818  1.0000
  H   H552      1.0  0.08681  0.81198  0.47646  1.0000
  H   H553      1.0  0.07929  0.68626  0.44959  1.0000
  H   H554      1.0  0.07930  0.69394  0.47692  1.0000
  H   H555      1.0  0.07182  0.72024  0.45842  1.0000
  H   H556      1.0  0.14224  0.73925  0.45772  1.0000
  H   H557      1.0  0.12735  0.72373  0.44215  1.0000
  H   H558      1.0  0.13125  0.70868  0.46773  1.0000
  H   H559      1.0  0.10595  0.68453  0.49272  1.0000
  H   H560      1.0  0.10693  0.69926  0.51845  1.0000
  H   H561      1.0  0.12226  0.70764  0.50014  1.0000
  H   H562      1.0  0.04574  0.84238  0.35688  1.0000
  C   C319      1.0  0.26017  0.79907  0.57348  1.0000
  H   H563      1.0  0.25158  0.78073  0.57498  1.0000
  C   C320      1.0  0.02134  0.83751  0.36327  1.0000
  C   C321      1.0  0.18025  0.94469  0.36936  1.0000
  Fe  Fe48      1.0  0.05823  0.57053  0.33606  1.0000
  H   H564      1.0  0.24398  0.88336  0.55621  1.0000
  H   H565      1.0  0.22532  0.61129  0.40611  1.0000
  H   H566      1.0  0.24440  0.88495  0.44209  1.0000
  H   H567      1.0  0.08726  0.62064  0.34237  1.0000
  H   H568      1.0  0.12380  0.60062  0.37204  1.0000
  H   H569      1.0  0.25049  0.61665  0.37201  1.0000
  C   C322      1.0  0.25205  0.63057  0.42514  1.0000
  H   H570      1.0  0.01960  0.76246  0.54587  1.0000
  C   C323      1.0  0.24029  0.81241  0.61039  1.0000
  H   H571      1.0  0.23284  0.94540  0.34415  1.0000
  H   H572      1.0  0.23353  0.58467  0.42252  1.0000
  C   C324      1.0  0.23653  0.82659  0.56374  1.0000
  C   C325      1.0  0.25096  0.63046  0.38630  1.0000
  C   C326      1.0  0.14258  0.62231  0.34339  1.0000
  C   C327      1.0  0.09958  0.59294  0.37695  1.0000
  C   C328      1.0  0.12669  0.62242  0.33245  1.0000
  H   H573      1.0  0.22835  0.80828  0.60472  1.0000
  H   H574      1.0  0.09767  0.68383  0.37497  1.0000
  S   S94       1.0  0.22835  0.98661  0.37844  1.0000
  C   C329      1.0  0.25867  0.88130  0.49582  1.0000
  H   H575      1.0  0.24205  0.67285  0.41469  1.0000
  H   H576      1.0  0.25661  0.84126  0.41668  1.0000
  N   N21       1.0  0.25058  0.61189  0.40583  1.0000
  H   H577      1.0  0.19442  0.92734  0.41027  1.0000
  H   H578      1.0  0.01564  0.81456  0.57165  1.0000
  H   H579      1.0  0.16313  0.88712  0.35337  1.0000
  C   C330      1.0  0.05632  0.65322  0.34343  1.0000
  S   S95       1.0  0.22599  0.61999  0.33440  1.0000
  C   C331      1.0  0.03636  0.82739  0.35157  1.0000
  S   S96       1.0  0.20459  0.54554  0.35297  1.0000
  H   H580      1.0  0.22964  0.80755  0.56981  1.0000
  H   H581      1.0  0.16898  0.94570  0.36118  1.0000
  H   H582      1.0  0.25402  0.55257  0.42195  1.0000
  H   H583      1.0  0.19564  0.88959  0.41917  1.0000
  H   H584      1.0  0.26030  0.84023  0.60512  1.0000
  C   C332      1.0  0.18969  0.84898  0.36034  1.0000
  C   C333      1.0  0.16152  0.88764  0.37068  1.0000
  H   H585      1.0  0.25767  0.89140  0.40754  1.0000
  H   H586      1.0  0.14911  0.85996  0.39428  1.0000
  H   H587      1.0  0.11540  0.57717  0.35316  1.0000
  H   H588      1.0  0.22896  0.84556  0.56779  1.0000
  H   H589      1.0  0.10146  0.57227  0.38574  1.0000
  C   C334      1.0  0.24908  0.83584  0.59713  1.0000
  H   H590      1.0  0.22811  0.64870  0.42768  1.0000
  H   H591      1.0  0.22096  0.56198  0.39295  1.0000
  H   H592      1.0  0.02248  0.86072  0.36825  1.0000
  H   H593      1.0  0.01677  0.79075  0.66008  1.0000
  H   H594      1.0  0.20139  0.85646  0.35466  1.0000
  H   H595      1.0  0.14340  0.63960  0.35547  1.0000
  H   H596      1.0  0.13407  0.51939  0.34526  1.0000
  H   H597      1.0  0.02004  0.82495  0.37810  1.0000
  C   C335      1.0  0.23244  0.57271  0.38987  1.0000
  H   H598      1.0  0.14502  0.60053  0.35034  1.0000
  S   S97       1.0  0.16596  0.51881  0.33243  1.0000
  H   H599      1.0  0.02469  0.66440  0.33715  1.0000
  H   H600      1.0  0.26456  0.57945  0.38942  1.0000
  C   C336      1.0  0.26431  0.56736  0.42222  1.0000
  C   C337      1.0  0.26405  0.59087  0.40480  1.0000
  H   H601      1.0  0.01542  0.53328  0.59656  1.0000
  C   C338      1.0  0.26465  0.89586  0.42167  1.0000
  Fe  Fe49      1.0  0.04795  0.81137  0.79541  1.0000
  S   S98       1.0  0.04396  0.79455  0.82846  1.0000
  C   C339      1.0  0.26208  0.75167  0.76222  1.0000
  Fe  Fe50      1.0  0.08363  0.80794  0.80025  1.0000
  S   S99       1.0  0.08179  0.79246  0.83352  1.0000
  S   S100      1.0  0.10704  0.81276  0.78318  1.0000
  Fe  Fe51      1.0  0.06311  0.76177  0.82241  1.0000
  S   S101      1.0  0.06544  0.71186  0.82741  1.0000
  Fe  Fe52      1.0  0.06301  0.82646  0.83669  1.0000
  S   S102      1.0  0.06017  0.85526  0.86538  1.0000
  S   S103      1.0  0.06566  0.77606  0.78856  1.0000
  S   S104      1.0  0.06625  0.84441  0.80416  1.0000
  Fe  Fe53      1.0  0.19383  0.78466  0.82350  1.0000
  S   S105      1.0  0.20899  0.79602  0.85068  1.0000
  S   S106      1.0  0.16838  0.78742  0.83405  1.0000
  Fe  Fe54      1.0  0.22250  0.77261  0.79479  1.0000
  S   S107      1.0  0.23930  0.78418  0.81995  1.0000
  S   S108      1.0  0.22950  0.75428  0.76262  1.0000
  Fe  Fe55      1.0  0.22334  0.75729  0.84087  1.0000
  S   S109      1.0  0.23371  0.72689  0.86484  1.0000
  Fe  Fe56      1.0  0.22325  0.82195  0.82755  1.0000
  S   S110      1.0  0.23232  0.86819  0.83380  1.0000
  S   S111      1.0  0.20721  0.74376  0.81557  1.0000
  S   S112      1.0  0.20749  0.81267  0.80051  1.0000
  Fe  Fe57      1.0  0.05579  0.52289  0.94017  1.0000
  S   S113      1.0  0.04131  0.54306  0.91491  1.0000
  H   H602      1.0  0.26417  0.71025  0.70912  1.0000
  Fe  Fe58      1.0  0.08582  0.52600  0.91255  1.0000
  S   S114      1.0  0.07353  0.54603  0.88536  1.0000
  S   S115      1.0  0.11023  0.50749  0.90845  1.0000
  Fe  Fe59      1.0  0.06145  0.57454  0.90908  1.0000
  S   S116      1.0  0.05681  0.62368  0.90521  1.0000
  Fe  Fe60      1.0  0.05455  0.51335  0.89287  1.0000
  H   H603      1.0  0.02662  0.59787  0.89320  1.0000
  S   S117      1.0  0.07510  0.55668  0.93619  1.0000
  H   H604      1.0  0.15280  0.87739  0.86042  1.0000
  Fe  Fe61      1.0  0.19626  0.55045  0.93202  1.0000
  S   S118      1.0  0.19820  0.53369  0.89936  1.0000
  S   S119      1.0  0.17218  0.56329  0.94441  1.0000
  Fe  Fe62      1.0  0.23175  0.54731  0.93851  1.0000
  S   S120      1.0  0.23592  0.52970  0.90566  1.0000
  H   H605      1.0  0.04407  0.53785  0.83242  1.0000
  Fe  Fe63      1.0  0.21879  0.56422  0.89598  1.0000
  S   S121      1.0  0.22006  0.58981  0.86537  1.0000
  N   N22       1.0  0.02611  0.91699  0.80888  1.0000
  S   S122      1.0  0.21358  0.95708  0.90710  1.0000
  S   S123      1.0  0.21584  0.58356  0.92808  1.0000
  S   S124      1.0  0.21182  0.51560  0.94507  1.0000
  C   C340      1.0  0.11011  0.73521  0.82127  1.0000
  C   C341      1.0  0.12756  0.52511  0.91641  1.0000
  C   C342      1.0  0.12743  0.55280  0.92572  1.0000
  C   C343      1.0  0.14127  0.56461  0.93384  1.0000
  C   C344      1.0  0.15539  0.54923  0.93221  1.0000
  C   C345      1.0  0.15560  0.52207  0.92214  1.0000
  C   C346      1.0  0.14173  0.51001  0.91440  1.0000
  H   H606      1.0  0.11664  0.56485  0.92710  1.0000
  H   H607      1.0  0.14104  0.58569  0.94153  1.0000
  H   H608      1.0  0.16638  0.50994  0.92095  1.0000
  C   C347      1.0  0.25760  0.87655  0.88524  1.0000
  C   C348      1.0  0.24825  0.74569  0.75173  1.0000
  C   C349      1.0  0.03373  0.57963  0.86314  1.0000
  N   N23       1.0  0.11458  0.71658  0.83972  1.0000
  H   H609      1.0  0.26347  0.69518  0.83917  1.0000
  N   N24       1.0  0.17192  0.88754  0.83867  1.0000
  C   C350      1.0  0.21859  0.93320  0.88612  1.0000
  C   C351      1.0  0.21296  0.90417  0.88674  1.0000
  C   C352      1.0  0.21661  0.88428  0.87055  1.0000
  C   C353      1.0  0.22627  0.89301  0.85373  1.0000
  C   C354      1.0  0.23192  0.92201  0.85311  1.0000
  C   C355      1.0  0.22802  0.94208  0.86912  1.0000
  H   H610      1.0  0.20568  0.89707  0.89986  1.0000
  H   H611      1.0  0.21220  0.86205  0.87133  1.0000
  H   H612      1.0  0.23945  0.92900  0.84022  1.0000
  H   H613      1.0  0.23249  0.96429  0.86844  1.0000
  C   C356      1.0  0.22881  0.68916  0.86552  1.0000
  C   C357      1.0  0.23441  0.67159  0.88176  1.0000
  C   C358      1.0  0.23130  0.64128  0.88231  1.0000
  C   C359      1.0  0.22282  0.62818  0.86635  1.0000
  C   C360      1.0  0.21714  0.64575  0.85014  1.0000
  C   C361      1.0  0.21994  0.67617  0.84987  1.0000
  H   H614      1.0  0.24123  0.68141  0.89398  1.0000
  H   H615      1.0  0.23578  0.62795  0.89484  1.0000
  H   H616      1.0  0.21052  0.63580  0.83779  1.0000
  H   H617      1.0  0.21539  0.68944  0.83743  1.0000
  C   C362      1.0  0.06355  0.68827  0.84966  1.0000
  C   C363      1.0  0.06868  0.65909  0.84793  1.0000
  C   C364      1.0  0.06719  0.63934  0.86492  1.0000
  C   C365      1.0  0.06009  0.64822  0.88374  1.0000
  C   C366      1.0  0.05511  0.67746  0.88554  1.0000
  C   C367      1.0  0.05692  0.69743  0.86870  1.0000
  H   H618      1.0  0.07382  0.65169  0.83330  1.0000
  H   H619      1.0  0.07141  0.61718  0.86343  1.0000
  H   H620      1.0  0.04970  0.68471  0.90005  1.0000
  H   H621      1.0  0.05291  0.71974  0.87035  1.0000
  C   C368      1.0  0.06147  0.89390  0.86351  1.0000
  C   C369      1.0  0.05661  0.91105  0.88062  1.0000
  C   C370      1.0  0.05655  0.94183  0.87918  1.0000
  C   C371      1.0  0.06122  0.95573  0.86050  1.0000
  C   C372      1.0  0.06640  0.93859  0.84355  1.0000
  C   C373      1.0  0.06674  0.90784  0.84515  1.0000
  H   H622      1.0  0.05259  0.90045  0.89493  1.0000
  H   H623      1.0  0.05239  0.95475  0.89226  1.0000
  H   H624      1.0  0.07020  0.94917  0.82914  1.0000
  H   H625      1.0  0.07102  0.89492  0.83216  1.0000
  C   C374      1.0  0.12447  0.80835  0.79716  1.0000
  C   C375      1.0  0.13853  0.80246  0.78633  1.0000
  C   C376      1.0  0.15229  0.79667  0.79730  1.0000
  C   C377      1.0  0.15197  0.79660  0.81918  1.0000
  C   C378      1.0  0.13803  0.80337  0.82994  1.0000
  C   C379      1.0  0.12442  0.80971  0.81900  1.0000
  H   H626      1.0  0.13869  0.80167  0.76940  1.0000
  H   H627      1.0  0.16298  0.79156  0.78884  1.0000
  H   H628      1.0  0.13773  0.80369  0.84687  1.0000
  H   H629      1.0  0.11381  0.81512  0.82748  1.0000
  H   H630      1.0  0.10473  0.66336  0.86521  1.0000
  C   C380      1.0  0.03227  0.85816  0.74385  1.0000
  H   H631      1.0  0.09762  0.73156  0.81744  1.0000
  H   H632      1.0  0.11453  0.74553  0.78858  1.0000
  H   H633      1.0  0.04444  0.85467  0.74721  1.0000
  H   H634      1.0  0.18588  0.90232  0.86449  1.0000
  H   H635      1.0  0.03282  0.97646  0.95078  1.0000
  C   C381      1.0  0.23750  0.78953  0.90388  1.0000
  N   N25       1.0  0.11220  0.50245  0.97872  1.0000
  H   H636      1.0  0.03504  0.82465  0.69360  1.0000
  H   H637      1.0  0.03834  0.55936  0.87046  1.0000
  C   C382      1.0  0.03066  0.62841  0.83062  1.0000
  N   N26       1.0  0.25470  0.67481  0.79731  1.0000
  C   C383      1.0  0.04013  0.90397  0.79774  1.0000
  H   H638      1.0  0.03725  0.88203  0.79125  1.0000
  H   H639      1.0  0.01618  0.61292  0.87198  1.0000
  C   C384      1.0  0.10457  0.72631  0.85817  1.0000
  C   C385      1.0  0.13154  0.72065  0.84500  1.0000
  C   C386      1.0  0.10877  0.75628  0.86789  1.0000
  H   H640      1.0  0.10516  0.71059  0.87141  1.0000
  H   H641      1.0  0.13480  0.74429  0.84399  1.0000
  H   H642      1.0  0.13339  0.71431  0.86163  1.0000
  H   H643      1.0  0.10952  0.77438  0.85641  1.0000
  H   H644      1.0  0.09954  0.76222  0.87955  1.0000
  H   H645      1.0  0.11991  0.75525  0.87640  1.0000
  H   H646      1.0  0.26162  0.76323  0.77696  1.0000
  H   H647      1.0  0.15117  0.91274  0.83270  1.0000
  H   H648      1.0  0.15990  0.86215  0.80252  1.0000
  H   H649      1.0  0.24285  0.65057  0.82250  1.0000
  C   C387      1.0  0.04787  0.92200  0.77986  1.0000
  H   H650      1.0  0.20973  0.54868  0.83101  1.0000
  H   H651      1.0  0.05219  0.94432  0.97941  1.0000
  H   H652      1.0  0.18174  0.94742  0.82933  1.0000
  C   C388      1.0  0.05906  0.93893  0.99328  1.0000
  C   C389      1.0  0.02682  0.98206  0.96524  1.0000
  H   H653      1.0  0.21803  0.66722  0.77431  1.0000
  H   H654      1.0  0.26031  0.73247  0.83272  1.0000
  C   C390      1.0  0.11368  0.66265  0.85241  1.0000
  H   H655      1.0  0.26303  0.65127  0.82426  1.0000
  C   C391      1.0  0.22915  0.50757  0.84367  1.0000
  C   C392      1.0  0.16297  0.86640  0.85273  1.0000
  H   H656      1.0  0.03412  0.91044  0.84058  1.0000
  C   C393      1.0  0.02116  0.59233  0.87810  1.0000
  H   H657      1.0  0.18309  0.84090  0.86397  1.0000
  C   C394      1.0  0.17232  0.85135  0.87011  1.0000
  H   H658      1.0  0.13260  0.52872  0.98625  1.0000
  H   H659      1.0  0.03827  0.63033  0.81640  1.0000
  H   H660      1.0  0.02241  0.64708  0.83060  1.0000
  H   H661      1.0  0.14247  0.86667  0.81853  1.0000
  H   H662      1.0  0.15801  0.84823  0.84345  1.0000
  H   H663      1.0  0.12185  0.96656  0.98748  1.0000
  C   C395      1.0  0.18524  0.55349  0.82706  1.0000
  H   H664      1.0  0.23012  0.76968  0.90177  1.0000
  C   C396      1.0  0.02132  0.59938  0.83077  1.0000
  H   H665      1.0  0.20430  0.88133  0.80615  1.0000
  H   H666      1.0  0.10859  0.55774  0.99643  1.0000
  H   H667      1.0  0.16504  0.83353  0.87719  1.0000
  C   C397      1.0  0.26370  0.72195  0.72381  1.0000
  H   H668      1.0  0.17513  0.86662  0.88298  1.0000
  C   C398      1.0  0.15190  0.87839  0.80970  1.0000
  H   H669      1.0  0.14618  0.89030  0.79678  1.0000
  H   H670      1.0  0.02595  0.78364  0.73876  1.0000
  H   H671      1.0  0.21055  0.49974  0.86607  1.0000
  C   C399      1.0  0.21286  0.49488  0.84926  1.0000
  S   S125      1.0  0.25322  0.54999  0.95964  1.0000
  H   H672      1.0  0.03906  0.56129  0.81132  1.0000
  H   H673      1.0  0.03716  0.88336  0.71577  1.0000
  C   C400      1.0  0.25153  0.70268  0.80931  1.0000
  H   H674      1.0  0.11097  0.75869  0.82498  1.0000
  H   H675      1.0  0.03065  0.96139  0.79735  1.0000
  H   H676      1.0  0.18581  0.57731  0.83059  1.0000
  C   C401      1.0  0.16036  0.90054  0.82381  1.0000
  H   H677      1.0  0.01866  0.93789  0.97133  1.0000
  H   H678      1.0  0.09203  0.72688  0.85392  1.0000
  H   H679      1.0  0.11930  0.70875  0.79477  1.0000
  H   H680      1.0  0.09777  0.98789  0.99645  1.0000
  H   H681      1.0  0.25023  0.89399  0.89236  1.0000
  C   C402      1.0  0.07684  0.94495  0.99119  1.0000
  H   H682      1.0  0.19851  0.54500  0.85459  1.0000
  C   C403      1.0  0.01615  0.54943  0.84303  1.0000
  N   N27       1.0  0.25915  0.81944  0.88420  1.0000
  C   C404      1.0  0.14378  0.70343  0.83189  1.0000
  H   H683      1.0  0.12544  0.66537  0.85900  1.0000
  N   N28       1.0  0.02849  0.57317  0.84124  1.0000
  H   H684      1.0  0.11848  0.56672  0.97193  1.0000
  H   H685      1.0  0.05972  0.98679  0.96802  1.0000
  H   H686      1.0  0.22340  0.65223  0.79900  1.0000
  Fe  Fe64      1.0  0.21502  0.50055  0.91163  1.0000
  C   C405      1.0  0.12937  0.50972  0.97633  1.0000
  C   C406      1.0  0.01870  0.96023  0.97691  1.0000
  N   N29       1.0  0.08216  0.96680  0.97468  1.0000
  C   C407      1.0  0.11025  0.68523  0.83509  1.0000
  H   H687      1.0  0.13952  0.69334  0.81743  1.0000
  H   H688      1.0  0.24012  0.70153  0.81783  1.0000
  H   H689      1.0  0.16853  0.92248  0.86113  1.0000
  H   H690      1.0  0.04962  0.90023  0.80902  1.0000
  C   C408      1.0  0.11967  0.73141  0.80082  1.0000
  H   H691      1.0  0.09757  0.68358  0.83181  1.0000
  H   H692      1.0  0.23935  0.60332  0.97803  1.0000
  C   C409      1.0  0.02368  0.77652  0.72247  1.0000
  C   C410      1.0  0.19146  0.88450  0.80686  1.0000
  H   H693      1.0  0.19164  0.50427  0.80420  1.0000
  H   H694      1.0  0.02871  0.77444  0.67899  1.0000
  H   H695      1.0  0.11597  0.67726  0.82054  1.0000
  H   H696      1.0  0.11302  0.64026  0.84572  1.0000
  H   H697      1.0  0.06529  0.91874  0.95330  1.0000
  H   H698      1.0  0.17373  0.54551  0.83295  1.0000
  C   C411      1.0  0.02037  0.79269  0.67665  1.0000
  C   C412      1.0  0.08378  0.95242  0.95352  1.0000
  C   C413      1.0  0.02809  0.87445  0.72600  1.0000
  H   H699      1.0  0.19494  0.86822  0.83820  1.0000
  C   C414      1.0  0.18814  0.93554  0.84157  1.0000
  H   H700      1.0  0.18094  0.84860  0.82369  1.0000
  H   H701      1.0  0.13186  0.73914  0.80255  1.0000
  C   C415      1.0  0.25104  0.60097  0.98384  1.0000
  C   C416      1.0  0.02972  0.82164  0.67808  1.0000
  H   H702      1.0  0.06316  0.57175  0.84542  1.0000
  H   H703      1.0  0.05735  0.60053  0.82777  1.0000
  H   H704      1.0  0.03961  0.92904  0.76785  1.0000
  H   H705      1.0  0.05914  0.95408  0.94335  1.0000
  H   H706      1.0  0.25586  0.82749  0.85122  1.0000
  H   H707      1.0  0.18689  0.87238  0.79322  1.0000
  H   H708      1.0  0.15345  0.71857  0.82711  1.0000
  H   H709      1.0  0.06600  0.56784  0.81795  1.0000
  H   H710      1.0  0.24371  0.69199  0.76979  1.0000
  H   H711      1.0  0.09224  0.93411  0.95391  1.0000
  H   H712      1.0  0.19144  0.95203  0.85349  1.0000
  H   H713      1.0  0.16576  0.91725  0.81336  1.0000
  C   C417      1.0  0.24920  0.73107  0.73238  1.0000
  C   C418      1.0  0.24268  0.67272  0.78044  1.0000
  C   C419      1.0  0.25028  0.84647  0.89078  1.0000
  C   C420      1.0  0.10745  0.55825  0.97919  1.0000
  H   H714      1.0  0.02021  0.75312  0.72333  1.0000
  H   H715      1.0  0.03766  0.63199  0.84468  1.0000
  H   H716      1.0  0.23862  0.72637  0.72406  1.0000
  C   C421      1.0  0.19899  0.53833  0.83785  1.0000
  H   H717      1.0  0.14920  0.68619  0.84161  1.0000
  H   H718      1.0  0.24461  0.65366  0.77007  1.0000
  C   C422      1.0  0.17823  0.91148  0.85240  1.0000
  C   C423      1.0  0.05787  0.57662  0.83012  1.0000
  H   H719      1.0  0.17917  0.50787  0.85703  1.0000
  C   C424      1.0  0.04192  0.56123  0.82825  1.0000
  H   H720      1.0  0.18958  0.90817  0.80468  1.0000
  C   C425      1.0  0.02458  0.90288  0.83028  1.0000
  C   C426      1.0  0.02864  0.94936  0.81224  1.0000
  C   C427      1.0  0.18493  0.87118  0.82761  1.0000
  H   H721      1.0  0.03952  0.95311  0.82113  1.0000
  C   C428      1.0  0.06896  0.93860  0.94441  1.0000
  H   H722      1.0  0.24793  0.84639  0.90799  1.0000
  H   H723      1.0  0.18602  0.55139  0.80980  1.0000
  H   H724      1.0  0.22159  0.69155  0.79526  1.0000
  H   H725      1.0  0.24912  0.60284  0.81445  1.0000
  H   H726      1.0  0.01902  0.59455  0.81406  1.0000
  C   C429      1.0  0.26021  0.57742  0.97711  1.0000
  H   H727      1.0  0.21194  0.51017  0.80649  1.0000
  C   C430      1.0  0.26358  0.71099  0.82595  1.0000
  H   H728      1.0  0.23007  0.53113  0.84769  1.0000
  H   H729      1.0  0.07163  0.93134  0.92814  1.0000
  N   N30       1.0  0.19954  0.50538  0.83618  1.0000
  C   C431      1.0  0.11160  0.95658  0.97980  1.0000
  H   H730      1.0  0.19926  0.92666  0.83520  1.0000
  H   H731      1.0  0.10483  0.52941  0.95291  1.0000
  H   H732      1.0  0.23961  0.79631  0.87065  1.0000
  C   C432      1.0  0.02072  0.84579  0.75693  1.0000
  C   C433      1.0  0.22553  0.67077  0.78806  1.0000
  C   C434      1.0  0.10319  0.52797  0.97020  1.0000
  C   C435      1.0  0.24774  0.79406  0.88393  1.0000
  S   S126      1.0  0.05946  0.99408  0.85727  1.0000
  H   H733      1.0  0.23864  0.84652  0.88340  1.0000
  H   H734      1.0  0.04368  0.59514  0.86337  1.0000
  S   S127      1.0  0.02519  0.82308  0.77874  1.0000
  H   H735      1.0  0.02021  0.53101  0.85301  1.0000
  S   S128      1.0  0.04875  0.50799  0.97353  1.0000
  H   H736      1.0  0.23251  0.50404  0.82705  1.0000
  H   H737      1.0  0.22938  0.80799  0.90663  1.0000
  H   H738      1.0  0.08866  0.96830  0.94179  1.0000
  H   H739      1.0  0.03484  0.77898  0.71358  1.0000
  C   C436      1.0  0.09803  0.97862  0.98037  1.0000
  H   H740      1.0  0.11540  0.95186  0.96344  1.0000
  H   H741      1.0  0.13227  0.51646  0.95998  1.0000
  H   H742      1.0  0.05416  0.94135  0.78607  1.0000
  H   H743      1.0  0.10868  0.93594  0.98821  1.0000
  H   H744      1.0  0.03949  0.82118  0.66641  1.0000
  H   H745      1.0  0.09043  0.52506  0.97261  1.0000
  H   H746      1.0  0.02042  0.52334  0.81436  1.0000
  C   C437      1.0  0.01540  0.96542  0.82405  1.0000
  C   C438      1.0  0.02471  0.86906  0.83083  1.0000
  H   H747      1.0  0.02261  0.84108  0.67428  1.0000
  H   H748      1.0  0.24904  0.61559  0.78852  1.0000
  H   H749      1.0  0.01818  0.98923  0.82425  1.0000
  H   H750      1.0  0.08269  0.92351  0.98860  1.0000
  C   C439      1.0  0.25504  0.61851  0.80350  1.0000
  H   H751      1.0  0.25767  0.88068  0.86810  1.0000
  C   C440      1.0  0.25363  0.64961  0.81257  1.0000
  H   H752      1.0  0.03598  0.86014  0.82512  1.0000
  H   H753      1.0  0.09819  0.57419  0.97532  1.0000
  H   H754      1.0  0.05677  0.90818  0.77182  1.0000
  H   H755      1.0  0.23796  0.49628  0.85325  1.0000
  C   C441      1.0  0.20190  0.49766  0.81341  1.0000
  H   H756      1.0  0.25063  0.72164  0.79839  1.0000
  H   H757      1.0  0.02329  0.86159  0.84734  1.0000
  H   H758      1.0  0.24453  0.78561  0.91795  1.0000
  H   H759      1.0  0.25388  0.77295  0.88133  1.0000
  H   H760      1.0  0.05707  0.91522  0.99640  1.0000
  H   H761      1.0  0.01494  0.91248  0.76307  1.0000
  H   H762      1.0  0.01506  0.85921  0.82193  1.0000
  C   C442      1.0  0.07151  0.99287  0.97315  1.0000
  H   H763      1.0  0.15279  0.49448  0.98245  1.0000
  Fe  Fe65      1.0  0.44598  0.20414  0.06601  1.0000
  S   S129      1.0  0.45740  0.18374  0.09361  1.0000
  S   S130      1.0  0.42068  0.21695  0.07209  1.0000
  Fe  Fe66      1.0  0.47730  0.20805  0.04080  1.0000
  S   S131      1.0  0.49069  0.18716  0.06696  1.0000
  C   C443      1.0  0.50376  0.24171  0.00034  1.0000
  Fe  Fe67      1.0  0.47033  0.15555  0.07057  1.0000
  S   S132      1.0  0.47089  0.10529  0.07223  1.0000
  Fe  Fe68      1.0  0.47640  0.21698  0.08794  1.0000
  S   S133      1.0  0.48384  0.24165  0.11678  1.0000
  S   S134      1.0  0.45778  0.17433  0.04285  1.0000
  S   S135      1.0  0.46421  0.23952  0.06180  1.0000
  Fe  Fe69      1.0  0.30102  0.15601  0.04898  1.0000
  S   S136      1.0  0.29262  0.17116  0.08079  1.0000
  S   S137      1.0  0.28569  0.15313  0.01982  1.0000
  Fe  Fe70      1.0  0.33548  0.15766  0.06246  1.0000
  S   S138      1.0  0.32959  0.17277  0.09510  1.0000
  S   S139      1.0  0.35946  0.14484  0.04962  1.0000
  Fe  Fe71      1.0  0.31013  0.13945  0.09350  1.0000
  S   S140      1.0  0.30493  0.11293  0.12287  1.0000
  Fe  Fe72      1.0  0.31260  0.20354  0.08021  1.0000
  S   S141      1.0  0.30830  0.25235  0.08656  1.0000
  S   S142      1.0  0.31717  0.12200  0.06192  1.0000
  S   S143      1.0  0.31993  0.19067  0.04741  1.0000
  Fe  Fe73      1.0  0.46798  0.40336  0.14813  1.0000
  S   S144      1.0  0.46473  0.38220  0.17969  1.0000
  S   S145      1.0  0.47172  0.37850  0.11785  1.0000
  Fe  Fe74      1.0  0.46534  0.46601  0.16497  1.0000
  S   S146      1.0  0.46220  0.44900  0.19799  1.0000
  H   H764      1.0  0.49346  0.28926  0.17757  1.0000
  Fe  Fe75      1.0  0.48141  0.41686  0.19088  1.0000
  S   S147      1.0  0.50366  0.41118  0.21002  1.0000
  Fe  Fe76      1.0  0.44581  0.41602  0.18405  1.0000
  S   S148      1.0  0.42234  0.40600  0.19979  1.0000
  S   S149      1.0  0.48574  0.43636  0.15872  1.0000
  S   S150      1.0  0.44789  0.43461  0.15164  1.0000
  Fe  Fe77      1.0  0.30113  0.44790  0.15399  1.0000
  S   S151      1.0  0.31525  0.47055  0.17819  1.0000
  H   H765      1.0  0.35591  0.07416  0.01481  1.0000
  Fe  Fe78      1.0  0.30983  0.38653  0.16927  1.0000
  S   S152      1.0  0.32426  0.40547  0.19534  1.0000
  S   S153      1.0  0.30945  0.33627  0.16668  1.0000
  Fe  Fe79      1.0  0.30454  0.43767  0.20069  1.0000
  S   S154      1.0  0.29688  0.45454  0.23330  1.0000
  Fe  Fe80      1.0  0.33356  0.43668  0.17081  1.0000
  S   S155      1.0  0.35857  0.45044  0.16260  1.0000
  S   S156      1.0  0.28942  0.41633  0.17670  1.0000
  S   S157      1.0  0.32009  0.41648  0.14458  1.0000
  C   C444      1.0  0.27837  0.46764  0.24225  1.0000
  H   H766      1.0  0.27650  0.48970  0.18124  1.0000
  H   H767      1.0  0.26542  0.17231  0.13370  1.0000
  H   H768      1.0  0.34412  0.03821  0.16039  1.0000
  H   H769      1.0  0.44250  0.33765  0.11319  1.0000
  C   C445      1.0  0.40432  0.41474  0.18822  1.0000
  C   C446      1.0  0.40363  0.42560  0.16776  1.0000
  C   C447      1.0  0.38930  0.43484  0.15972  1.0000
  C   C448      1.0  0.37551  0.43319  0.17193  1.0000
  C   C449      1.0  0.37606  0.42113  0.19205  1.0000
  C   C450      1.0  0.39042  0.41199  0.20015  1.0000
  H   H770      1.0  0.41414  0.42746  0.15827  1.0000
  H   H771      1.0  0.38893  0.44392  0.14408  1.0000
  H   H772      1.0  0.36553  0.41984  0.20165  1.0000
  H   H773      1.0  0.39081  0.40343  0.21594  1.0000
  C   C451      1.0  0.31032  0.27615  0.10849  1.0000
  C   C452      1.0  0.31646  0.26678  0.12749  1.0000
  C   C453      1.0  0.31636  0.28560  0.14501  1.0000
  C   C454      1.0  0.31069  0.31442  0.14360  1.0000
  C   C455      1.0  0.30519  0.32421  0.12435  1.0000
  C   C456      1.0  0.30488  0.30511  0.10700  1.0000
  H   H774      1.0  0.32113  0.24499  0.12874  1.0000
  H   H775      1.0  0.32077  0.27786  0.15975  1.0000
  H   H776      1.0  0.30073  0.34623  0.12299  1.0000
  H   H777      1.0  0.30020  0.31275  0.09239  1.0000
  C   C457      1.0  0.49483  0.38806  0.29735  1.0000
  C   C458      1.0  0.30450  0.02795  0.10359  1.0000
  C   C459      1.0  0.30519  0.05877  0.10345  1.0000
  C   C460      1.0  0.30417  0.07426  0.12227  1.0000
  C   C461      1.0  0.30249  0.05871  0.14118  1.0000
  C   C462      1.0  0.30192  0.02791  0.14133  1.0000
  H   H778      1.0  0.30527  0.01611  0.08897  1.0000
  H   H779      1.0  0.30635  0.07049  0.08878  1.0000
  H   H780      1.0  0.30165  0.07052  0.15580  1.0000
  H   H781      1.0  0.30060  0.01621  0.15599  1.0000
  C   C463      1.0  0.46896  0.04130  0.12864  1.0000
  C   C464      1.0  0.47046  0.07170  0.13186  1.0000
  C   C465      1.0  0.47091  0.09159  0.11487  1.0000
  C   C466      1.0  0.46985  0.08134  0.09434  1.0000
  C   C467      1.0  0.46805  0.05100  0.09112  1.0000
  C   C468      1.0  0.46758  0.03109  0.10812  1.0000
  H   H782      1.0  0.47160  0.07987  0.14763  1.0000
  H   H783      1.0  0.47251  0.11476  0.11764  1.0000
  H   H784      1.0  0.46726  0.04277  0.07532  1.0000
  H   H785      1.0  0.26769  0.19019  0.18786  1.0000
  C   C469      1.0  0.48025  0.27956  0.11690  1.0000
  C   C470      1.0  0.48235  0.29640  0.09874  1.0000
  C   C471      1.0  0.47972  0.32674  0.09928  1.0000
  C   C472      1.0  0.47494  0.34042  0.11794  1.0000
  C   C473      1.0  0.47257  0.32349  0.13602  1.0000
  C   C474      1.0  0.47545  0.29320  0.13557  1.0000
  H   H786      1.0  0.48614  0.28607  0.08430  1.0000
  H   H787      1.0  0.48144  0.33967  0.08519  1.0000
  H   H788      1.0  0.46850  0.33367  0.15032  1.0000
  H   H789      1.0  0.47368  0.28019  0.14960  1.0000
  C   C475      1.0  0.40392  0.19632  0.06563  1.0000
  C   C476      1.0  0.40465  0.17230  0.05212  1.0000
  C   C477      1.0  0.39095  0.15667  0.04736  1.0000
  C   C478      1.0  0.37642  0.16496  0.05602  1.0000
  C   C479      1.0  0.37573  0.18888  0.06959  1.0000
  C   C480      1.0  0.38941  0.20450  0.07432  1.0000
  H   H790      1.0  0.41573  0.16609  0.04510  1.0000
  H   H791      1.0  0.39158  0.13830  0.03675  1.0000
  H   H792      1.0  0.36462  0.19554  0.07630  1.0000
  H   H793      1.0  0.38871  0.22315  0.08470  1.0000
  H   H794      1.0  0.34129  0.00857  0.17808  1.0000
  C   C481      1.0  0.43873  0.29244  0.09133  1.0000
  N   N31       1.0  0.42751  0.29969  0.10908  1.0000
  H   H795      1.0  0.40334  0.48899  0.15572  1.0000
  H   H796      1.0  0.49266  0.34303  0.16948  1.0000
  H   H797      1.0  0.49979  0.32564  0.25792  1.0000
  H   H798      1.0  0.43647  0.48074  0.21808  1.0000
  H   H799      1.0  0.29167  0.42335  0.31564  1.0000
  C   C482      1.0  0.26705  0.21351  0.18336  1.0000
  H   H800      1.0  0.42415  0.28466  0.14134  1.0000
  C   C483      1.0  0.27305  0.09679  0.01569  1.0000
  C   C484      1.0  0.51018  0.38645  0.22961  1.0000
  H   H801      1.0  0.48535  0.31057  0.19831  1.0000
  H   H802      1.0  0.43919  0.23935  0.11181  1.0000
  H   H803      1.0  0.27872  0.12874  0.15327  1.0000
  S   S158      1.0  0.48668  0.22159  0.00806  1.0000
  H   H804      1.0  0.48935  0.35999  0.23140  1.0000
  H   H805      1.0  0.27640  0.22610  0.19118  1.0000
  H   H806      1.0  0.26545  0.20276  0.10651  1.0000
  H   H807      1.0  0.36984  0.04163  0.13394  1.0000
  H   H808      1.0  0.50315  0.35125  0.19210  1.0000
  H   H809      1.0  0.27089  0.45136  0.29618  1.0000
  C   C485      1.0  0.28325  0.22174  0.12720  1.0000
  H   H810      1.0  0.29033  0.39458  0.29613  1.0000
  C   C486      1.0  0.39768  0.29778  0.11752  1.0000
  C   C487      1.0  0.49816  0.41797  0.30748  1.0000
  H   H811      1.0  0.50453  0.32260  0.13854  1.0000
  C   C488      1.0  0.42357  0.49403  0.19076  1.0000
  H   H812      1.0  0.30286  0.06691  0.00884  1.0000
  H   H813      1.0  0.43326  0.33177  0.14892  1.0000
  H   H814      1.0  0.51102  0.29206  0.15222  1.0000
  H   H815      1.0  0.46644  0.00784  0.10533  1.0000
  N   N32       1.0  0.51376  0.42194  0.31761  1.0000
  C   C489      1.0  0.30295  0.01240  0.12253  1.0000
  C   C490      1.0  0.50224  0.33491  0.17932  1.0000
  H   H816      1.0  0.33873  0.11206  0.02084  1.0000
  H   H817      1.0  0.29630  0.43058  0.28878  1.0000
  C   C491      1.0  0.50101  0.36313  0.23719  1.0000
  H   H818      1.0  0.44361  0.28467  0.13226  1.0000
  H   H819      1.0  0.34598  0.05656  0.10210  1.0000
  H   H820      1.0  0.41844  0.24032  0.11816  1.0000
  H   H821      1.0  0.30758  0.10084  0.02101  1.0000
  C   C492      1.0  0.34206  0.01425  0.16116  1.0000
  H   H822      1.0  0.43638  0.27021  0.08504  1.0000
  N   N33       1.0  0.28094  0.20437  0.14720  1.0000
  C   C493      1.0  0.27139  0.42716  0.29486  1.0000
  C   C494      1.0  0.26477  0.07503  0.00473  1.0000
  H   H823      1.0  0.42374  0.34615  0.10381  1.0000
  C   C495      1.0  0.28828  0.41807  0.29945  1.0000
  H   H824      1.0  0.26981  0.37062  0.30934  1.0000
  N   N34       1.0  0.41868  0.11378  0.10145  1.0000
  C   C496      1.0  0.42054  0.13257  0.12070  1.0000
  C   C497      1.0  0.40226  0.11831  0.09404  1.0000
  C   C498      1.0  0.43001  0.12526  0.08499  1.0000
  C   C499      1.0  0.42223  0.08241  0.10706  1.0000
  C   C500      1.0  0.43631  0.13047  0.13192  1.0000
  C   C501      1.0  0.38905  0.10705  0.10879  1.0000
  C   C502      1.0  0.43049  0.10922  0.06382  1.0000
  C   C503      1.0  0.41620  0.05822  0.09228  1.0000
  H   H825      1.0  0.41863  0.15615  0.11685  1.0000
  H   H826      1.0  0.41163  0.12680  0.13290  1.0000
  H   H827      1.0  0.40027  0.10834  0.07857  1.0000
  H   H828      1.0  0.40012  0.14209  0.09137  1.0000
  H   H829      1.0  0.42774  0.14884  0.08169  1.0000
  H   H830      1.0  0.44213  0.12425  0.09060  1.0000
  H   H831      1.0  0.43510  0.07942  0.10825  1.0000
  H   H832      1.0  0.41744  0.07715  0.12299  1.0000
  H   H833      1.0  0.43587  0.14463  0.14603  1.0000
  H   H834      1.0  0.43876  0.10794  0.13746  1.0000
  H   H835      1.0  0.44623  0.13858  0.12220  1.0000
  H   H836      1.0  0.39086  0.08423  0.11404  1.0000
  H   H837      1.0  0.38743  0.12152  0.12256  1.0000
  H   H838      1.0  0.37788  0.10759  0.10025  1.0000
  H   H839      1.0  0.29478  0.19796  0.17518  1.0000
  H   H840      1.0  0.43524  0.08682  0.06541  1.0000
  H   H841      1.0  0.43875  0.12101  0.05312  1.0000
  H   H842      1.0  0.42605  0.04369  0.08768  1.0000
  H   H843      1.0  0.41102  0.06605  0.07764  1.0000
  H   H844      1.0  0.40751  0.04406  0.10063  1.0000
  H   H845      1.0  0.48939  0.37261  0.30886  1.0000
  C   C504      1.0  0.27512  0.12477  0.00702  1.0000
  C   C505      1.0  0.29600  0.20643  0.15897  1.0000
  H   H846      1.0  0.51368  0.35857  0.32180  1.0000
  C   C506      1.0  0.41121  0.29441  0.10146  1.0000
  H   H847      1.0  0.32506  0.19392  0.00012  1.0000
  C   C507      1.0  0.30997  0.18966  0.14934  1.0000
  C   C508      1.0  0.49633  0.30603  0.18939  1.0000
  H   H848      1.0  0.42733  0.31368  0.06450  1.0000
  H   H849      1.0  0.49605  0.43532  0.29558  1.0000
  H   H850      1.0  0.42197  0.47096  0.18558  1.0000
  C   C509      1.0  0.27689  0.17329  0.14145  1.0000
  H   H851      1.0  0.29956  0.22982  0.16080  1.0000
  C   C510      1.0  0.36210  0.03189  0.12199  1.0000
  H   H852      1.0  0.50462  0.29695  0.20074  1.0000
  C   C511      1.0  0.43022  0.24690  0.12330  1.0000
  H   H853      1.0  0.50521  0.37779  0.29020  1.0000
  H   H854      1.0  0.41916  0.10892  0.05587  1.0000
  H   H855      1.0  0.44740  0.30517  0.06045  1.0000
  H   H856      1.0  0.30804  0.16563  0.14994  1.0000
  H   H857      1.0  0.31278  0.19624  0.13304  1.0000
  H   H858      1.0  0.32051  0.19435  0.15861  1.0000
  C   C512      1.0  0.43147  0.28013  0.12726  1.0000
  H   H859      1.0  0.41305  0.33504  0.14159  1.0000
  H   H860      1.0  0.28810  0.48881  0.26915  1.0000
  H   H861      1.0  0.32187  0.07182  0.01910  1.0000
  H   H862      1.0  0.36890  0.03246  0.10694  1.0000
  S   S159      1.0  0.46904  0.01733  0.15077  1.0000
  H   H863      1.0  0.48675  0.39106  0.28414  1.0000
  C   C513      1.0  0.34830  0.05324  0.11898  1.0000
  C   C514      1.0  0.35179  0.08334  0.99978  1.0000
  H   H864      1.0  0.33343  0.00180  0.12099  1.0000
  C   C515      1.0  0.42520  0.34092  0.13723  1.0000
  H   H865      1.0  0.26968  0.42239  0.27800  1.0000
  H   H866      1.0  0.39384  0.32094  0.11850  1.0000
  H   H867      1.0  0.39502  0.47628  0.19170  1.0000
  H   H868      1.0  0.35188  0.12962  0.00377  1.0000
  H   H869      1.0  0.28416  0.15465  0.17201  1.0000
  C   C516      1.0  0.51247  0.37849  0.14327  1.0000
  C   C517      1.0  0.26774  0.21850  0.15947  1.0000
  C   C518      1.0  0.27573  0.15078  0.15946  1.0000
  H   H870      1.0  0.44247  0.33585  0.07631  1.0000
  H   H871      1.0  0.28693  0.24460  0.13077  1.0000
  H   H872      1.0  0.41004  0.27261  0.09385  1.0000
  H   H873      1.0  0.33728  0.04728  0.12720  1.0000
  C   C519      1.0  0.50699  0.34363  0.25221  1.0000
  H   H874      1.0  0.43245  0.23502  0.13812  1.0000
  H   H875      1.0  0.45088  0.29182  0.09699  1.0000
  H   H876      1.0  0.42622  0.36516  0.13841  1.0000
  H   H877      1.0  0.26810  0.24282  0.15748  1.0000
  H   H878      1.0  0.38766  0.28415  0.11248  1.0000
  C   C520      1.0  0.42994  0.33151  0.11481  1.0000
  C   C521      1.0  0.31236  0.08323  0.01096  1.0000
  H   H879      1.0  0.40854  0.30990  0.08859  1.0000
  H   H880      1.0  0.40031  0.28958  0.13331  1.0000
  H   H881      1.0  0.27782  0.09189  0.03083  1.0000
  H   H882      1.0  0.29272  0.21248  0.11722  1.0000
  H   H883      1.0  0.35161  0.07521  0.12493  1.0000
  H   H884      1.0  0.36608  0.00400  0.15972  1.0000
  C   C522      1.0  0.43877  0.31329  0.07224  1.0000
  H   H885      1.0  0.31840  0.14487  0.01332  1.0000
  H   H886      1.0  0.28511  0.16465  0.12926  1.0000
  H   H887      1.0  0.49978  0.37776  0.14683  1.0000
  N   N35       1.0  0.35810  0.00056  0.12772  1.0000
  S   S160      1.0  0.28626  0.47386  0.13169  1.0000
  H   H888      1.0  0.48854  0.42120  0.31915  1.0000
  H   H889      1.0  0.41607  0.48186  0.22292  1.0000
  H   H890      1.0  0.34227  0.17430  0.00614  1.0000
  H   H891      1.0  0.34943  0.00974  0.08599  1.0000
  C   C523      1.0  0.34286  0.11201  0.00419  1.0000
  C   C524      1.0  0.35560  0.99707  0.15104  1.0000
  H   H892      1.0  0.39095  0.01066  0.13019  1.0000
  C   C525      1.0  0.27751  0.48411  0.26084  1.0000
  H   H893      1.0  0.29824  0.48846  0.06021  1.0000
  C   C526      1.0  0.26896  0.22424  0.11301  1.0000
  H   H894      1.0  0.27223  0.23837  0.09937  1.0000
  H   H895      1.0  0.33065  0.00826  0.15463  1.0000
  H   H896      1.0  0.51238  0.46883  0.31160  1.0000
  C   C527      1.0  0.42582  0.49339  0.21464  1.0000
  H   H897      1.0  0.43150  0.49211  0.14919  1.0000
  H   H898      1.0  0.51278  0.11413  0.29436  1.0000
  H   H899      1.0  0.28808  0.49306  0.08506  1.0000
  C   C528      1.0  0.51457  0.31469  0.14764  1.0000
  H   H900      1.0  0.26499  0.44916  0.21737  1.0000
  S   S161      1.0  0.45443  0.18764  0.64563  1.0000
  Fe  Fe81      1.0  0.47416  0.15508  0.64621  1.0000
  S   S162      1.0  0.47735  0.12455  0.61836  1.0000
  H   H901      1.0  0.29708  0.26793  0.65453  1.0000
  H   H902      1.0  0.34717  0.28270  0.58449  1.0000
  S   S163      1.0  0.32610  0.16979  0.63896  1.0000
  Fe  Fe82      1.0  0.30694  0.20181  0.64630  1.0000
  S   S164      1.0  0.29687  0.22790  0.61961  1.0000
  H   H903      1.0  0.50183  0.39491  0.50761  1.0000
  H   H904      1.0  0.44146  0.36427  0.64349  1.0000
  Fe  Fe83      1.0  0.48202  0.45617  0.54304  1.0000
  S   S165      1.0  0.49119  0.43655  0.57290  1.0000
  S   S166      1.0  0.49783  0.45745  0.51337  1.0000
  Fe  Fe84      1.0  0.44815  0.45664  0.56111  1.0000
  S   S167      1.0  0.45539  0.43740  0.59163  1.0000
  S   S168      1.0  0.42275  0.47029  0.55852  1.0000
  Fe  Fe85      1.0  0.47544  0.46913  0.58924  1.0000
  C   C529      1.0  0.35207  0.41345  0.50837  1.0000
  Fe  Fe86      1.0  0.47020  0.40671  0.57279  1.0000
  S   S169      1.0  0.46939  0.35670  0.57471  1.0000
  H   H905      1.0  0.49243  0.04749  0.52663  1.0000
  S   S170      1.0  0.46177  0.42421  0.54205  1.0000
  Fe  Fe87      1.0  0.31094  0.39346  0.59631  1.0000
  S   S171      1.0  0.31837  0.37428  0.56543  1.0000
  S   S172      1.0  0.30314  0.36612  0.62435  1.0000
  Fe  Fe88      1.0  0.31712  0.45687  0.58260  1.0000
  S   S173      1.0  0.32517  0.44195  0.55052  1.0000
  H   H906      1.0  0.36458  0.44934  0.52281  1.0000
  Fe  Fe89      1.0  0.30469  0.41073  0.55109  1.0000
  S   S174      1.0  0.28863  0.40896  0.52275  1.0000
  Fe  Fe90      1.0  0.33826  0.40672  0.56721  1.0000
  S   S175      1.0  0.36219  0.38873  0.55836  1.0000
  S   S176      1.0  0.29571  0.42795  0.58209  1.0000
  S   S177      1.0  0.33176  0.42350  0.59919  1.0000
  C   C530      1.0  0.38280  0.27305  0.61390  1.0000
  H   H907      1.0  0.28009  0.30671  0.49967  1.0000
  H   H908      1.0  0.32879  0.25557  0.62284  1.0000
  N   N36       1.0  0.51220  0.36408  0.52902  1.0000
  H   H909      1.0  0.48573  0.12374  0.49297  1.0000
  C   C531      1.0  0.40619  0.44687  0.55884  1.0000
  C   C532      1.0  0.39162  0.45840  0.56481  1.0000
  C   C533      1.0  0.37808  0.44079  0.56489  1.0000
  C   C534      1.0  0.37896  0.41152  0.55868  1.0000
  C   C535      1.0  0.39350  0.39998  0.55255  1.0000
  C   C536      1.0  0.40709  0.41753  0.55271  1.0000
  S   S178      1.0  0.31172  0.09033  0.66093  1.0000
  H   H910      1.0  0.36695  0.44998  0.56959  1.0000
  H   H911      1.0  0.39424  0.37744  0.54751  1.0000
  H   H912      1.0  0.41820  0.40860  0.54767  1.0000
  C   C537      1.0  0.31225  0.06726  0.63845  1.0000
  C   C538      1.0  0.31378  0.07850  0.61812  1.0000
  C   C539      1.0  0.31380  0.05943  0.60077  1.0000
  C   C540      1.0  0.31232  0.02890  0.60345  1.0000
  C   C541      1.0  0.31104  0.01759  0.62379  1.0000
  C   C542      1.0  0.31098  0.03668  0.64116  1.0000
  H   H913      1.0  0.31477  0.10191  0.61574  1.0000
  H   H914      1.0  0.31481  0.06845  0.58512  1.0000
  C   C543      1.0  0.34026  0.24654  0.61814  1.0000
  H   H915      1.0  0.31989  0.36913  0.51295  1.0000
  C   C544      1.0  0.29851  0.26629  0.62099  1.0000
  C   C545      1.0  0.29840  0.28058  0.64028  1.0000
  C   C546      1.0  0.29994  0.31121  0.64108  1.0000
  C   C547      1.0  0.30183  0.32768  0.62264  1.0000
  C   C548      1.0  0.30237  0.31331  0.60338  1.0000
  C   C549      1.0  0.30048  0.28272  0.60253  1.0000
  H   H916      1.0  0.43696  0.40798  0.62876  1.0000
  H   H917      1.0  0.32981  0.33550  0.50828  1.0000
  H   H918      1.0  0.30415  0.32579  0.58919  1.0000
  H   H919      1.0  0.30084  0.27164  0.58758  1.0000
  C   C550      1.0  0.47258  0.29333  0.63093  1.0000
  C   C551      1.0  0.47495  0.32363  0.63368  1.0000
  C   C552      1.0  0.47400  0.34338  0.61672  1.0000
  C   C553      1.0  0.47060  0.33301  0.59676  1.0000
  C   C554      1.0  0.46818  0.30276  0.59398  1.0000
  C   C555      1.0  0.46915  0.28301  0.61095  1.0000
  C   C556      1.0  0.51037  0.10597  0.43597  1.0000
  H   H920      1.0  0.47594  0.36655  0.61912  1.0000
  H   H921      1.0  0.33868  0.36244  0.52443  1.0000
  H   H922      1.0  0.32854  0.21134  0.60176  1.0000
  C   C557      1.0  0.46840  0.02563  0.62511  1.0000
  C   C558      1.0  0.46475  0.04035  0.60665  1.0000
  C   C559      1.0  0.46722  0.07077  0.60489  1.0000
  C   C560      1.0  0.47296  0.08689  0.62179  1.0000
  C   C561      1.0  0.47610  0.07233  0.64052  1.0000
  C   C562      1.0  0.47389  0.04179  0.64213  1.0000
  H   H923      1.0  0.45999  0.02833  0.59372  1.0000
  H   H924      1.0  0.46456  0.08191  0.59045  1.0000
  C   C563      1.0  0.40078  0.39072  0.61061  1.0000
  H   H925      1.0  0.49875  0.05366  0.59562  1.0000
  C   C564      1.0  0.34971  0.41331  0.46959  1.0000
  C   C565      1.0  0.48362  0.36477  0.51653  1.0000
  H   H926      1.0  0.36029  0.33012  0.61321  1.0000
  H   H927      1.0  0.30337  0.42416  0.47999  1.0000
  Fe  Fe91      1.0  0.47199  0.21988  0.65805  1.0000
  H   H928      1.0  0.50173  0.36743  0.56028  1.0000
  H   H929      1.0  0.50844  0.13894  0.34351  1.0000
  C   C566      1.0  0.49179  0.02974  0.55879  1.0000
  H   H930      1.0  0.36757  0.25226  0.59208  1.0000
  H   H931      1.0  0.34214  0.03220  0.58212  1.0000
  H   H932      1.0  0.47664  0.03065  0.65654  1.0000
  H   H933      1.0  0.31731  0.41347  0.46051  1.0000
  H   H934      1.0  0.49536  0.10514  0.46300  1.0000
  H   H935      1.0  0.27244  0.11050  0.36284  1.0000
  H   H936      1.0  0.43362  0.32824  0.64673  1.0000
  H   H937      1.0  0.42245  0.44168  0.60159  1.0000
  H   H938      1.0  0.34243  0.40600  0.45637  1.0000
  C   C567      1.0  0.50413  0.12070  0.45614  1.0000
  C   C568      1.0  0.41809  0.35728  0.62999  1.0000
  C   C569      1.0  0.48603  0.05075  0.54169  1.0000
  C   C570      1.0  0.35426  0.02797  0.57646  1.0000
  H   H939      1.0  0.49079  0.00738  0.55197  1.0000
  H   H940      1.0  0.48301  0.03049  0.57177  1.0000
  H   H941      1.0  0.46728  0.25980  0.60859  1.0000
  C   C571      1.0  0.33157  0.35945  0.51027  1.0000
  H   H942      1.0  0.39267  0.26198  0.60568  1.0000
  H   H943      1.0  0.26903  0.31923  0.60343  1.0000
  C   C572      1.0  0.50922  0.35223  0.55095  1.0000
  H   H944      1.0  0.33358  0.36432  0.47659  1.0000
  C   C573      1.0  0.27264  0.04563  0.37858  1.0000
  H   H945      1.0  0.50364  0.40131  0.34546  1.0000
  H   H946      1.0  0.50697  0.45083  0.35780  1.0000
  C   C574      1.0  0.50907  0.48547  0.50041  1.0000
  H   H947      1.0  0.46556  0.29448  0.57860  1.0000
  C   C575      1.0  0.26722  0.38741  0.49503  1.0000
  H   H948      1.0  0.47840  0.35396  0.53050  1.0000
  H   H949      1.0  0.48547  0.34876  0.50376  1.0000
  H   H950      1.0  0.31008  0.38747  0.48004  1.0000
  H   H951      1.0  0.41150  0.36154  0.64488  1.0000
  C   C576      1.0  0.35416  0.28357  0.63783  1.0000
  C   C577      1.0  0.36755  0.25644  0.60923  1.0000
  N   N37       1.0  0.41747  0.38369  0.61577  1.0000
  H   H952      1.0  0.40834  0.44687  0.62243  1.0000
  C   C578      1.0  0.36005  0.02157  0.61323  1.0000
  H   H953      1.0  0.36517  0.37912  0.45688  1.0000
  C   C579      1.0  0.42737  0.37991  0.59618  1.0000
  C   C580      1.0  0.50200  0.32125  0.55314  1.0000
  H   H954      1.0  0.36217  0.39855  0.51024  1.0000
  C   C581      1.0  0.37978  0.00790  0.58513  1.0000
  C   C582      1.0  0.42415  0.35284  0.58252  1.0000
  H   H955      1.0  0.27699  0.09725  0.39425  1.0000
  H   H956      1.0  0.38536  0.27212  0.63087  1.0000
  H   H957      1.0  0.50608  0.48623  0.34630  1.0000
  H   H958      1.0  0.32170  0.41806  0.50840  1.0000
  H   H959      1.0  0.35761  0.26636  0.64919  1.0000
  H   H960      1.0  0.40038  0.40667  0.59740  1.0000
  H   H961      1.0  0.42628  0.39924  0.58572  1.0000
  H   H962      1.0  0.44003  0.37976  0.59974  1.0000
  H   H963      1.0  0.34887  0.46146  0.50720  1.0000
  C   C583      1.0  0.39473  0.20427  0.66129  1.0000
  C   C584      1.0  0.50845  0.14652  0.48909  1.0000
  H   H964      1.0  0.42829  0.45666  0.62603  1.0000
  H   H965      1.0  0.39488  0.40168  0.62416  1.0000
  H   H966      1.0  0.39080  0.48115  0.56940  1.0000
  H   H967      1.0  0.47762  0.33184  0.64907  1.0000
  H   H968      1.0  0.37292  0.41602  0.45500  1.0000
  H   H969      1.0  0.51347  0.08496  0.48537  1.0000
  H   H970      1.0  0.41570  0.35805  0.57016  1.0000
  H   H971      1.0  0.42013  0.33334  0.59138  1.0000
  H   H972      1.0  0.43521  0.34594  0.57469  1.0000
  H   H973      1.0  0.27636  0.30749  0.54120  1.0000
  H   H974      1.0  0.34801  0.33880  0.59262  1.0000
  H   H975      1.0  0.29400  0.34549  0.51933  1.0000
  H   H976      1.0  0.38271  0.29602  0.60850  1.0000
  H   H977      1.0  0.34316  0.23078  0.63074  1.0000
  H   H978      1.0  0.50630  0.32349  0.51320  1.0000
  H   H979      1.0  0.38730  0.35101  0.61890  1.0000
  H   H980      1.0  0.27588  0.05883  0.36466  1.0000
  C   C585      1.0  0.28435  0.35124  0.50955  1.0000
  C   C586      1.0  0.28028  0.31379  0.55690  1.0000
  H   H981      1.0  0.32824  0.44426  0.48990  1.0000
  H   H982      1.0  0.28162  0.04814  0.39071  1.0000
  H   H983      1.0  0.50994  0.09539  0.56072  1.0000
  H   H984      1.0  0.49739  0.14030  0.45140  1.0000
  H   H985      1.0  0.35147  0.36079  0.48953  1.0000
  C   C587      1.0  0.27339  0.34327  0.56394  1.0000
  H   H986      1.0  0.34539  0.41087  0.52332  1.0000
  C   C588      1.0  0.42051  0.44020  0.61874  1.0000
  C   C589      1.0  0.49584  0.13039  0.50245  1.0000
  Fe  Fe92      1.0  0.31407  0.14033  0.66244  1.0000
  H   H987      1.0  0.49251  0.02271  0.48295  1.0000
  C   C590      1.0  0.27962  0.38043  0.50824  1.0000
  H   H988      1.0  0.36581  0.31964  0.58673  1.0000
  H   H989      1.0  0.27763  0.35981  0.55235  1.0000
  H   H990      1.0  0.36524  0.05912  0.63287  1.0000
  S   S179      1.0  0.31252  0.00612  0.58083  1.0000
  H   H991      1.0  0.36695  0.44882  0.49505  1.0000
  H   H992      1.0  0.50259  0.16593  0.48232  1.0000
  H   H993      1.0  0.36886  0.23449  0.61677  1.0000
  C   C591      1.0  0.50418  0.46255  0.34313  1.0000
  C   C592      1.0  0.27645  0.32928  0.49833  1.0000
  H   H994      1.0  0.49912  0.31701  0.56993  1.0000
  H   H995      1.0  0.49167  0.45968  0.33963  1.0000
  H   H996      1.0  0.35770  0.06904  0.60811  1.0000
  C   C593      1.0  0.35836  0.44517  0.50801  1.0000
  H   H997      1.0  0.47482  0.38054  0.51087  1.0000
  H   H998      1.0  0.36551  0.00848  0.62564  1.0000
  N   N38       1.0  0.36276  0.00874  0.59173  1.0000
  H   H999      1.0  0.34734  0.02101  0.61745  1.0000
  N   N39       1.0  0.35244  0.27050  0.61633  1.0000
  S   S180      1.0  0.46750  0.49054  0.55960  1.0000
  H   H1000     1.0  0.37774  0.05699  0.61011  1.0000
  C   C594      1.0  0.36608  0.40049  0.46504  1.0000
  C   C595      1.0  0.36561  0.05350  0.61595  1.0000
  H   H1001     1.0  0.33272  0.24195  0.58538  1.0000
  H   H1002     1.0  0.27459  0.13791  0.41808  1.0000
  H   H1003     1.0  0.48655  0.07398  0.54631  1.0000
  C   C596      1.0  0.38991  0.36506  0.60506  1.0000
  H   H1004     1.0  0.34911  0.03448  0.54356  1.0000
  H   H1005     1.0  0.27777  0.29598  0.56832  1.0000
  C   C597      1.0  0.42404  0.40944  0.62769  1.0000
  H   H1006     1.0  0.39462  0.22062  0.64903  1.0000
  C   C598      1.0  0.33748  0.22844  0.59816  1.0000
  H   H1007     1.0  0.49507  0.39823  0.53380  1.0000
  H   H1008     1.0  0.34432  0.99872  0.55275  1.0000
  C   C599      1.0  0.32669  0.42026  0.49228  1.0000
  C   C600      1.0  0.49854  0.38184  0.52178  1.0000
  C   C601      1.0  0.50063  0.00828  0.49049  1.0000
  H   H1009     1.0  0.35025  0.43755  0.46757  1.0000
  N   N40       1.0  0.34213  0.40471  0.49020  1.0000
  H   H1010     1.0  0.50039  0.10000  0.42601  1.0000
  H   H1011     1.0  0.33438  0.29780  0.60302  1.0000
  C   C602      1.0  0.26611  0.09776  0.40388  1.0000
  H   H1012     1.0  0.35986  0.04998  0.57522  1.0000
  H   H1013     1.0  0.49107  0.31853  0.54451  1.0000
  H   H1014     1.0  0.50044  0.11100  0.51071  1.0000
  C   C603      1.0  0.34692  0.29243  0.60042  1.0000
  C   C604      1.0  0.33997  0.37195  0.49057  1.0000
  H   H1015     1.0  0.36373  0.29991  0.63832  1.0000
  H   H1016     1.0  0.44107  0.33900  0.62166  1.0000
  C   C605      1.0  0.31386  0.41043  0.47716  1.0000
  H   H1017     1.0  0.34810  0.21677  0.59272  1.0000
  C   C606      1.0  0.43458  0.34703  0.63566  1.0000
  H   H1018     1.0  0.41225  0.33790  0.62324  1.0000
  H   H1019     1.0  0.49132  0.14555  0.51468  1.0000
  H   H1020     1.0  0.47359  0.04557  0.53868  1.0000
  H   H1021     1.0  0.39432  0.35174  0.59188  1.0000
  C   C607      1.0  0.35601  0.32154  0.59827  1.0000
  H   H1022     1.0  0.27912  0.34946  0.57878  1.0000
  H   H1023     1.0  0.38360  0.02968  0.57891  1.0000
  S   S181      1.0  0.36290  0.20720  0.65991  1.0000
  H   H1024     1.0  0.33505  0.31591  0.63649  1.0000
  H   H1025     1.0  0.27291  0.02232  0.37360  1.0000
  H   H1026     1.0  0.29317  0.31602  0.55559  1.0000
  H   H1027     1.0  0.37309  0.39739  0.47920  1.0000
  C   C608      1.0  0.33961  0.29884  0.64707  1.0000
  H   H1028     1.0  0.41959  0.40951  0.64420  1.0000
  H   H1029     1.0  0.29999  0.32219  0.65602  1.0000
  H   H1030     1.0  0.41992  0.20323  0.66235  1.0000
  H   H1031     1.0  0.27196  0.40600  0.33643  1.0000
  H   H1032     1.0  0.34277  0.30990  0.66186  1.0000
  S   S182      1.0  0.49218  0.18835  0.65630  1.0000
  H   H1033     1.0  0.37859  0.37423  0.60008  1.0000
  H   H1034     1.0  0.33031  0.28282  0.65127  1.0000
  C   C609      1.0  0.50521  0.09007  0.57646  1.0000
  H   H1035     1.0  0.51132  0.10517  0.58723  1.0000
  S   S183      1.0  0.48015  0.49253  0.61975  1.0000
  C   C610      1.0  0.35317  0.01651  0.55382  1.0000
  H   H1036     1.0  0.48062  0.08447  0.65359  1.0000
  H   H1037     1.0  0.26834  0.40386  0.56013  1.0000
  N   N41       1.0  0.50798  0.03474  0.56697  1.0000
  H   H1038     1.0  0.51083  0.36192  0.48425  1.0000
  C   C611      1.0  0.50798  0.05823  0.58353  1.0000
  H   H1039     1.0  0.49261  0.09546  0.57735  1.0000
  H   H1040     1.0  0.50138  0.00860  0.60824  1.0000
  H   H1041     1.0  0.51042  0.30414  0.54816  1.0000
  H   H1042     1.0  0.36456  0.00892  0.54745  1.0000
  H   H1043     1.0  0.30981  0.02769  0.65680  1.0000
  C   C612      1.0  0.51317  0.00652  0.57705  1.0000
  H   H1044     1.0  0.26885  0.08495  0.41821  1.0000
  H   H1045     1.0  0.39818  0.01958  0.60716  1.0000
  H   H1046     1.0  0.51330  0.17290  0.35566  1.0000
  S   S184      1.0  0.47398  0.26968  0.65301  1.0000
  C   C613      1.0  0.39172  0.99978  0.60202  1.0000
  H   H1047     1.0  0.27414  0.46069  0.33089  1.0000
  Fe  Fe93      1.0  0.48550  0.17415  0.68921  1.0000
  C   C614      1.0  0.26795  0.32361  0.86205  1.0000
  S   S185      1.0  0.50179  0.17419  0.71743  1.0000
  H   H1048     1.0  0.49185  0.14703  0.98316  1.0000
  H   H1049     1.0  0.44668  0.15880  0.78034  1.0000
  H   H1050     1.0  0.29761  0.08428  0.70192  1.0000
  S   S186      1.0  0.46646  0.20778  0.69162  1.0000
  Fe  Fe94      1.0  0.30778  0.19107  0.69322  1.0000
  H   H1051     1.0  0.30046  0.05267  0.72660  1.0000
  S   S187      1.0  0.29941  0.20398  0.72623  1.0000
  H   H1052     1.0  0.37006  0.16336  0.69197  1.0000
  H   H1053     1.0  0.48590  0.12193  0.74958  1.0000
  H   H1054     1.0  0.27007  0.15223  0.98052  1.0000
  S   S188      1.0  0.32747  0.15858  0.68965  1.0000
  H   H1055     1.0  0.45594  0.12586  0.78745  1.0000
  C   C615      1.0  0.28265  0.08293  0.74131  1.0000
  H   H1056     1.0  0.31465  0.30169  0.73391  1.0000
  C   C616      1.0  0.40945  0.17356  0.68484  1.0000
  H   H1057     1.0  0.50308  0.19190  0.96707  1.0000
  H   H1058     1.0  0.29420  0.12125  0.69649  1.0000
  N   N42       1.0  0.28791  0.10896  0.72825  1.0000
  S   S189      1.0  0.42732  0.16155  0.69525  1.0000
  H   H1059     1.0  0.31136  0.15119  0.98796  1.0000
  H   H1060     1.0  0.26720  0.07677  0.70369  1.0000
  C   C617      1.0  0.33236  0.17500  0.99526  1.0000
  H   H1061     1.0  0.46850  0.16353  0.72747  1.0000
  C   C618      1.0  0.28090  0.21579  0.73596  1.0000
  C   C619      1.0  0.27938  0.22409  0.75710  1.0000
  C   C620      1.0  0.39529  0.16241  0.69313  1.0000
  H   H1062     1.0  0.28940  0.22289  0.76708  1.0000
  C   C621      1.0  0.32532  0.13224  0.95083  1.0000
  H   H1063     1.0  0.28235  0.26713  0.70318  1.0000
  H   H1064     1.0  0.26970  0.08081  0.74095  1.0000
  C   C622      1.0  0.30228  0.29502  0.73202  1.0000
  C   C623      1.0  0.40911  0.19442  0.66879  1.0000
  H   H1065     1.0  0.28389  0.15841  0.75807  1.0000
  H   H1066     1.0  0.32144  0.07609  0.97974  1.0000
  H   H1067     1.0  0.49613  0.24718  0.96862  1.0000
  H   H1068     1.0  0.32058  0.15434  0.95406  1.0000
  S   S190      1.0  0.29362  0.17077  0.66772  1.0000
  H   H1069     1.0  0.47332  0.10142  0.76625  1.0000
  H   H1070     1.0  0.45054  0.14473  0.73000  1.0000
  H   H1071     1.0  0.30684  0.10292  0.98169  1.0000
  H   H1072     1.0  0.27530  0.33734  0.67160  1.0000
  H   H1073     1.0  0.45563  0.09544  0.73272  1.0000
  Fe  Fe95      1.0  0.33824  0.19000  0.66628  1.0000
  C   C624      1.0  0.27665  0.35210  0.68518  1.0000
  C   C625      1.0  0.27601  0.13306  0.73078  1.0000
  H   H1074     1.0  0.47211  0.11140  0.71884  1.0000
  H   H1075     1.0  0.27102  0.12788  0.76481  1.0000
  H   H1076     1.0  0.28555  0.08636  0.75805  1.0000
  H   H1077     1.0  0.36204  0.08755  0.98925  1.0000
  H   H1078     1.0  0.39546  0.14628  0.70555  1.0000
  H   H1079     1.0  0.43177  0.13110  0.75250  1.0000
  H   H1080     1.0  0.49194  0.13459  0.78323  1.0000
  H   H1081     1.0  0.47429  0.07817  0.73304  1.0000
  C   C626      1.0  0.33678  0.12222  0.96769  1.0000
  C   C627      1.0  0.26960  0.33881  0.70553  1.0000
  H   H1082     1.0  0.34170  0.10100  0.96221  1.0000
  H   H1083     1.0  0.31982  0.09460  0.71628  1.0000
  N   N43       1.0  0.32990  0.11901  0.98945  1.0000
  H   H1084     1.0  0.51255  0.40524  0.91973  1.0000
  H   H1085     1.0  0.27705  0.31144  0.87048  1.0000
  H   H1086     1.0  0.30236  0.27337  0.72421  1.0000
  S   S191      1.0  0.31975  0.22402  0.67201  1.0000
  H   H1087     1.0  0.26988  0.36012  0.88218  1.0000
  C   C628      1.0  0.26779  0.21718  0.72332  1.0000
  H   H1088     1.0  0.49281  0.17116  0.79260  1.0000
  H   H1089     1.0  0.44004  0.18645  0.75325  1.0000
  H   H1090     1.0  0.30128  0.32235  0.70479  1.0000
  H   H1091     1.0  0.44128  0.09777  0.76106  1.0000
  H   H1092     1.0  0.30611  0.14197  0.72739  1.0000
  H   H1093     1.0  0.42881  0.11757  0.77845  1.0000
  H   H1094     1.0  0.45797  0.20627  0.74650  1.0000
  Fe  Fe96      1.0  0.45037  0.17354  0.67902  1.0000
  H   H1095     1.0  0.27396  0.33508  0.84877  1.0000
  C   C629      1.0  0.26802  0.30000  0.73185  1.0000
  C   C630      1.0  0.29388  0.31859  0.71909  1.0000
  H   H1096     1.0  0.47673  0.14852  0.80060  1.0000
  C   C631      1.0  0.31766  0.10120  0.73277  1.0000
  H   H1097     1.0  0.49916  0.34020  0.96877  1.0000
  H   H1098     1.0  0.50218  0.35440  0.99495  1.0000
  H   H1099     1.0  0.44482  0.19523  0.72687  1.0000
  H   H1100     1.0  0.50124  0.16272  0.94947  1.0000
  C   C632      1.0  0.38089  0.17202  0.68544  1.0000
  S   S192      1.0  0.46894  0.13887  0.67885  1.0000
  C   C633      1.0  0.50552  0.25102  0.97935  1.0000
  N   N44       1.0  0.46452  0.14462  0.75818  1.0000
  C   C634      1.0  0.47573  0.16575  0.76822  1.0000
  C   C635      1.0  0.45861  0.15917  0.73864  1.0000
  C   C636      1.0  0.47337  0.11694  0.75276  1.0000
  C   C637      1.0  0.45150  0.13814  0.77376  1.0000
  C   C638      1.0  0.48466  0.15386  0.78720  1.0000
  C   C639      1.0  0.44993  0.18839  0.74192  1.0000
  C   C640      1.0  0.46831  0.09968  0.73329  1.0000
  C   C641      1.0  0.43768  0.12011  0.76564  1.0000
  H   H1101     1.0  0.48464  0.17360  0.75653  1.0000
  H   H1102     1.0  0.46962  0.18573  0.77385  1.0000
  H   H1103     1.0  0.28621  0.29402  0.68389  1.0000
  C   C642      1.0  0.27368  0.14530  0.75313  1.0000
  H   H1104     1.0  0.34692  0.13759  0.96747  1.0000
  H   H1105     1.0  0.27260  0.27873  0.73728  1.0000
  C   C643      1.0  0.38057  0.19315  0.66956  1.0000
  H   H1106     1.0  0.31556  0.11644  0.94904  1.0000
  H   H1107     1.0  0.28911  0.35812  0.68679  1.0000
  H   H1108     1.0  0.31696  0.08186  0.74328  1.0000
  H   H1109     1.0  0.50463  0.38589  0.95281  1.0000
  C   C644      1.0  0.31763  0.09512  0.98934  1.0000
  H   H1110     1.0  0.27901  0.15191  0.72026  1.0000
  N   N45       1.0  0.27731  0.31142  0.71329  1.0000
  H   H1111     1.0  0.30272  0.12621  0.75255  1.0000
  C   C645      1.0  0.28926  0.10210  0.70522  1.0000
  H   H1112     1.0  0.27088  0.32847  0.91153  1.0000
  H   H1113     1.0  0.32816  0.11380  0.73742  1.0000
  H   H1114     1.0  0.29709  0.29270  0.74800  1.0000
  H   H1115     1.0  0.33162  0.13352  0.93548  1.0000
  H   H1116     1.0  0.50715  0.11105  0.71145  1.0000
  C   C646      1.0  0.30330  0.12095  0.73558  1.0000
  C   C647      1.0  0.27395  0.09335  0.69456  1.0000
  H   H1117     1.0  0.50344  0.20241  0.92723  1.0000
  H   H1118     1.0  0.50977  0.39938  0.98665  1.0000
  H   H1119     1.0  0.29460  0.33957  0.72783  1.0000
  H   H1120     1.0  0.27009  0.35635  0.71757  1.0000
  C   C648      1.0  0.50687  0.33993  0.98248  1.0000
  H   H1121     1.0  0.34452  0.06602  0.99277  1.0000
  H   H1122     1.0  0.26871  0.21060  0.70710  1.0000
  H   H1123     1.0  0.50635  0.31735  0.98899  1.0000
  C   C649      1.0  0.27783  0.28800  0.69669  1.0000
  H   H1124     1.0  0.27339  0.27870  0.91054  1.0000
  C   C650      1.0  0.26649  0.32072  0.75084  1.0000
  C   C651      1.0  0.51289  0.11794  0.72556  1.0000
  H   H1125     1.0  0.27035  0.37258  0.68143  1.0000
  C   C652      1.0  0.50471  0.14922  0.98111  1.0000
  H   H1126     1.0  0.27673  0.33517  0.75285  1.0000
  H   H1127     1.0  0.33664  0.17983  0.97915  1.0000
  C   C653      1.0  0.51223  0.14730  0.73167  1.0000
  H   H1128     1.0  0.50937  0.12700  0.97816  1.0000
  C   C654      1.0  0.50827  0.17038  0.96274  1.0000
  H   H1129     1.0  0.26549  0.30740  0.76542  1.0000
  H   H1130     1.0  0.29030  0.03887  0.74903  1.0000
  C   C655      1.0  0.28899  0.05254  0.73476  1.0000
  H   H1131     1.0  0.26660  0.11281  0.69166  1.0000
  C   C656      1.0  0.26860  0.13068  0.98740  1.0000
  H   H1132     1.0  0.51290  0.12952  0.93202  1.0000
  H   H1133     1.0  0.27679  0.08377  0.67897  1.0000
  H   H1134     1.0  0.28037  0.04070  0.72511  1.0000
  C   C657      1.0  0.26506  0.23441  0.76543  1.0000
  C   C658      1.0  0.32224  0.14694  0.99667  1.0000
  H   H1135     1.0  0.50902  0.15790  0.99614  1.0000
  H   H1136     1.0  0.51475  0.17463  0.91364  1.0000
  Fe  Fe97      1.0  0.44157  0.69336  0.05599  1.0000
  S   S193      1.0  0.44189  0.67651  0.08886  1.0000
  S   S194      1.0  0.41908  0.69838  0.03809  1.0000
  Fe  Fe98      1.0  0.47735  0.70147  0.05317  1.0000
  S   S195      1.0  0.48003  0.68493  0.08630  1.0000
  S   S196      1.0  0.50055  0.71444  0.03705  1.0000
  Fe  Fe99      1.0  0.46257  0.64971  0.07844  1.0000
  S   S197      1.0  0.46456  0.59981  0.08175  1.0000
  Fe  Fe100     1.0  0.45922  0.71305  0.09376  1.0000
  S   S198      1.0  0.45555  0.74292  0.12154  1.0000
  S   S199      1.0  0.46123  0.66447  0.04475  1.0000
  S   S200      1.0  0.45759  0.73183  0.06145  1.0000
  Fe  Fe101     1.0  0.29759  0.65013  0.04984  1.0000
  S   S201      1.0  0.28784  0.66964  0.07977  1.0000
  S   S202      1.0  0.27873  0.64497  0.02485  1.0000
  Fe  Fe102     1.0  0.33074  0.64976  0.06790  1.0000
  S   S203      1.0  0.32285  0.66857  0.09873  1.0000
  S   S204      1.0  0.35621  0.63602  0.06741  1.0000
  Fe  Fe103     1.0  0.30282  0.63693  0.09620  1.0000
  S   S205      1.0  0.29401  0.61174  0.12478  1.0000
  Fe  Fe104     1.0  0.30879  0.69962  0.07965  1.0000
  S   S206      1.0  0.30785  0.74958  0.08336  1.0000
  S   S207      1.0  0.31148  0.61571  0.06665  1.0000
  S   S208      1.0  0.31772  0.68247  0.04852  1.0000
  Fe  Fe105     1.0  0.47324  0.90364  0.14267  1.0000
  S   S209      1.0  0.45922  0.88601  0.16977  1.0000
  S   S210      1.0  0.48513  0.87060  0.12126  1.0000
  Fe  Fe106     1.0  0.46680  0.96739  0.15468  1.0000
  S   S211      1.0  0.45239  0.95326  0.18309  1.0000
  C   C659      1.0  0.38728  0.98745  0.13183  1.0000
  Fe  Fe107     1.0  0.47121  0.91990  0.18894  1.0000
  S   S212      1.0  0.47733  0.90525  0.22215  1.0000
  Fe  Fe108     1.0  0.44178  0.92035  0.16159  1.0000
  S   S213      1.0  0.41707  0.90316  0.15882  1.0000
  S   S214      1.0  0.48647  0.93620  0.16224  1.0000
  S   S215      1.0  0.45501  0.93593  0.13288  1.0000
  Fe  Fe109     1.0  0.30757  0.94750  0.15165  1.0000
  S   S216      1.0  0.31030  0.96637  0.18381  1.0000
  C   C660      1.0  0.42422  0.86188  0.20921  1.0000
  Fe  Fe110     1.0  0.31420  0.88441  0.16563  1.0000
  S   S217      1.0  0.31754  0.89922  0.19890  1.0000
  S   S218      1.0  0.31797  0.83505  0.16113  1.0000
  Fe  Fe111     1.0  0.29623  0.92724  0.19496  1.0000
  S   S219      1.0  0.27663  0.92318  0.21986  1.0000
  Fe  Fe112     1.0  0.33126  0.93681  0.18508  1.0000
  S   S220      1.0  0.35420  0.95428  0.19737  1.0000
  S   S221      1.0  0.29204  0.91014  0.16240  1.0000
  S   S222      1.0  0.32943  0.92040  0.15219  1.0000
  C   C661      1.0  0.28364  0.57986  0.19884  1.0000
  C   C662      1.0  0.28593  0.84027  0.19984  1.0000
  H   H1137     1.0  0.50394  0.76413  0.07232  1.0000
  H   H1138     1.0  0.50330  0.85020  0.16088  1.0000
  H   H1139     1.0  0.39972  0.90223  0.21057  1.0000
  C   C663      1.0  0.39979  0.91942  0.16852  1.0000
  C   C664      1.0  0.39989  0.94494  0.18060  1.0000
  C   C665      1.0  0.38584  0.95546  0.18949  1.0000
  C   C666      1.0  0.37163  0.94095  0.18592  1.0000
  C   C667      1.0  0.37154  0.91598  0.17338  1.0000
  C   C668      1.0  0.38557  0.90518  0.16484  1.0000
  H   H1140     1.0  0.41077  0.95625  0.18338  1.0000
  H   H1141     1.0  0.39224  0.85068  0.21395  1.0000
  H   H1142     1.0  0.36070  0.90450  0.17067  1.0000
  H   H1143     1.0  0.38542  0.88539  0.15557  1.0000
  C   C669      1.0  0.31051  0.77273  0.10536  1.0000
  C   C670      1.0  0.30750  0.80288  0.10331  1.0000
  C   C671      1.0  0.30971  0.82230  0.12015  1.0000
  C   C672      1.0  0.31515  0.81181  0.13922  1.0000
  C   C673      1.0  0.31823  0.78167  0.14126  1.0000
  C   C674      1.0  0.31588  0.76220  0.12447  1.0000
  H   H1144     1.0  0.30339  0.81127  0.08857  1.0000
  H   H1145     1.0  0.30729  0.84539  0.11831  1.0000
  H   H1146     1.0  0.32239  0.77329  0.15597  1.0000
  H   H1147     1.0  0.31823  0.73910  0.12631  1.0000
  C   C675      1.0  0.28922  0.51194  0.12880  1.0000
  C   C676      1.0  0.27645  0.52938  0.12373  1.0000
  C   C677      1.0  0.27812  0.55986  0.12180  1.0000
  C   C678      1.0  0.29275  0.57316  0.12391  1.0000
  C   C679      1.0  0.30563  0.55571  0.12870  1.0000
  C   C680      1.0  0.30385  0.52516  0.13132  1.0000
  C   C681      1.0  0.34390  0.98919  0.11676  1.0000
  N   N46       1.0  0.49356  0.80064  0.18519  1.0000
  H   H1148     1.0  0.31689  0.56591  0.13100  1.0000
  H   H1149     1.0  0.48952  0.83838  0.07196  1.0000
  C   C682      1.0  0.46402  0.53878  0.13957  1.0000
  C   C683      1.0  0.46485  0.52739  0.11929  1.0000
  C   C684      1.0  0.46500  0.54642  0.10183  1.0000
  C   C685      1.0  0.46430  0.57701  0.10440  1.0000
  C   C686      1.0  0.46315  0.58837  0.12467  1.0000
  C   C687      1.0  0.46301  0.56933  0.14212  1.0000
  H   H1150     1.0  0.44149  0.90932  0.21784  1.0000
  H   H1151     1.0  0.46585  0.53738  0.08623  1.0000
  H   H1152     1.0  0.46257  0.61181  0.12691  1.0000
  H   H1153     1.0  0.46233  0.57837  0.15774  1.0000
  C   C688      1.0  0.46324  0.77872  0.11954  1.0000
  C   C689      1.0  0.47796  0.78400  0.11039  1.0000
  C   C690      1.0  0.48454  0.81230  0.11091  1.0000
  C   C691      1.0  0.47633  0.83557  0.12015  1.0000
  C   C692      1.0  0.46147  0.83035  0.12883  1.0000
  C   C693      1.0  0.45506  0.80195  0.12881  1.0000
  H   H1154     1.0  0.48448  0.76601  0.10367  1.0000
  H   H1155     1.0  0.49620  0.81602  0.10471  1.0000
  H   H1156     1.0  0.45482  0.84817  0.13545  1.0000
  H   H1157     1.0  0.44368  0.79801  0.13592  1.0000
  C   C694      1.0  0.40080  0.68481  0.04740  1.0000
  C   C695      1.0  0.38863  0.68133  0.03324  1.0000
  C   C696      1.0  0.37435  0.66844  0.03966  1.0000
  C   C697      1.0  0.37208  0.65908  0.06036  1.0000
  C   C698      1.0  0.38403  0.66359  0.07473  1.0000
  C   C699      1.0  0.39825  0.67679  0.06837  1.0000
  C   C700      1.0  0.50073  0.84391  0.00691  1.0000
  H   H1158     1.0  0.27300  0.85529  0.12482  1.0000
  H   H1159     1.0  0.38242  0.65608  0.09070  1.0000
  H   H1160     1.0  0.40741  0.67988  0.07952  1.0000
  C   C701      1.0  0.40892  0.51022  0.15983  1.0000
  N   N47       1.0  0.41032  0.51268  0.18329  1.0000
  C   C702      1.0  0.49306  0.84435  0.05563  1.0000
  C   C703      1.0  0.26956  0.82874  0.19431  1.0000
  C   C704      1.0  0.49510  0.88970  0.23088  1.0000
  C   C705      1.0  0.50622  0.80437  0.20101  1.0000
  H   H1161     1.0  0.44508  0.85636  0.26198  1.0000
  H   H1162     1.0  0.34103  0.96645  0.12201  1.0000
  H   H1163     1.0  0.40980  0.54678  0.20705  1.0000
  C   C706      1.0  0.42402  0.61322  0.05837  1.0000
  C   C707      1.0  0.41067  0.59894  0.09083  1.0000
  H   H1164     1.0  0.51293  0.81769  0.02877  1.0000
  C   C708      1.0  0.42496  0.59898  0.10508  1.0000
  H   H1165     1.0  0.41932  0.63539  0.06144  1.0000
  H   H1166     1.0  0.43579  0.61334  0.06522  1.0000
  H   H1167     1.0  0.40552  0.62125  0.09139  1.0000
  H   H1168     1.0  0.49937  0.79799  0.01383  1.0000
  H   H1169     1.0  0.42123  0.60547  0.12114  1.0000
  H   H1170     1.0  0.43024  0.57696  0.10631  1.0000
  H   H1171     1.0  0.43391  0.61509  0.09987  1.0000
  N   N48       1.0  0.27964  0.54773  0.20078  1.0000
  H   H1172     1.0  0.30504  0.51494  0.02975  1.0000
  C   C709      1.0  0.29362  0.52924  0.20563  1.0000
  H   H1173     1.0  0.49557  0.75345  0.18701  1.0000
  H   H1174     1.0  0.43093  0.53169  0.14891  1.0000
  C   C710      1.0  0.50517  0.73428  0.01379  1.0000
  H   H1175     1.0  0.40870  0.54021  0.09309  1.0000
  H   H1176     1.0  0.42434  0.51959  0.08306  1.0000
  H   H1177     1.0  0.30189  0.52801  0.19200  1.0000
  H   H1178     1.0  0.27024  0.61274  0.06288  1.0000
  H   H1179     1.0  0.34395  0.72605  0.10507  1.0000
  H   H1180     1.0  0.42962  0.57719  0.19617  1.0000
  H   H1181     1.0  0.45509  0.80581  0.01222  1.0000
  H   H1182     1.0  0.46558  0.50396  0.11706  1.0000
  H   H1183     1.0  0.29072  0.79725  0.17031  1.0000
  H   H1184     1.0  0.37896  0.53637  0.18666  1.0000
  H   H1185     1.0  0.36861  0.95758  0.12459  1.0000
  H   H1186     1.0  0.33305  0.98522  0.08649  1.0000
  H   H1187     1.0  0.51067  0.86161  0.27575  1.0000
  H   H1188     1.0  0.37985  0.59077  0.08067  1.0000
  H   H1189     1.0  0.26802  0.57323  0.11886  1.0000
  C   C711      1.0  0.42664  0.61098  0.03443  1.0000
  C   C712      1.0  0.42494  0.87639  0.24715  1.0000
  C   C713      1.0  0.42387  0.82955  0.21645  1.0000
  C   C714      1.0  0.44269  0.87372  0.25027  1.0000
  H   H1190     1.0  0.43619  0.86535  0.20250  1.0000
  H   H1191     1.0  0.42048  0.89241  0.25887  1.0000
  H   H1192     1.0  0.41926  0.85568  0.25248  1.0000
  C   C715      1.0  0.26690  0.83836  0.13456  1.0000
  C   C716      1.0  0.26785  0.95167  0.23501  1.0000
  H   H1193     1.0  0.34926  0.71796  0.04228  1.0000
  H   H1194     1.0  0.34358  0.71612  0.06913  1.0000
  C   C717      1.0  0.46680  0.79953  0.01778  1.0000
  H   H1195     1.0  0.37968  0.87308  0.22936  1.0000
  H   H1196     1.0  0.44901  0.86727  0.23574  1.0000
  H   H1197     1.0  0.30286  0.54490  0.06023  1.0000
  H   H1198     1.0  0.29480  0.82271  0.19964  1.0000
  H   H1199     1.0  0.35613  0.70951  0.12333  1.0000
  H   H1200     1.0  0.46527  0.77793  0.02555  1.0000
  H   H1201     1.0  0.39410  0.85217  0.24240  1.0000
  C   C718      1.0  0.27628  0.57021  0.04997  1.0000
  H   H1202     1.0  0.28422  0.77963  0.13752  1.0000
  N   N49       1.0  0.48905  0.81993  0.04059  1.0000
  H   H1203     1.0  0.39045  0.68761  0.01703  1.0000
  H   H1204     1.0  0.37017  0.50210  0.19382  1.0000
  H   H1205     1.0  0.50407  0.86492  0.01419  1.0000
  C   C719      1.0  0.38001  0.51236  0.18481  1.0000
  C   C720      1.0  0.41183  0.54425  0.18988  1.0000
  C   C721      1.0  0.38409  0.57608  0.06799  1.0000
  C   C722      1.0  0.27209  0.61881  0.00621  1.0000
  H   H1206     1.0  0.42752  0.51562  0.22114  1.0000
  C   C723      1.0  0.26735  0.56125  0.23721  1.0000
  H   H1207     1.0  0.28551  0.84932  0.21597  1.0000
  C   C724      1.0  0.42714  0.56057  0.18400  1.0000
  H   H1208     1.0  0.49394  0.82230  0.22864  1.0000
  H   H1209     1.0  0.28984  0.85841  0.18948  1.0000
  H   H1210     1.0  0.30376  0.56108  0.22811  1.0000
  H   H1211     1.0  0.46425  0.82384  0.04653  1.0000
  C   C725      1.0  0.28138  0.59565  0.99912  1.0000
  H   H1212     1.0  0.27833  0.49743  0.03727  1.0000
  C   C726      1.0  0.48635  0.77055  0.18770  1.0000
  H   H1213     1.0  0.28746  0.57989  0.04403  1.0000
  H   H1214     1.0  0.29824  0.52588  0.23921  1.0000
  H   H1215     1.0  0.29815  0.54959  0.02026  1.0000
  H   H1216     1.0  0.35549  0.69478  0.09727  1.0000
  H   H1217     1.0  0.47277  0.87362  0.05641  1.0000
  C   C727      1.0  0.51001  0.86814  0.25951  1.0000
  N   N50       1.0  0.36708  0.75709  0.08296  1.0000
  C   C728      1.0  0.38166  0.77582  0.08125  1.0000
  C   C729      1.0  0.35357  0.77727  0.08755  1.0000
  C   C730      1.0  0.36500  0.74220  0.06211  1.0000
  C   C731      1.0  0.36942  0.73497  0.10018  1.0000
  C   C732      1.0  0.39668  0.76014  0.07360  1.0000
  C   C733      1.0  0.35400  0.79357  0.10863  1.0000
  C   C734      1.0  0.34855  0.73084  0.05699  1.0000
  C   C735      1.0  0.35540  0.71537  0.10650  1.0000
  H   H1218     1.0  0.37986  0.79463  0.07040  1.0000
  H   H1219     1.0  0.38453  0.78563  0.09663  1.0000
  H   H1220     1.0  0.34220  0.76562  0.08745  1.0000
  H   H1221     1.0  0.35265  0.79400  0.07490  1.0000
  H   H1222     1.0  0.36824  0.75736  0.04899  1.0000
  H   H1223     1.0  0.37301  0.72328  0.06056  1.0000
  H   H1224     1.0  0.37889  0.71954  0.09573  1.0000
  H   H1225     1.0  0.37382  0.74553  0.11461  1.0000
  H   H1226     1.0  0.39570  0.75145  0.05748  1.0000
  H   H1227     1.0  0.40647  0.77619  0.07315  1.0000
  H   H1228     1.0  0.40017  0.74230  0.08430  1.0000
  H   H1229     1.0  0.36407  0.80878  0.10962  1.0000
  H   H1230     1.0  0.34337  0.80723  0.11021  1.0000
  H   H1231     1.0  0.35379  0.77818  0.12210  1.0000
  H   H1232     1.0  0.34035  0.74908  0.05412  1.0000
  H   H1233     1.0  0.43760  0.54663  0.18355  1.0000
  C   C736      1.0  0.30301  0.53734  0.22510  1.0000
  H   H1234     1.0  0.38702  0.98099  0.14855  1.0000
  H   H1235     1.0  0.46555  0.77982  0.16877  1.0000
  H   H1236     1.0  0.42862  0.93695  0.24848  1.0000
  H   H1237     1.0  0.47610  0.82815  0.17139  1.0000
  H   H1238     1.0  0.40189  0.58474  0.09883  1.0000
  N   N51       1.0  0.42019  0.88491  0.22543  1.0000
  C   C737      1.0  0.42863  0.91256  0.21854  1.0000
  H   H1239     1.0  0.29341  0.58335  0.16678  1.0000
  N   N52       1.0  0.41370  0.58994  0.06841  1.0000
  C   C738      1.0  0.42560  0.94015  0.23186  1.0000
  H   H1240     1.0  0.29930  0.61162  0.18386  1.0000
  H   H1241     1.0  0.41287  0.82306  0.22452  1.0000
  H   H1242     1.0  0.39511  0.61165  0.05194  1.0000
  H   H1243     1.0  0.43455  0.56338  0.07170  1.0000
  H   H1244     1.0  0.35362  0.97353  0.15497  1.0000
  S   S223      1.0  0.30325  0.97366  0.12210  1.0000
  H   H1245     1.0  0.48705  0.77247  0.04218  1.0000
  H   H1246     1.0  0.44774  0.89480  0.25568  1.0000
  H   H1247     1.0  0.43273  0.59057  0.02989  1.0000
  H   H1248     1.0  0.41654  0.86397  0.19542  1.0000
  H   H1249     1.0  0.36538  0.66444  0.02833  1.0000
  C   C739      1.0  0.39549  0.50050  0.19329  1.0000
  C   C740      1.0  0.42219  0.56119  0.06673  1.0000
  H   H1250     1.0  0.48774  0.84629  0.19009  1.0000
  C   C741      1.0  0.50781  0.88477  0.21729  1.0000
  C   C742      1.0  0.27974  0.52143  0.03462  1.0000
  C   C743      1.0  0.50117  0.80314  0.22426  1.0000
  C   C744      1.0  0.50126  0.80182  0.16371  1.0000
  C   C745      1.0  0.39859  0.58908  0.05660  1.0000
  H   H1251     1.0  0.41341  0.94784  0.23061  1.0000
  C   C746      1.0  0.40295  0.89128  0.22541  1.0000
  H   H1252     1.0  0.42555  0.91815  0.20217  1.0000
  H   H1253     1.0  0.50982  0.80177  0.07258  1.0000
  C   C747      1.0  0.29685  0.58773  0.18305  1.0000
  C   C748      1.0  0.50085  0.81855  0.02279  1.0000
  H   H1254     1.0  0.38595  0.97489  0.19913  1.0000
  H   H1255     1.0  0.48054  0.79071  0.06516  1.0000
  H   H1256     1.0  0.45745  0.81442  0.19526  1.0000
  H   H1257     1.0  0.35221  0.97039  0.08690  1.0000
  H   H1258     1.0  0.29004  0.50602  0.20804  1.0000
  C   C749      1.0  0.41488  0.53463  0.07833  1.0000
  H   H1259     1.0  0.31528  0.53022  0.22262  1.0000
  C   C750      1.0  0.39184  0.86490  0.22800  1.0000
  H   H1260     1.0  0.39971  0.90682  0.23814  1.0000
  H   H1261     1.0  0.38598  0.55386  0.07425  1.0000
  H   H1262     1.0  0.42340  0.55444  0.05008  1.0000
  H   H1263     1.0  0.42616  0.57209  0.16875  1.0000
  H   H1264     1.0  0.29323  0.59406  0.00437  1.0000
  H   H1265     1.0  0.48066  0.76740  0.20324  1.0000
  H   H1266     1.0  0.43423  0.62949  0.02915  1.0000
  H   H1267     1.0  0.28565  0.84237  0.15601  1.0000
  C   C751      1.0  0.48966  0.79132  0.05247  1.0000
  C   C752      1.0  0.42409  0.51151  0.14649  1.0000
  H   H1268     1.0  0.47065  0.80661  0.21632  1.0000
  H   H1269     1.0  0.28297  0.53915  0.16762  1.0000
  H   H1270     1.0  0.37442  0.57453  0.05671  1.0000
  H   H1271     1.0  0.31378  0.51183  0.13521  1.0000
  H   H1272     1.0  0.37829  0.50617  0.16823  1.0000
  C   C753      1.0  0.50545  0.78405  0.06242  1.0000
  C   C754      1.0  0.49634  0.88141  0.25204  1.0000
  H   H1273     1.0  0.41565  0.61320  0.02574  1.0000
  H   H1274     1.0  0.43493  0.50059  0.18365  1.0000
  C   C755      1.0  0.51034  0.83023  0.15815  1.0000
  C   C756      1.0  0.48180  0.82506  0.18677  1.0000
  S   S224      1.0  0.46388  0.51597  0.16221  1.0000
  C   C757      1.0  0.47262  0.82332  0.03293  1.0000
  C   C758      1.0  0.48541  0.87448  0.05222  1.0000
  H   H1275     1.0  0.49524  0.78239  0.22873  1.0000
  C   C759      1.0  0.29246  0.53461  0.06802  1.0000
  N   N53       1.0  0.27817  0.53806  0.05489  1.0000
  H   H1276     1.0  0.46573  0.84313  0.20995  1.0000
  H   H1277     1.0  0.42522  0.81528  0.20248  1.0000
  H   H1278     1.0  0.40237  0.55750  0.18302  1.0000
  H   H1279     1.0  0.27014  0.52735  0.02389  1.0000
  H   H1280     1.0  0.40009  0.57676  0.04169  1.0000
  C   C760      1.0  0.47413  0.76222  0.17134  1.0000
  H   H1281     1.0  0.51215  0.82590  0.19900  1.0000
  H   H1282     1.0  0.50591  0.84799  0.05608  1.0000
  H   H1283     1.0  0.47112  0.84449  0.02465  1.0000
  H   H1284     1.0  0.43375  0.82465  0.22680  1.0000
  H   H1285     1.0  0.30787  0.57626  0.18644  1.0000
  H   H1286     1.0  0.43318  0.95821  0.22575  1.0000
  H   H1287     1.0  0.28713  0.58941  0.21396  1.0000
  C   C761      1.0  0.29518  0.52616  0.02222  1.0000
  H   H1288     1.0  0.40684  0.52247  0.06801  1.0000
  H   H1289     1.0  0.49242  0.79944  0.15137  1.0000
  H   H1290     1.0  0.46755  0.74245  0.17671  1.0000
  C   C762      1.0  0.27362  0.53786  0.17987  1.0000
  H   H1291     1.0  0.48663  0.88517  0.26274  1.0000
  H   H1292     1.0  0.42110  0.51106  0.12966  1.0000
  H   H1293     1.0  0.29109  0.54662  0.08297  1.0000
  H   H1294     1.0  0.40113  0.52755  0.15372  1.0000
  C   C763      1.0  0.27073  0.58966  0.06833  1.0000
  C   C764      1.0  0.49395  0.74115  0.99902  1.0000
  C   C765      1.0  0.46832  0.82136  0.20306  1.0000
  H   H1295     1.0  0.27847  0.55888  0.24542  1.0000
  H   H1296     1.0  0.51442  0.77862  0.05032  1.0000
  C   C766      1.0  0.26670  0.54316  0.21690  1.0000
  H   H1297     1.0  0.48939  0.84592  0.99906  1.0000
  H   H1298     1.0  0.50712  0.89118  0.20102  1.0000
  H   H1299     1.0  0.49075  0.89065  0.06295  1.0000
  H   H1300     1.0  0.48695  0.88299  0.03611  1.0000
  H   H1301     1.0  0.50943  0.78314  0.16145  1.0000
  H   H1302     1.0  0.26807  0.57370  0.03698  1.0000
  H   H1303     1.0  0.26939  0.81703  0.12719  1.0000
  C   C767      1.0  0.34495  0.98884  0.09264  1.0000
  C   C768      1.0  0.27826  0.79039  0.17024  1.0000
  H   H1304     1.0  0.27313  0.59246  0.19432  1.0000
  H   H1305     1.0  0.51178  0.80453  0.23394  1.0000
  C   C769      1.0  0.29675  0.50291  0.07397  1.0000
  H   H1306     1.0  0.37400  0.98262  0.10424  1.0000
  H   H1307     1.0  0.26666  0.81181  0.20633  1.0000
  H   H1308     1.0  0.29406  0.51667  0.00633  1.0000
  H   H1309     1.0  0.47980  0.75634  0.15616  1.0000
  H   H1310     1.0  0.39510  0.50462  0.21045  1.0000
  H   H1311     1.0  0.27723  0.77570  0.18415  1.0000
  H   H1312     1.0  0.30802  0.50324  0.08226  1.0000
  C   C770      1.0  0.27658  0.77138  0.15048  1.0000
  H   H1313     1.0  0.39649  0.97387  0.12423  1.0000
  C   C771      1.0  0.26722  0.50614  0.17898  1.0000
  C   C772      1.0  0.27274  0.84063  0.15718  1.0000
  C   C773      1.0  0.27018  0.98130  0.23017  1.0000
  H   H1314     1.0  0.27888  0.58923  0.08153  1.0000
  H   H1315     1.0  0.27775  0.98743  0.21711  1.0000
  C   C774      1.0  0.37155  0.98106  0.12137  1.0000
  H   H1316     1.0  0.26562  0.50238  0.07011  1.0000
  H   H1317     1.0  0.47445  0.79742  0.00369  1.0000
  H   H1318     1.0  0.28018  0.74862  0.15411  1.0000
  H   H1319     1.0  0.48194  0.73455  0.00175  1.0000
  H   H1320     1.0  0.26605  0.51985  0.22173  1.0000
  H   H1321     1.0  0.26864  0.86236  0.16291  1.0000
  N   N54       1.0  0.26784  0.81674  0.17243  1.0000
  H   H1322     1.0  0.51345  0.83003  0.14117  1.0000
  H   H1323     1.0  0.26510  0.51933  0.12196  1.0000
  H   H1324     1.0  0.26497  0.58474  0.23421  1.0000
  H   H1325     1.0  0.35474  0.75426  0.62314  1.0000
  N   N55       1.0  0.48003  0.72569  0.59255  1.0000
  S   S225      1.0  0.48271  0.63092  0.62732  1.0000
  C   C775      1.0  0.48772  0.70994  0.57436  1.0000
  H   H1326     1.0  0.46698  0.53176  0.65035  1.0000
  C   C776      1.0  0.37328  0.77960  0.60762  1.0000
  Fe  Fe113     1.0  0.30338  0.70638  0.64603  1.0000
  S   S226      1.0  0.29431  0.72933  0.61738  1.0000
  H   H1327     1.0  0.44527  0.85169  0.64617  1.0000
  H   H1328     1.0  0.34477  0.87471  0.61669  1.0000
  Fe  Fe114     1.0  0.47636  0.94131  0.55612  1.0000
  S   S227      1.0  0.47942  0.92496  0.58926  1.0000
  S   S228      1.0  0.49958  0.94744  0.53792  1.0000
  Fe  Fe115     1.0  0.44076  0.94484  0.56260  1.0000
  S   S229      1.0  0.44165  0.93004  0.59594  1.0000
  S   S230      1.0  0.41761  0.95865  0.54905  1.0000
  Fe  Fe116     1.0  0.46233  0.96017  0.59810  1.0000
  H   H1329     1.0  0.45126  0.76245  0.64051  1.0000
  Fe  Fe117     1.0  0.45856  0.89599  0.58431  1.0000
  S   S231      1.0  0.45317  0.84861  0.59427  1.0000
  C   C777      1.0  0.35147  0.82895  0.61844  1.0000
  S   S232      1.0  0.45663  0.90932  0.55036  1.0000
  Fe  Fe118     1.0  0.30130  0.89419  0.59108  1.0000
  S   S233      1.0  0.31077  0.87294  0.56201  1.0000
  S   S234      1.0  0.29043  0.86794  0.61771  1.0000
  Fe  Fe119     1.0  0.31069  0.95634  0.57681  1.0000
  S   S235      1.0  0.32074  0.93896  0.54633  1.0000
  H   H1330     1.0  0.37464  0.94963  0.59993  1.0000
  Fe  Fe120     1.0  0.29924  0.90986  0.54503  1.0000
  S   S236      1.0  0.28310  0.90637  0.51679  1.0000
  Fe  Fe121     1.0  0.33121  0.90362  0.56615  1.0000
  S   S237      1.0  0.35561  0.88476  0.56791  1.0000
  S   S238      1.0  0.28859  0.92982  0.57419  1.0000
  S   S239      1.0  0.32234  0.92247  0.59648  1.0000
  H   H1331     1.0  0.26608  0.66733  0.39590  1.0000
  H   H1332     1.0  0.32192  0.80492  0.62857  1.0000
  H   H1333     1.0  0.40071  0.98522  0.59486  1.0000
  H   H1334     1.0  0.38513  0.60099  0.62290  1.0000
  H   H1335     1.0  0.39151  0.72624  0.64783  1.0000
  C   C778      1.0  0.40050  0.93774  0.55431  1.0000
  C   C779      1.0  0.38633  0.94651  0.54565  1.0000
  C   C780      1.0  0.37244  0.93075  0.54990  1.0000
  C   C781      1.0  0.37266  0.90579  0.56264  1.0000
  C   C782      1.0  0.38686  0.89682  0.57110  1.0000
  C   C783      1.0  0.40070  0.91282  0.56709  1.0000
  N   N56       1.0  0.27540  0.87068  0.42587  1.0000
  H   H1336     1.0  0.36164  0.93753  0.54297  1.0000
  H   H1337     1.0  0.38717  0.87736  0.58077  1.0000
  H   H1338     1.0  0.41155  0.90565  0.57367  1.0000
  C   C784      1.0  0.31414  0.57198  0.64135  1.0000
  C   C785      1.0  0.31256  0.58156  0.62068  1.0000
  C   C786      1.0  0.31326  0.56129  0.60405  1.0000
  C   C787      1.0  0.31530  0.53114  0.60779  1.0000
  C   C788      1.0  0.31673  0.52152  0.62848  1.0000
  C   C789      1.0  0.31620  0.54184  0.64511  1.0000
  H   H1339     1.0  0.31098  0.60463  0.61749  1.0000
  H   H1340     1.0  0.31215  0.56902  0.58813  1.0000
  C   C790      1.0  0.27248  0.87602  0.50672  1.0000
  C   C791      1.0  0.33897  0.85290  0.61632  1.0000
  C   C792      1.0  0.29402  0.76783  0.61807  1.0000
  C   C793      1.0  0.29700  0.78362  0.59956  1.0000
  C   C794      1.0  0.29637  0.81435  0.59945  1.0000
  C   C795      1.0  0.29237  0.82951  0.61774  1.0000
  C   C796      1.0  0.28931  0.81370  0.63625  1.0000
  C   C797      1.0  0.29035  0.78295  0.63651  1.0000
  H   H1341     1.0  0.29973  0.77199  0.58523  1.0000
  H   H1342     1.0  0.29853  0.82612  0.58506  1.0000
  H   H1343     1.0  0.37900  0.75785  0.60682  1.0000
  C   C798      1.0  0.45581  0.69121  0.59371  1.0000
  C   C799      1.0  0.47219  0.78757  0.64527  1.0000
  C   C800      1.0  0.45797  0.78160  0.63578  1.0000
  C   C801      1.0  0.45243  0.80043  0.62010  1.0000
  C   C802      1.0  0.46091  0.82559  0.61388  1.0000
  C   C803      1.0  0.47509  0.83164  0.62342  1.0000
  C   C804      1.0  0.48066  0.81276  0.63908  1.0000
  H   H1344     1.0  0.28444  0.81437  0.44037  1.0000
  H   H1345     1.0  0.44141  0.79560  0.61285  1.0000
  C   C805      1.0  0.49103  0.67688  0.57730  1.0000
  H   H1346     1.0  0.45699  0.73559  0.60493  1.0000
  C   C806      1.0  0.47898  0.53113  0.62040  1.0000
  C   C807      1.0  0.48577  0.54831  0.60447  1.0000
  C   C808      1.0  0.48655  0.57894  0.60662  1.0000
  C   C809      1.0  0.48034  0.59266  0.62454  1.0000
  C   C810      1.0  0.47295  0.57559  0.64007  1.0000
  C   C811      1.0  0.47244  0.54491  0.63811  1.0000
  H   H1347     1.0  0.49089  0.53790  0.59080  1.0000
  H   H1348     1.0  0.49219  0.59199  0.59447  1.0000
  H   H1349     1.0  0.30186  0.90879  0.43490  1.0000
  Fe  Fe122     1.0  0.47366  0.65495  0.65598  1.0000
  H   H1350     1.0  0.29914  0.90574  0.46259  1.0000
  H   H1351     1.0  0.48293  0.66507  0.58804  1.0000
  H   H1352     1.0  0.38543  0.57329  0.64176  1.0000
  H   H1353     1.0  0.43190  0.89412  0.63466  1.0000
  C   C812      1.0  0.33953  0.79252  0.59561  1.0000
  C   C813      1.0  0.33241  0.79234  0.63285  1.0000
  H   H1354     1.0  0.48069  0.71245  0.56001  1.0000
  H   H1355     1.0  0.29367  0.85852  0.44718  1.0000
  C   C814      1.0  0.46251  0.72253  0.59210  1.0000
  H   H1356     1.0  0.46447  0.77873  0.57447  1.0000
  H   H1357     1.0  0.32835  0.80421  0.59342  1.0000
  C   C815      1.0  0.48396  0.75796  0.59080  1.0000
  H   H1358     1.0  0.49020  0.66580  0.56191  1.0000
  C   C816      1.0  0.36261  0.95506  0.60523  1.0000
  H   H1359     1.0  0.26871  0.84858  0.38693  1.0000
  C   C817      1.0  0.43319  0.90300  0.65080  1.0000
  H   H1360     1.0  0.49048  0.98887  0.58876  1.0000
  C   C818      1.0  0.46112  0.90387  0.64357  1.0000
  C   C819      1.0  0.51026  0.51399  0.50821  1.0000
  S   S240      1.0  0.46030  0.97793  0.56555  1.0000
  H   H1361     1.0  0.28615  0.82523  0.65047  1.0000
  H   H1362     1.0  0.27993  0.80917  0.41295  1.0000
  H   H1363     1.0  0.41814  0.93913  0.64224  1.0000
  H   H1364     1.0  0.49680  0.76150  0.58974  1.0000
  H   H1365     1.0  0.27695  0.87278  0.45973  1.0000
  H   H1366     1.0  0.50320  0.67337  0.58232  1.0000
  H   H1367     1.0  0.37053  0.78540  0.59130  1.0000
  H   H1368     1.0  0.44290  0.69245  0.59521  1.0000
  H   H1369     1.0  0.48335  0.69183  0.61621  1.0000
  H   H1370     1.0  0.34576  0.63049  0.64458  1.0000
  H   H1371     1.0  0.45840  0.67857  0.57927  1.0000
  H   H1372     1.0  0.38172  0.79599  0.61357  1.0000
  H   H1373     1.0  0.27341  0.85397  0.57435  1.0000
  H   H1374     1.0  0.28129  0.80640  0.55392  1.0000
  H   H1375     1.0  0.35579  0.93445  0.60371  1.0000
  H   H1376     1.0  0.35774  0.83284  0.63325  1.0000
  H   H1377     1.0  0.49171  0.81750  0.64628  1.0000
  H   H1378     1.0  0.47922  0.76305  0.55701  1.0000
  H   H1379     1.0  0.51188  0.81250  0.37854  1.0000
  H   H1380     1.0  0.50388  0.55850  0.65496  1.0000
  H   H1381     1.0  0.34743  0.80208  0.58332  1.0000
  H   H1382     1.0  0.29353  0.88875  0.40559  1.0000
  H   H1383     1.0  0.34274  0.97988  0.59521  1.0000
  C   C820      1.0  0.27796  0.84727  0.50792  1.0000
  H   H1384     1.0  0.32865  0.76898  0.63260  1.0000
  C   C821      1.0  0.28670  0.86812  0.40762  1.0000
  H   H1385     1.0  0.35210  0.54050  0.61114  1.0000
  C   C822      1.0  0.48563  0.71540  0.61355  1.0000
  H   H1386     1.0  0.48184  0.85066  0.61857  1.0000
  H   H1387     1.0  0.27631  0.63845  0.38202  1.0000
  H   H1388     1.0  0.50412  0.51969  0.52258  1.0000
  H   H1389     1.0  0.33023  0.85240  0.62935  1.0000
  H   H1390     1.0  0.27474  0.55337  0.41972  1.0000
  H   H1391     1.0  0.35925  0.67067  0.62472  1.0000
  C   C823      1.0  0.33648  0.76021  0.58986  1.0000
  H   H1392     1.0  0.40361  0.61881  0.64531  1.0000
  H   H1393     1.0  0.27652  0.88311  0.37809  1.0000
  H   H1394     1.0  0.27440  0.76953  0.55467  1.0000
  H   H1395     1.0  0.45977  0.67907  0.60762  1.0000
  H   H1396     1.0  0.33293  0.85154  0.60117  1.0000
  H   H1397     1.0  0.48278  0.79649  0.57077  1.0000
  H   H1398     1.0  0.28776  0.84977  0.37607  1.0000
  H   H1399     1.0  0.34367  0.58731  0.62570  1.0000
  H   H1400     1.0  0.27534  0.60287  0.40578  1.0000
  S   S241      1.0  0.46663  0.98707  0.62722  1.0000
  C   C824      1.0  0.39224  0.61485  0.65353  1.0000
  H   H1401     1.0  0.29582  0.85141  0.41050  1.0000
  N   N57       1.0  0.36427  0.59881  0.64299  1.0000
  C   C825      1.0  0.29294  0.90530  0.44747  1.0000
  H   H1402     1.0  0.36034  0.83331  0.60580  1.0000
  H   H1403     1.0  0.35679  0.63927  0.60866  1.0000
  H   H1404     1.0  0.38612  0.96554  0.53553  1.0000
  H   H1405     1.0  0.43815  0.94924  0.64097  1.0000
  C   C826      1.0  0.36299  0.64761  0.62250  1.0000
  H   H1406     1.0  0.51064  0.71379  0.60432  1.0000
  H   H1407     1.0  0.37575  0.64817  0.61941  1.0000
  H   H1408     1.0  0.36310  0.78170  0.63825  1.0000
  H   H1409     1.0  0.48583  0.90553  0.63589  1.0000
  H   H1410     1.0  0.46777  0.58596  0.65368  1.0000
  H   H1411     1.0  0.34749  0.74769  0.58846  1.0000
  C   C827      1.0  0.28453  0.87548  0.44554  1.0000
  C   C828      1.0  0.38166  0.59631  0.63948  1.0000
  H   H1412     1.0  0.28864  0.84284  0.51605  1.0000
  H   H1413     1.0  0.37062  0.54262  0.62332  1.0000
  N   N58       1.0  0.34557  0.79784  0.61730  1.0000
  H   H1414     1.0  0.50960  0.79924  0.35260  1.0000
  H   H1415     1.0  0.28792  0.77091  0.65084  1.0000
  C   C829      1.0  0.35868  0.63006  0.64247  1.0000
  H   H1416     1.0  0.31834  0.49847  0.63165  1.0000
  S   S242      1.0  0.32369  0.67677  0.63970  1.0000
  H   H1417     1.0  0.50978  0.50598  0.65428  1.0000
  C   C830      1.0  0.26986  0.82428  0.49802  1.0000
  H   H1418     1.0  0.48127  0.87824  0.65496  1.0000
  H   H1419     1.0  0.34434  0.78398  0.66259  1.0000
  C   C831      1.0  0.27054  0.79270  0.55404  1.0000
  C   C832      1.0  0.50554  0.97080  0.51676  1.0000
  C   C833      1.0  0.35640  0.58288  0.62536  1.0000
  H   H1420     1.0  0.26789  0.79636  0.58709  1.0000
  C   C834      1.0  0.27941  0.86222  0.38607  1.0000
  H   H1421     1.0  0.35614  0.96925  0.57518  1.0000
  H   H1422     1.0  0.35275  0.53857  0.63889  1.0000
  H   H1423     1.0  0.47898  0.72643  0.62642  1.0000
  H   H1424     1.0  0.36074  0.59094  0.60984  1.0000
  H   H1425     1.0  0.32842  0.74913  0.60118  1.0000
  H   H1426     1.0  0.48010  0.76975  0.60513  1.0000
  H   H1427     1.0  0.27434  0.80222  0.49882  1.0000
  H   H1428     1.0  0.26642  0.84747  0.54917  1.0000
  S   S243      1.0  0.31650  0.50687  0.58600  1.0000
  C   C835      1.0  0.47828  0.90063  0.64981  1.0000
  H   H1429     1.0  0.50645  0.70768  0.63157  1.0000
  H   H1430     1.0  0.45784  0.73136  0.57728  1.0000
  H   H1431     1.0  0.33087  0.75935  0.57435  1.0000
  H   H1432     1.0  0.28472  0.92393  0.44792  1.0000
  S   S244      1.0  0.45557  0.69020  0.65309  1.0000
  C   C836      1.0  0.47713  0.77455  0.57204  1.0000
  C   C837      1.0  0.35875  0.77749  0.62225  1.0000
  H   H1433     1.0  0.36220  0.96096  0.62201  1.0000
  H   H1434     1.0  0.45960  0.89160  0.62869  1.0000
  H   H1435     1.0  0.45997  0.92726  0.63933  1.0000
  C   C838      1.0  0.35826  0.54926  0.62496  1.0000
  H   H1436     1.0  0.36303  0.64311  0.65572  1.0000
  C   C839      1.0  0.35543  0.97862  0.59115  1.0000
  C   C840      1.0  0.50308  0.72064  0.61765  1.0000
  C   C841      1.0  0.27506  0.81426  0.42872  1.0000
  H   H1437     1.0  0.49929  0.72014  0.57060  1.0000
  H   H1438     1.0  0.50716  0.97293  0.60011  1.0000
  C   C842      1.0  0.42947  0.93613  0.65006  1.0000
  H   H1439     1.0  0.38697  0.98808  0.61588  1.0000
  H   H1440     1.0  0.26710  0.79595  0.43325  1.0000
  H   H1441     1.0  0.50536  0.74399  0.62142  1.0000
  H   H1442     1.0  0.27136  0.91616  0.41773  1.0000
  H   H1443     1.0  0.48146  0.91693  0.66183  1.0000
  H   H1444     1.0  0.38772  0.63701  0.65653  1.0000
  C   C843      1.0  0.49528  0.98999  0.50705  1.0000
  H   H1445     1.0  0.51321  0.75958  0.37780  1.0000
  N   N59       1.0  0.44882  0.89459  0.65952  1.0000
  H   H1446     1.0  0.42345  0.89313  0.66017  1.0000
  H   H1447     1.0  0.33969  0.82231  0.65823  1.0000
  C   C844      1.0  0.44885  0.86159  0.66125  1.0000
  C   C845      1.0  0.33580  0.79941  0.65592  1.0000
  C   C846      1.0  0.26579  0.84310  0.42867  1.0000
  C   C847      1.0  0.39099  0.71045  0.66048  1.0000
  H   H1448     1.0  0.34672  0.57729  0.66271  1.0000
  H   H1449     1.0  0.41603  0.70473  0.66099  1.0000
  S   S245      1.0  0.35931  0.71760  0.65914  1.0000
  H   H1450     1.0  0.48316  0.99048  0.51212  1.0000
  S   S246      1.0  0.31443  0.59669  0.66289  1.0000
  H   H1451     1.0  0.31743  0.53416  0.66101  1.0000
  H   H1452     1.0  0.46068  0.85279  0.66363  1.0000
  H   H1453     1.0  0.26532  0.57721  0.43797  1.0000
  C   C848      1.0  0.26526  0.65082  0.38330  1.0000
  H   H1454     1.0  0.30993  0.99419  0.62615  1.0000
  C   C849      1.0  0.35918  0.58436  0.66336  1.0000
  C   C850      1.0  0.50229  0.99394  0.59447  1.0000
  H   H1455     1.0  0.38149  0.99249  0.57187  1.0000
  H   H1456     1.0  0.51469  0.98902  0.56506  1.0000
  Fe  Fe123     1.0  0.47899  0.66593  0.70265  1.0000
  C   C851      1.0  0.50212  0.59750  0.68216  1.0000
  S   S247      1.0  0.48900  0.64838  0.73332  1.0000
  H   H1457     1.0  0.49199  0.59955  0.67164  1.0000
  H   H1458     1.0  0.35799  0.58857  0.69728  1.0000
  S   S248      1.0  0.46317  0.63548  0.68521  1.0000
  S   S249      1.0  0.46139  0.70254  0.70336  1.0000
  Fe  Fe124     1.0  0.30437  0.69845  0.69323  1.0000
  H   H1459     1.0  0.36478  0.67549  0.69264  1.0000
  S   S250      1.0  0.29586  0.71320  0.72592  1.0000
  H   H1460     1.0  0.37165  0.61348  0.68536  1.0000
  Fe  Fe125     1.0  0.47189  0.71729  0.67233  1.0000
  H   H1461     1.0  0.44044  0.85688  0.69421  1.0000
  S   S251      1.0  0.32531  0.66852  0.69052  1.0000
  H   H1462     1.0  0.51302  0.61487  0.91577  1.0000
  C   C852      1.0  0.38981  0.66985  0.69316  1.0000
  H   H1463     1.0  0.28521  0.79213  0.86299  1.0000
  H   H1464     1.0  0.49041  0.57042  0.73008  1.0000
  H   H1465     1.0  0.50945  0.65194  0.90865  1.0000
  C   C853      1.0  0.27094  0.67710  0.78767  1.0000
  C   C854      1.0  0.50906  0.54877  0.66927  1.0000
  C   C855      1.0  0.49427  0.69857  0.93375  1.0000
  H   H1466     1.0  0.49151  0.51353  0.66660  1.0000
  C   C856      1.0  0.51440  0.64471  0.94215  1.0000
  S   S252      1.0  0.29114  0.67460  0.66818  1.0000
  H   H1467     1.0  0.51076  0.73749  0.81267  1.0000
  H   H1468     1.0  0.46991  0.87852  0.68898  1.0000
  Fe  Fe126     1.0  0.44630  0.67300  0.68402  1.0000
  H   H1469     1.0  0.26747  0.61214  0.80162  1.0000
  C   C857      1.0  0.36016  0.60292  0.68344  1.0000
  H   H1470     1.0  0.35091  0.61985  0.68388  1.0000
  H   H1471     1.0  0.50221  0.63258  0.83532  1.0000
  C   C858      1.0  0.27748  0.72726  0.73457  1.0000
  C   C859      1.0  0.51397  0.76467  0.97654  1.0000
  H   H1472     1.0  0.26759  0.77717  0.85177  1.0000
  H   H1473     1.0  0.38931  0.65417  0.70589  1.0000
  H   H1474     1.0  0.43976  0.90940  0.68944  1.0000
  S   S253      1.0  0.31523  0.73170  0.67110  1.0000
  H   H1475     1.0  0.49699  0.61324  0.76852  1.0000
  H   H1476     1.0  0.50205  0.63978  0.94657  1.0000
  H   H1477     1.0  0.47982  0.55606  0.68504  1.0000
  C   C860      1.0  0.26555  0.82314  0.86216  1.0000
  H   H1478     1.0  0.28714  0.74681  0.76211  1.0000
  H   H1479     1.0  0.50788  0.50329  0.68214  1.0000
  H   H1480     1.0  0.27324  0.84259  0.86044  1.0000
  H   H1481     1.0  0.27990  0.67082  0.79920  1.0000
  H   H1482     1.0  0.50937  0.52652  0.72334  1.0000
  C   C861      1.0  0.50768  0.61732  0.75966  1.0000
  H   H1483     1.0  0.45855  0.89250  0.71030  1.0000
  C   C862      1.0  0.46372  0.89813  0.69470  1.0000
  C   C863      1.0  0.27159  0.81210  0.89968  1.0000
  C   C864      1.0  0.37590  0.68182  0.68564  1.0000
  Fe  Fe127     1.0  0.33490  0.69998  0.66638  1.0000
  H   H1484     1.0  0.51423  0.58106  0.71750  1.0000
  H   H1485     1.0  0.28907  0.84347  0.88573  1.0000
  S   S254      1.0  0.48001  0.76398  0.66445  1.0000
  H   H1486     1.0  0.27556  0.71353  0.81931  1.0000
  H   H1487     1.0  0.36591  0.56398  0.66609  1.0000
  H   H1488     1.0  0.26802  0.66863  0.75405  1.0000
  H   H1489     1.0  0.47262  0.91545  0.69739  1.0000
  C   C865      1.0  0.48886  0.55483  0.69730  1.0000
  C   C866      1.0  0.45091  0.90988  0.68016  1.0000
  C   C867      1.0  0.27541  0.57495  0.98489  1.0000
  H   H1490     1.0  0.45346  0.93359  0.67740  1.0000
  C   C868      1.0  0.48229  0.57074  0.71682  1.0000
  H   H1491     1.0  0.42815  0.94554  0.66598  1.0000
  H   H1492     1.0  0.48909  0.71213  0.94649  1.0000
  C   C869      1.0  0.50429  0.51609  0.66840  1.0000
  C   C870      1.0  0.27656  0.74244  0.75370  1.0000
  H   H1493     1.0  0.48944  0.53136  0.70173  1.0000
  H   H1494     1.0  0.42562  0.85039  0.67495  1.0000
  H   H1495     1.0  0.49940  0.61156  0.69592  1.0000
  H   H1496     1.0  0.51369  0.73003  0.77472  1.0000
  C   C871      1.0  0.50718  0.63370  0.74099  1.0000
  N   N60       1.0  0.50430  0.56595  0.68861  1.0000
  H   H1497     1.0  0.28379  0.85007  0.91282  1.0000
  H   H1498     1.0  0.51274  0.63444  0.66559  1.0000
  S   S255      1.0  0.42137  0.66101  0.69357  1.0000
  H   H1499     1.0  0.48961  0.76129  0.96907  1.0000
  H   H1500     1.0  0.47892  0.59355  0.71329  1.0000
  H   H1501     1.0  0.47143  0.55940  0.72225  1.0000
  H   H1502     1.0  0.50030  0.67772  0.97192  1.0000
  C   C872      1.0  0.40435  0.67794  0.68429  1.0000
  H   H1503     1.0  0.29620  0.82016  0.90518  1.0000
  H   H1504     1.0  0.39453  0.60358  0.66857  1.0000
  H   H1505     1.0  0.48888  0.67654  0.93445  1.0000
  H   H1506     1.0  0.28271  0.55713  0.97958  1.0000
  C   C873      1.0  0.27432  0.65940  0.76756  1.0000
  H   H1507     1.0  0.50617  0.68321  0.82991  1.0000
  C   C874      1.0  0.28578  0.83294  0.90076  1.0000
  C   C875      1.0  0.37645  0.70211  0.66922  1.0000
  H   H1508     1.0  0.50958  0.83944  0.99437  1.0000
  H   H1509     1.0  0.27153  0.63585  0.76933  1.0000
  S   S256      1.0  0.49073  0.68303  0.67325  1.0000
  C   C876      1.0  0.49835  0.75628  0.98050  1.0000
  C   C877      1.0  0.27493  0.79705  0.85339  1.0000
  H   H1510     1.0  0.26944  0.87955  0.89131  1.0000
  C   C878      1.0  0.51224  0.69832  0.93500  1.0000
  C   C879      1.0  0.51323  0.68006  0.97088  1.0000
  C   C880      1.0  0.40490  0.69837  0.66793  1.0000
  H   H1511     1.0  0.32482  0.79661  0.66528  1.0000
  H   H1512     1.0  0.44040  0.82408  0.67918  1.0000
  H   H1513     1.0  0.27934  0.80274  0.83740  1.0000
  H   H1514     1.0  0.50398  0.69307  0.79507  1.0000
  C   C881      1.0  0.43815  0.84802  0.67847  1.0000
  H   H1515     1.0  0.26653  0.81133  0.91584  1.0000
  H   H1516     1.0  0.27605  0.78945  0.89732  1.0000
  H   H1517     1.0  0.27375  0.70017  0.78332  1.0000
  H   H1518     1.0  0.28694  0.66131  0.76343  1.0000
  C   C882      1.0  0.51079  0.63847  0.82272  1.0000
  H   H1519     1.0  0.50483  0.63606  0.80759  1.0000
  H   H1520     1.0  0.49090  0.70793  0.91843  1.0000
  Fe  Fe128     1.0  0.31279  0.64687  0.66381  1.0000
  Fe  Fe129     1.0  0.58515  0.32795  0.31091  1.0000
  S   S257      1.0  0.60879  0.34805  0.30248  1.0000
  Fe  Fe130     1.0  0.55030  0.32029  0.30037  1.0000
  H   H1521     1.0  0.55949  0.10874  0.31403  1.0000
  S   S258      1.0  0.52881  0.32237  0.27938  1.0000
  H   H1522     1.0  0.70075  0.37106  0.01777  1.0000
  S   S259      1.0  0.56453  0.35847  0.31155  1.0000
  S   S260      1.0  0.57140  0.29102  0.29669  1.0000
  Fe  Fe131     1.0  0.73135  0.29525  0.29757  1.0000
  C   C883      1.0  0.62634  0.29747  0.30589  1.0000
  H   H1523     1.0  0.53281  0.11960  0.28614  1.0000
  Fe  Fe132     1.0  0.69637  0.29598  0.31058  1.0000
  H   H1524     1.0  0.61538  0.28559  0.30634  1.0000
  S   S261      1.0  0.67243  0.27688  0.30409  1.0000
  S   S262      1.0  0.71212  0.32830  0.29332  1.0000
  S   S263      1.0  0.71513  0.26157  0.31185  1.0000
  C   C884      1.0  0.75346  0.22419  0.23223  1.0000
  H   H1525     1.0  0.73796  0.33466  0.00468  1.0000
  H   H1526     1.0  0.73459  0.28448  0.00527  1.0000
  H   H1527     1.0  0.67752  0.32109  0.01336  1.0000
  C   C885      1.0  0.51596  0.24713  0.01405  1.0000
  H   H1528     1.0  0.73404  0.29844  0.17838  1.0000
  H   H1529     1.0  0.52790  0.39330  0.29755  1.0000
  C   C886      1.0  0.62635  0.32804  0.30442  1.0000
  C   C887      1.0  0.64070  0.34316  0.30376  1.0000
  C   C888      1.0  0.65492  0.32787  0.30434  1.0000
  C   C889      1.0  0.65490  0.29725  0.30515  1.0000
  S   S264      1.0  0.73781  0.31370  0.32890  1.0000
  H   H1530     1.0  0.69854  0.33823  0.03168  1.0000
  H   H1531     1.0  0.64082  0.36679  0.30253  1.0000
  H   H1532     1.0  0.66588  0.33973  0.30353  1.0000
  H   H1533     1.0  0.53666  0.33023  0.13218  1.0000
  H   H1534     1.0  0.51588  0.40194  0.14179  1.0000
  H   H1535     1.0  0.61612  0.41736  0.31489  1.0000
  C   C890      1.0  0.52936  0.10695  0.31914  1.0000
  S   S265      1.0  0.75354  0.28723  0.27768  1.0000
  H   H1536     1.0  0.75113  0.21377  0.28757  1.0000
  H   H1537     1.0  0.54958  0.15634  0.29651  1.0000
  H   H1538     1.0  0.74959  0.26212  0.15869  1.0000
  H   H1539     1.0  0.70745  0.29258  0.01911  1.0000
  H   H1540     1.0  0.52856  0.45865  0.28525  1.0000
  H   H1541     1.0  0.75638  0.02435  0.01131  1.0000
  H   H1542     1.0  0.53648  0.35762  0.19860  1.0000
  H   H1543     1.0  0.75120  0.14257  0.32502  1.0000
  H   H1544     1.0  0.52764  0.29591  0.18204  1.0000
  N   N61       1.0  0.51726  0.33328  0.16668  1.0000
  H   H1545     1.0  0.54127  0.32009  0.17003  1.0000
  H   H1546     1.0  0.75811  0.31670  0.19921  1.0000
  C   C891      1.0  0.69916  0.34707  0.01544  1.0000
  C   C892      1.0  0.72766  0.34245  0.01390  1.0000
  C   C893      1.0  0.52871  0.31106  0.13251  1.0000
  H   H1547     1.0  0.67512  0.36012  0.00973  1.0000
  H   H1548     1.0  0.60250  0.43944  0.30103  1.0000
  H   H1549     1.0  0.59618  0.40525  0.31181  1.0000
  H   H1550     1.0  0.54338  0.32310  0.20765  1.0000
  H   H1551     1.0  0.74605  0.30377  0.14409  1.0000
  H   H1552     1.0  0.55751  0.17589  0.31845  1.0000
  H   H1553     1.0  0.53454  0.36545  0.15580  1.0000
  C   C894      1.0  0.53125  0.37071  0.25254  1.0000
  H   H1554     1.0  0.74523  0.20896  0.22558  1.0000
  H   H1555     1.0  0.73684  0.26347  0.19126  1.0000
  H   H1556     1.0  0.72137  0.34272  0.04758  1.0000
  Fe  Fe133     1.0  0.71775  0.34471  0.32570  1.0000
  H   H1557     1.0  0.73502  0.16187  0.28964  1.0000
  H   H1558     1.0  0.72908  0.36666  0.01434  1.0000
  C   C895      1.0  0.51497  0.45348  0.32462  1.0000
  C   C896      1.0  0.53334  0.33413  0.20033  1.0000
  C   C897      1.0  0.71048  0.30114  0.00321  1.0000
  C   C898      1.0  0.72954  0.33160  0.03659  1.0000
  H   H1559     1.0  0.75415  0.14748  0.29019  1.0000
  H   H1560     1.0  0.75827  0.03539  0.04614  1.0000
  H   H1561     1.0  0.73644  0.24271  0.25388  1.0000
  H   H1562     1.0  0.53848  0.42066  0.31037  1.0000
  N   N62       1.0  0.71269  0.33393  0.00346  1.0000
  C   C899      1.0  0.74844  0.24331  0.24828  1.0000
  H   H1563     1.0  0.74222  0.19915  0.31049  1.0000
  H   H1564     1.0  0.52753  0.39445  0.99895  1.0000
  H   H1565     1.0  0.53761  0.42859  0.27245  1.0000
  C   C900      1.0  0.74749  0.16735  0.28647  1.0000
  H   H1566     1.0  0.74888  0.24447  0.32267  1.0000
  C   C901      1.0  0.75181  0.19522  0.29889  1.0000
  H   H1567     1.0  0.73304  0.29555  0.20624  1.0000
  C   C902      1.0  0.52981  0.26103  0.00673  1.0000
  H   H1568     1.0  0.56987  0.15485  0.30183  1.0000
  C   C903      1.0  0.55592  0.12813  0.32347  1.0000
  H   H1569     1.0  0.51685  0.43055  0.27278  1.0000
  H   H1570     1.0  0.54293  0.37378  0.25828  1.0000
  H   H1571     1.0  0.66506  0.20577  0.31468  1.0000
  H   H1572     1.0  0.72824  0.30754  0.03812  1.0000
  C   C904      1.0  0.76116  0.24513  0.32771  1.0000
  H   H1573     1.0  0.53921  0.26477  0.01746  1.0000
  H   H1574     1.0  0.52226  0.14669  0.30129  1.0000
  H   H1575     1.0  0.52708  0.45884  0.32932  1.0000
  C   C905      1.0  0.67743  0.19881  0.31438  1.0000
  C   C906      1.0  0.52203  0.36414  0.16069  1.0000
  C   C907      1.0  0.68284  0.34120  0.00637  1.0000
  H   H1576     1.0  0.76176  0.24143  0.17473  1.0000
  C   C908      1.0  0.73921  0.28740  0.19196  1.0000
  C   C909      1.0  0.64055  0.28216  0.30603  1.0000
  H   H1577     1.0  0.68501  0.21817  0.31118  1.0000
  H   H1578     1.0  0.53551  0.29131  0.13666  1.0000
  H   H1579     1.0  0.75851  0.00149  0.06122  1.0000
  H   H1580     1.0  0.53256  0.40792  0.23157  1.0000
  C   C910      1.0  0.52721  0.41650  0.30253  1.0000
  C   C911      1.0  0.52212  0.34732  0.26006  1.0000
  C   C912      1.0  0.75682  0.29359  0.19393  1.0000
  C   C913      1.0  0.75295  0.32269  0.14948  1.0000
  C   C914      1.0  0.76182  0.26051  0.16379  1.0000
  H   H1581     1.0  0.67911  0.18367  0.30096  1.0000
  C   C915      1.0  0.55805  0.15533  0.30925  1.0000
  C   C916      1.0  0.52532  0.39006  0.23739  1.0000
  H   H1582     1.0  0.52449  0.30865  0.11627  1.0000
  H   H1583     1.0  0.52110  0.37899  0.17447  1.0000
  H   H1584     1.0  0.74152  0.33722  0.04167  1.0000
  H   H1585     1.0  0.51869  0.09869  0.32753  1.0000
  C   C917      1.0  0.52425  0.12302  0.29918  1.0000
  H   H1586     1.0  0.76041  0.27991  0.20744  1.0000
  H   H1587     1.0  0.74844  0.17167  0.26935  1.0000
  C   C918      1.0  0.53006  0.31959  0.17912  1.0000
  H   H1588     1.0  0.52335  0.33176  0.21145  1.0000
  C   C919      1.0  0.52732  0.43488  0.28223  1.0000
  H   H1589     1.0  0.53306  0.37030  0.32871  1.0000
  H   H1590     1.0  0.74555  0.33697  0.15956  1.0000
  H   H1591     1.0  0.53179  0.16767  0.32776  1.0000
  H   H1592     1.0  0.75617  0.33492  0.13493  1.0000
  H   H1593     1.0  0.64041  0.25849  0.30657  1.0000
  H   H1594     1.0  0.53502  0.08652  0.31350  1.0000
  C   C920      1.0  0.75895  0.26309  0.25703  1.0000
  C   C921      1.0  0.60380  0.42452  0.31463  1.0000
  H   H1595     1.0  0.51484  0.24013  0.03021  1.0000
  H   H1596     1.0  0.51478  0.36824  0.12781  1.0000
  Fe  Fe134     1.0  0.56662  0.27668  0.33019  1.0000
  H   H1597     1.0  0.72496  0.48804  0.36726  1.0000
  H   H1598     1.0  0.57098  0.45743  0.45682  1.0000
  S   S266      1.0  0.55408  0.36856  0.37173  1.0000
  S   S267      1.0  0.56450  0.01118  0.43204  1.0000
  H   H1599     1.0  0.51860  0.13978  0.36828  1.0000
  H   H1600     1.0  0.63940  0.16876  0.35992  1.0000
  H   H1601     1.0  0.51568  0.06049  0.53979  1.0000
  S   S268      1.0  0.72552  0.25530  0.37186  1.0000
  Fe  Fe135     1.0  0.57986  0.05101  0.43642  1.0000
  S   S269      1.0  0.57759  0.06818  0.40367  1.0000
  S   S270      1.0  0.60309  0.04400  0.45216  1.0000
  Fe  Fe136     1.0  0.54457  0.04006  0.44265  1.0000
  S   S271      1.0  0.54005  0.05613  0.40984  1.0000
  S   S272      1.0  0.52218  0.03120  0.46227  1.0000
  Fe  Fe137     1.0  0.56105  0.03006  0.40000  1.0000
  H   H1602     1.0  0.61073  0.47979  0.37955  1.0000
  Fe  Fe138     1.0  0.55684  0.09293  0.41613  1.0000
  S   S273      1.0  0.54879  0.13980  0.40967  1.0000
  C   C922      1.0  0.65914  0.19886  0.35714  1.0000
  S   S274      1.0  0.56027  0.07856  0.44953  1.0000
  Fe  Fe139     1.0  0.71423  0.02444  0.40512  1.0000
  S   S275      1.0  0.70293  0.04035  0.43536  1.0000
  S   S276      1.0  0.71027  0.47824  0.40868  1.0000
  Fe  Fe140     1.0  0.72163  0.08773  0.39165  1.0000
  S   S277      1.0  0.71112  0.10729  0.42069  1.0000
  S   S278      1.0  0.72974  0.11685  0.36468  1.0000
  Fe  Fe141     1.0  0.72356  0.07134  0.43769  1.0000
  S   S279      1.0  0.73457  0.07643  0.47007  1.0000
  Fe  Fe142     1.0  0.69158  0.07500  0.41591  1.0000
  S   S280      1.0  0.66719  0.09435  0.41425  1.0000
  S   S281      1.0  0.73551  0.05346  0.40869  1.0000
  S   S282      1.0  0.70147  0.05736  0.38571  1.0000
  H   H1603     1.0  0.59493  0.48706  0.36142  1.0000
  H   H1604     1.0  0.59114  0.48273  0.38859  1.0000
  C   C923      1.0  0.74325  0.37793  0.38283  1.0000
  H   H1605     1.0  0.74029  0.17378  0.52695  1.0000
  H   H1606     1.0  0.53761  0.15377  0.47437  1.0000
  H   H1607     1.0  0.64078  0.45587  0.35918  1.0000
  H   H1608     1.0  0.53670  0.42146  0.54528  1.0000
  H   H1609     1.0  0.75472  0.12212  0.45074  1.0000
  H   H1610     1.0  0.57065  0.45670  0.48460  1.0000
  H   H1611     1.0  0.52343  0.41207  0.34794  1.0000
  C   C924      1.0  0.62085  0.05818  0.44149  1.0000
  C   C925      1.0  0.63510  0.04841  0.44942  1.0000
  C   C926      1.0  0.64943  0.05847  0.44080  1.0000
  C   C927      1.0  0.64961  0.07904  0.42452  1.0000
  C   C928      1.0  0.63536  0.08895  0.41672  1.0000
  C   C929      1.0  0.62106  0.07835  0.42498  1.0000
  C   C930      1.0  0.53630  0.04645  0.55491  1.0000
  C   C931      1.0  0.72788  0.16665  0.49811  1.0000
  H   H1612     1.0  0.63540  0.10503  0.40424  1.0000
  H   H1613     1.0  0.61021  0.08620  0.41881  1.0000
  C   C932      1.0  0.71748  0.41759  0.35162  1.0000
  C   C933      1.0  0.70911  0.40800  0.36939  1.0000
  C   C934      1.0  0.70684  0.42700  0.38657  1.0000
  C   C935      1.0  0.71254  0.45601  0.38599  1.0000
  C   C936      1.0  0.72047  0.46586  0.36793  1.0000
  C   C937      1.0  0.72298  0.44670  0.35092  1.0000
  H   H1614     1.0  0.70461  0.38585  0.37002  1.0000
  H   H1615     1.0  0.70062  0.41921  0.40041  1.0000
  C   C938      1.0  0.52453  0.17433  0.45041  1.0000
  C   C939      1.0  0.75398  0.35329  0.41318  1.0000
  C   C940      1.0  0.72641  0.21675  0.36992  1.0000
  C   C941      1.0  0.72524  0.20278  0.35060  1.0000
  C   C942      1.0  0.72600  0.17214  0.34929  1.0000
  C   C943      1.0  0.72786  0.15509  0.36731  1.0000
  C   C944      1.0  0.72886  0.16894  0.38675  1.0000
  C   C945      1.0  0.72819  0.19971  0.38803  1.0000
  S   S283      1.0  0.58152  0.31222  0.34385  1.0000
  C   C946      1.0  0.59936  0.37749  0.37541  1.0000
  H   H1616     1.0  0.73056  0.15597  0.40070  1.0000
  H   H1617     1.0  0.72915  0.21031  0.40307  1.0000
  C   C947      1.0  0.56618  0.20596  0.35953  1.0000
  C   C948      1.0  0.55396  0.21304  0.37342  1.0000
  C   C949      1.0  0.54911  0.19290  0.38910  1.0000
  C   C950      1.0  0.55646  0.16558  0.39117  1.0000
  C   C951      1.0  0.56903  0.15895  0.37776  1.0000
  C   C952      1.0  0.57377  0.17895  0.36197  1.0000
  H   H1618     1.0  0.54797  0.23368  0.37168  1.0000
  H   H1619     1.0  0.53939  0.19831  0.39940  1.0000
  H   H1620     1.0  0.57489  0.13815  0.37925  1.0000
  H   H1621     1.0  0.53521  0.18473  0.44348  1.0000
  C   C953      1.0  0.55362  0.40704  0.36921  1.0000
  C   C954      1.0  0.55116  0.42430  0.38708  1.0000
  C   C955      1.0  0.55073  0.45503  0.38549  1.0000
  C   C956      1.0  0.55259  0.46866  0.36595  1.0000
  C   C957      1.0  0.55503  0.45139  0.34811  1.0000
  C   C958      1.0  0.55565  0.42073  0.34974  1.0000
  H   H1622     1.0  0.54951  0.41388  0.40220  1.0000
  H   H1623     1.0  0.54856  0.46810  0.39930  1.0000
  C   C959      1.0  0.72092  0.18218  0.45378  1.0000
  C   C960      1.0  0.58569  0.49081  0.47033  1.0000
  H   H1624     1.0  0.71253  0.20032  0.45599  1.0000
  H   H1625     1.0  0.53786  0.08202  0.50406  1.0000
  C   C961      1.0  0.68065  0.24695  0.37443  1.0000
  N   N63       1.0  0.67670  0.19796  0.35476  1.0000
  H   H1626     1.0  0.72344  0.33783  0.42148  1.0000
  C   C962      1.0  0.73433  0.32842  0.39059  1.0000
  H   H1627     1.0  0.69508  0.18162  0.33437  1.0000
  H   H1628     1.0  0.65563  0.20296  0.37375  1.0000
  H   H1629     1.0  0.71113  0.31969  0.40334  1.0000
  H   H1630     1.0  0.68587  0.11876  0.48176  1.0000
  H   H1631     1.0  0.52030  0.35081  0.55972  1.0000
  S   S284      1.0  0.56378  0.00568  0.36929  1.0000
  C   C963      1.0  0.59770  0.39484  0.35482  1.0000
  H   H1632     1.0  0.51631  0.45674  0.47537  1.0000
  C   C964      1.0  0.52932  0.14641  0.46229  1.0000
  C   C965      1.0  0.54208  0.10439  0.35285  1.0000
  H   H1633     1.0  0.52474  0.00922  0.58435  1.0000
  H   H1634     1.0  0.62022  0.01671  0.37304  1.0000
  H   H1635     1.0  0.57486  0.48438  0.53512  1.0000
  H   H1636     1.0  0.54819  0.11682  0.36520  1.0000
  C   C966      1.0  0.55118  0.07564  0.34962  1.0000
  H   H1637     1.0  0.73441  0.38824  0.39338  1.0000
  H   H1638     1.0  0.56337  0.07940  0.34412  1.0000
  H   H1639     1.0  0.71978  0.17933  0.52998  1.0000
  C   C967      1.0  0.51606  0.33948  0.51411  1.0000
  C   C968      1.0  0.72868  0.16540  0.52222  1.0000
  H   H1640     1.0  0.53747  0.06434  0.56647  1.0000
  C   C969      1.0  0.75617  0.40128  0.37946  1.0000
  H   H1641     1.0  0.73006  0.32675  0.37428  1.0000
  H   H1642     1.0  0.66031  0.05089  0.44707  1.0000
  H   H1643     1.0  0.58327  0.17333  0.35136  1.0000
  C   C970      1.0  0.59854  0.47458  0.37538  1.0000
  C   C971      1.0  0.75612  0.11684  0.65721  1.0000
  H   H1644     1.0  0.61963  0.01398  0.41242  1.0000
  H   H1645     1.0  0.73768  0.15322  0.49205  1.0000
  H   H1646     1.0  0.52833  0.39514  0.51417  1.0000
  H   H1647     1.0  0.70297  0.13011  0.51389  1.0000
  H   H1648     1.0  0.69833  0.18019  0.51112  1.0000
  H   H1649     1.0  0.59071  0.38477  0.38744  1.0000
  H   H1650     1.0  0.51634  0.42526  0.54178  1.0000
  H   H1651     1.0  0.52355  0.40139  0.56200  1.0000
  C   C972      1.0  0.52546  0.40924  0.54571  1.0000
  C   C973      1.0  0.69696  0.10797  0.48543  1.0000
  C   C974      1.0  0.59588  0.44134  0.37335  1.0000
  H   H1652     1.0  0.51953  0.35869  0.34843  1.0000
  H   H1653     1.0  0.67909  0.19827  0.48239  1.0000
  C   C975      1.0  0.74964  0.09960  0.47974  1.0000
  H   H1654     1.0  0.51665  0.08544  0.43928  1.0000
  C   C976      1.0  0.64994  0.17168  0.34968  1.0000
  H   H1655     1.0  0.54449  0.11698  0.49511  1.0000
  H   H1656     1.0  0.73278  0.18916  0.45840  1.0000
  H   H1657     1.0  0.52982  0.08946  0.46846  1.0000
  H   H1658     1.0  0.72779  0.14263  0.52827  1.0000
  C   C977      1.0  0.60962  0.00467  0.40385  1.0000
  H   H1659     1.0  0.62426  0.42187  0.37385  1.0000
  C   C978      1.0  0.75733  0.12059  0.46719  1.0000
  H   H1660     1.0  0.75100  0.11943  0.64148  1.0000
  H   H1661     1.0  0.72459  0.13709  0.46218  1.0000
  C   C979      1.0  0.76429  0.11734  0.50995  1.0000
  H   H1662     1.0  0.51902  0.02272  0.53754  1.0000
  H   H1663     1.0  0.73757  0.37499  0.36746  1.0000
  Fe  Fe143     1.0  0.56008  0.34017  0.34368  1.0000
  H   H1664     1.0  0.55190  0.06440  0.36498  1.0000
  H   H1665     1.0  0.58515  0.39398  0.35073  1.0000
  N   N64       1.0  0.60365  0.42612  0.35499  1.0000
  C   C980      1.0  0.75329  0.09803  0.50113  1.0000
  H   H1666     1.0  0.74990  0.07108  0.65589  1.0000
  H   H1667     1.0  0.59971  0.43183  0.38843  1.0000
  H   H1668     1.0  0.59893  0.01169  0.41266  1.0000
  H   H1669     1.0  0.75076  0.42144  0.37311  1.0000
  H   H1670     1.0  0.70256  0.09986  0.47076  1.0000
  H   H1671     1.0  0.74562  0.36665  0.42265  1.0000
  H   H1672     1.0  0.54160  0.16322  0.35125  1.0000
  N   N65       1.0  0.74831  0.34864  0.39126  1.0000
  H   H1673     1.0  0.52613  0.32674  0.52000  1.0000
  H   H1674     1.0  0.58305  0.43782  0.37302  1.0000
  H   H1675     1.0  0.66845  0.24624  0.38047  1.0000
  H   H1676     1.0  0.62614  0.40672  0.34835  1.0000
  H   H1677     1.0  0.67976  0.19272  0.38823  1.0000
  H   H1678     1.0  0.54306  0.05310  0.54063  1.0000
  H   H1679     1.0  0.75629  0.33053  0.44290  1.0000
  H   H1680     1.0  0.60382  0.38178  0.34249  1.0000
  H   H1681     1.0  0.54521  0.06023  0.33903  1.0000
  H   H1682     1.0  0.66855  0.14494  0.38002  1.0000
  H   H1683     1.0  0.73088  0.18958  0.49355  1.0000
  H   H1684     1.0  0.69401  0.08816  0.49489  1.0000
  C   C981      1.0  0.53386  0.10418  0.49941  1.0000
  H   H1685     1.0  0.68468  0.16726  0.46807  1.0000
  H   H1686     1.0  0.68785  0.14160  0.38903  1.0000
  C   C982      1.0  0.68441  0.17628  0.48409  1.0000
  H   H1687     1.0  0.65448  0.21770  0.34807  1.0000
  H   H1688     1.0  0.75903  0.34347  0.36042  1.0000
  H   H1689     1.0  0.61132  0.37879  0.38157  1.0000
  H   H1690     1.0  0.59556  0.47528  0.47161  1.0000
  C   C983      1.0  0.68284  0.22909  0.35414  1.0000
  H   H1691     1.0  0.68358  0.27025  0.37109  1.0000
  H   H1692     1.0  0.51905  0.19069  0.46095  1.0000
  C   C984      1.0  0.68390  0.18286  0.37324  1.0000
  C   C985      1.0  0.70060  0.17969  0.49393  1.0000
  N   N66       1.0  0.71269  0.15693  0.48862  1.0000
  S   S285      1.0  0.57147  0.22842  0.33771  1.0000
  H   H1693     1.0  0.59678  0.35402  0.37248  1.0000
  C   C986      1.0  0.76127  0.33747  0.37704  1.0000
  C   C987      1.0  0.51747  0.15026  0.35270  1.0000
  H   H1694     1.0  0.56390  0.48326  0.51172  1.0000
  N   N67       1.0  0.54002  0.12321  0.33361  1.0000
  C   C988      1.0  0.51627  0.00758  0.48332  1.0000
  H   H1695     1.0  0.69552  0.22959  0.35004  1.0000
  H   H1696     1.0  0.75040  0.30672  0.42304  1.0000
  H   H1697     1.0  0.65628  0.15074  0.35014  1.0000
  C   C989      1.0  0.52286  0.10081  0.48075  1.0000
  H   H1698     1.0  0.55768  0.40775  0.33594  1.0000
  H   H1699     1.0  0.59900  0.01554  0.37351  1.0000
  C   C990      1.0  0.71558  0.15407  0.46535  1.0000
  H   H1700     1.0  0.72165  0.17754  0.43673  1.0000
  H   H1701     1.0  0.53644  0.13278  0.45136  1.0000
  H   H1702     1.0  0.71880  0.11383  0.50004  1.0000
  H   H1703     1.0  0.51805  0.12069  0.42652  1.0000
  H   H1704     1.0  0.75327  0.48029  0.65595  1.0000
  H   H1705     1.0  0.59436  0.48120  0.50793  1.0000
  H   H1706     1.0  0.76186  0.23811  0.34430  1.0000
  H   H1707     1.0  0.68877  0.23961  0.38667  1.0000
  H   H1708     1.0  0.68480  0.13686  0.36196  1.0000
  H   H1709     1.0  0.63507  0.03297  0.46229  1.0000
  H   H1710     1.0  0.53700  0.37140  0.53279  1.0000
  C   C991      1.0  0.68090  0.14974  0.37574  1.0000
  C   C992      1.0  0.70822  0.12748  0.49793  1.0000
  H   H1711     1.0  0.70516  0.14601  0.45717  1.0000
  C   C993      1.0  0.60954  0.02084  0.38258  1.0000
  H   H1712     1.0  0.70497  0.20224  0.49043  1.0000
  H   H1713     1.0  0.71494  0.35772  0.39991  1.0000
  C   C994      1.0  0.62115  0.42560  0.35722  1.0000
  H   H1714     1.0  0.67656  0.16264  0.49421  1.0000
  H   H1715     1.0  0.51887  0.05784  0.59273  1.0000
  H   H1716     1.0  0.54183  0.02621  0.56077  1.0000
  C   C995      1.0  0.72030  0.33683  0.40476  1.0000
  H   H1717     1.0  0.73727  0.30566  0.39493  1.0000
  C   C996      1.0  0.51918  0.04112  0.54898  1.0000
  C   C997      1.0  0.63039  0.45282  0.34929  1.0000
  H   H1718     1.0  0.69677  0.18597  0.37272  1.0000
  H   H1719     1.0  0.60926  0.04480  0.38555  1.0000
  H   H1720     1.0  0.74745  0.08192  0.51101  1.0000
  C   C998      1.0  0.57085  0.47164  0.47091  1.0000
  H   H1721     1.0  0.72943  0.45438  0.33722  1.0000
  S   S286      1.0  0.70092  0.31431  0.34251  1.0000
  H   H1722     1.0  0.55997  0.48450  0.47021  1.0000
  C   C999      1.0  0.68213  0.18336  0.33478  1.0000
  H   H1723     1.0  0.53061  0.09788  0.35998  1.0000
  H   H1724     1.0  0.75455  0.29239  0.36878  1.0000
  H   H1725     1.0  0.52801  0.11389  0.51332  1.0000
  H   H1726     1.0  0.67715  0.24200  0.34165  1.0000
  C   C1000     1.0  0.76019  0.08433  0.66061  1.0000
  H   H1727     1.0  0.56496  0.13059  0.33566  1.0000
  C   C1001     1.0  0.75804  0.32577  0.42597  1.0000
  H   H1728     1.0  0.53144  0.36042  0.49010  1.0000
  Fe  Fe144     1.0  0.72049  0.28179  0.34270  1.0000
  C   C1002     1.0  0.52626  0.38416  0.52957  1.0000
  C   C1003     1.0  0.53328  0.15200  0.34082  1.0000
  H   H1729     1.0  0.76281  0.13996  0.34747  1.0000
  C   C1004     1.0  0.51717  0.47864  0.48165  1.0000
  H   H1730     1.0  0.62397  0.47369  0.34979  1.0000
  H   H1731     1.0  0.76170  0.40764  0.39430  1.0000
  C   C1005     1.0  0.52012  0.34859  0.49134  1.0000
  H   H1732     1.0  0.52137  0.32854  0.48164  1.0000
  H   H1733     1.0  0.72378  0.21552  0.33663  1.0000
  C   C1006     1.0  0.59867  0.44034  0.33488  1.0000
  H   H1734     1.0  0.75703  0.19066  0.34061  1.0000
  H   H1735     1.0  0.58574  0.44204  0.33462  1.0000
  H   H1736     1.0  0.60283  0.46324  0.33339  1.0000
  H   H1737     1.0  0.55654  0.46183  0.33296  1.0000
  S   S287      1.0  0.54467  0.30328  0.33298  1.0000
  C   C1007     1.0  0.52055  0.37081  0.33334  1.0000
  C   C1008     1.0  0.76411  0.30413  0.37675  1.0000
  C   C1009     1.0  0.51501  0.40255  0.33674  1.0000
  H   H1738     1.0  0.64545  0.17541  0.33371  1.0000
  H   H1739     1.0  0.51725  0.15570  0.49989  1.0000
  N   N68       1.0  0.51618  0.12866  0.47208  1.0000
  H   H1740     1.0  0.51678  0.16959  0.43717  1.0000
  H   H1741     1.0  0.63511  0.44904  0.33320  1.0000
  H   H1742     1.0  0.72508  0.16156  0.33424  1.0000
  H   H1743     1.0  0.67797  0.16045  0.33369  1.0000
  S   S288      1.0  0.72228  0.39369  0.33050  1.0000
  C   C1010     1.0  0.76294  0.14769  0.33094  1.0000
  Fe  Fe145     1.0  0.55306  0.08008  0.80068  1.0000
  S   S289      1.0  0.54504  0.05988  0.83147  1.0000
  S   S290      1.0  0.53869  0.07887  0.77070  1.0000
  Fe  Fe146     1.0  0.58653  0.08964  0.81634  1.0000
  S   S291      1.0  0.58101  0.07043  0.84794  1.0000
  S   S292      1.0  0.60992  0.11113  0.80844  1.0000
  Fe  Fe147     1.0  0.56778  0.03535  0.83105  1.0000
  H   H1744     1.0  0.58690  0.06675  0.72772  1.0000
  Fe  Fe148     1.0  0.55890  0.09650  0.84609  1.0000
  S   S293      1.0  0.55223  0.12173  0.87536  1.0000
  S   S294      1.0  0.57494  0.05297  0.79925  1.0000
  S   S295      1.0  0.56527  0.11833  0.81557  1.0000
  Fe  Fe149     1.0  0.72834  0.04411  0.78186  1.0000
  S   S296      1.0  0.74161  0.06197  0.80907  1.0000
  S   S297      1.0  0.73744  0.02564  0.75050  1.0000
  Fe  Fe150     1.0  0.69664  0.05023  0.80569  1.0000
  S   S298      1.0  0.70772  0.06845  0.83450  1.0000
  S   S299      1.0  0.67153  0.03371  0.80576  1.0000
  Fe  Fe151     1.0  0.72241  0.09555  0.81220  1.0000
  S   S300      1.0  0.72974  0.14316  0.81749  1.0000
  Fe  Fe152     1.0  0.72582  0.03380  0.82929  1.0000
  H   H1745     1.0  0.65962  0.35508  0.86756  1.0000
  S   S301      1.0  0.71009  0.07967  0.78331  1.0000
  S   S302      1.0  0.71389  0.01353  0.80214  1.0000
  Fe  Fe153     1.0  0.55758  0.28655  0.89736  1.0000
  S   S303      1.0  0.57031  0.26454  0.92322  1.0000
  S   S304      1.0  0.54688  0.26022  0.87131  1.0000
  Fe  Fe154     1.0  0.56531  0.34823  0.91290  1.0000
  S   S305      1.0  0.57867  0.32979  0.94002  1.0000
  S   S306      1.0  0.56505  0.39845  0.91197  1.0000
  Fe  Fe155     1.0  0.58899  0.29830  0.91671  1.0000
  S   S307      1.0  0.61339  0.28125  0.90968  1.0000
  Fe  Fe156     1.0  0.55860  0.29770  0.94406  1.0000
  S   S308      1.0  0.54964  0.28624  0.97718  1.0000
  S   S309      1.0  0.57689  0.31853  0.88945  1.0000
  S   S310      1.0  0.54458  0.31802  0.91845  1.0000
  Fe  Fe157     1.0  0.69996  0.31994  0.92606  1.0000
  S   S311      1.0  0.70217  0.30519  0.89279  1.0000
  S   S312      1.0  0.67737  0.33392  0.94221  1.0000
  Fe  Fe158     1.0  0.73523  0.31601  0.93336  1.0000
  S   S313      1.0  0.74004  0.30033  0.90025  1.0000
  C   C1011     1.0  0.52709  0.19682  0.93952  1.0000
  Fe  Fe159     1.0  0.72299  0.33544  0.89115  1.0000
  S   S314      1.0  0.72502  0.36422  0.86224  1.0000
  Fe  Fe160     1.0  0.71881  0.27122  0.90428  1.0000
  S   S315      1.0  0.71476  0.22254  0.89727  1.0000
  S   S316      1.0  0.71960  0.35284  0.92369  1.0000
  S   S317      1.0  0.71519  0.28423  0.93810  1.0000
  H   H1746     1.0  0.55512  0.99686  0.87503  1.0000
  C   C1012     1.0  0.63087  0.48210  0.81820  1.0000
  C   C1013     1.0  0.62173  0.45918  0.83147  1.0000
  H   H1747     1.0  0.75474  0.36608  0.71643  1.0000
  C   C1014     1.0  0.63092  0.29720  0.91850  1.0000
  C   C1015     1.0  0.64518  0.28658  0.91051  1.0000
  C   C1016     1.0  0.65944  0.29789  0.91751  1.0000
  C   C1017     1.0  0.65959  0.31975  0.93276  1.0000
  C   C1018     1.0  0.64534  0.33060  0.94066  1.0000
  C   C1019     1.0  0.63104  0.31951  0.93346  1.0000
  H   H1748     1.0  0.64520  0.26927  0.89900  1.0000
  H   H1749     1.0  0.67030  0.28917  0.91142  1.0000
  H   H1750     1.0  0.64535  0.34750  0.95247  1.0000
  H   H1751     1.0  0.62013  0.32777  0.93977  1.0000
  C   C1020     1.0  0.71736  0.20308  0.87339  1.0000
  C   C1021     1.0  0.70931  0.17639  0.87074  1.0000
  C   C1022     1.0  0.71249  0.15829  0.85331  1.0000
  C   C1023     1.0  0.72386  0.16661  0.83838  1.0000
  C   C1024     1.0  0.73150  0.19376  0.84067  1.0000
  C   C1025     1.0  0.72829  0.21190  0.85805  1.0000
  H   H1752     1.0  0.70083  0.16937  0.88250  1.0000
  H   H1753     1.0  0.70638  0.13765  0.85169  1.0000
  H   H1754     1.0  0.74023  0.20054  0.82915  1.0000
  H   H1755     1.0  0.73459  0.23231  0.85989  1.0000
  C   C1026     1.0  0.72411  0.46451  0.86654  1.0000
  C   C1027     1.0  0.72690  0.44764  0.88448  1.0000
  C   C1028     1.0  0.72785  0.41691  0.88327  1.0000
  C   C1029     1.0  0.72577  0.40281  0.86412  1.0000
  C   C1030     1.0  0.72345  0.41972  0.84609  1.0000
  C   C1031     1.0  0.72257  0.45042  0.84729  1.0000
  H   H1756     1.0  0.72824  0.45839  0.89940  1.0000
  H   H1757     1.0  0.72994  0.40416  0.89719  1.0000
  H   H1758     1.0  0.72200  0.40900  0.83117  1.0000
  H   H1759     1.0  0.72051  0.46309  0.83335  1.0000
  C   C1032     1.0  0.75624  0.16941  0.89633  1.0000
  H   H1760     1.0  0.67823  0.35165  0.85382  1.0000
  H   H1761     1.0  0.75601  0.41724  0.98830  1.0000
  N   N69       1.0  0.75449  0.11994  0.87644  1.0000
  C   C1033     1.0  0.75606  0.47845  0.73347  1.0000
  C   C1034     1.0  0.55602  0.46174  0.85697  1.0000
  C   C1035     1.0  0.55452  0.43128  0.85425  1.0000
  C   C1036     1.0  0.55743  0.41158  0.87077  1.0000
  C   C1037     1.0  0.56172  0.42217  0.89036  1.0000
  C   C1038     1.0  0.56329  0.45265  0.89308  1.0000
  C   C1039     1.0  0.56052  0.47234  0.87649  1.0000
  H   H1762     1.0  0.55100  0.42283  0.83925  1.0000
  H   H1763     1.0  0.55612  0.38825  0.86842  1.0000
  H   H1764     1.0  0.56658  0.46111  0.90816  1.0000
  H   H1765     1.0  0.60673  0.44401  0.87285  1.0000
  C   C1040     1.0  0.55088  0.16015  0.87367  1.0000
  C   C1041     1.0  0.55288  0.17680  0.89180  1.0000
  C   C1042     1.0  0.55180  0.20746  0.89110  1.0000
  C   C1043     1.0  0.54844  0.22173  0.87238  1.0000
  C   C1044     1.0  0.54627  0.20506  0.85425  1.0000
  C   C1045     1.0  0.54766  0.17435  0.85482  1.0000
  H   H1766     1.0  0.55545  0.16593  0.90637  1.0000
  H   H1767     1.0  0.55327  0.22002  0.90514  1.0000
  H   H1768     1.0  0.54356  0.21593  0.83970  1.0000
  H   H1769     1.0  0.54587  0.16167  0.84081  1.0000
  C   C1046     1.0  0.62701  0.08952  0.80808  1.0000
  C   C1047     1.0  0.62616  0.05894  0.80865  1.0000
  C   C1048     1.0  0.63991  0.04226  0.80776  1.0000
  C   C1049     1.0  0.65464  0.05592  0.80665  1.0000
  C   C1050     1.0  0.65551  0.08652  0.80621  1.0000
  C   C1051     1.0  0.64173  0.10324  0.80676  1.0000
  H   H1770     1.0  0.61490  0.04812  0.80954  1.0000
  C   C1052     1.0  0.75520  0.37405  0.97463  1.0000
  H   H1771     1.0  0.66678  0.09731  0.80528  1.0000
  H   H1772     1.0  0.64250  0.12688  0.80625  1.0000
  H   H1773     1.0  0.53342  0.14203  0.77655  1.0000
  C   C1053     1.0  0.55028  0.19748  0.97223  1.0000
  H   H1774     1.0  0.59997  0.04402  0.75717  1.0000
  H   H1775     1.0  0.53404  0.13084  0.96427  1.0000
  H   H1776     1.0  0.70488  0.33389  0.97115  1.0000
  H   H1777     1.0  0.75998  0.09851  0.90585  1.0000
  S   S318      1.0  0.73429  0.00935  0.85768  1.0000
  H   H1778     1.0  0.74783  0.46322  0.72683  1.0000
  C   C1054     1.0  0.74045  0.09220  0.70226  1.0000
  H   H1779     1.0  0.57890  0.10662  0.69707  1.0000
  H   H1780     1.0  0.55820  0.18066  0.96565  1.0000
  H   H1781     1.0  0.59374  0.40023  0.85839  1.0000
  H   H1782     1.0  0.71947  0.39140  0.98792  1.0000
  H   H1783     1.0  0.59721  0.48844  0.88555  1.0000
  H   H1784     1.0  0.73153  0.09538  0.69013  1.0000
  H   H1785     1.0  0.51930  0.17839  0.75502  1.0000
  H   H1786     1.0  0.54699  0.39968  0.95242  1.0000
  H   H1787     1.0  0.53225  0.39405  0.92200  1.0000
  H   H1788     1.0  0.55806  0.10731  0.69733  1.0000
  C   C1055     1.0  0.53172  0.26960  0.98564  1.0000
  H   H1789     1.0  0.61800  0.44198  0.82039  1.0000
  C   C1056     1.0  0.75955  0.39624  0.74129  1.0000
  C   C1057     1.0  0.60127  0.41473  0.84840  1.0000
  H   H1790     1.0  0.51598  0.35888  0.93976  1.0000
  C   C1058     1.0  0.51682  0.38026  0.94811  1.0000
  H   H1791     1.0  0.68911  0.45781  0.86455  1.0000
  H   H1792     1.0  0.63978  0.47073  0.80838  1.0000
  H   H1793     1.0  0.75773  0.01395  0.67458  1.0000
  C   C1059     1.0  0.75614  0.01401  0.74144  1.0000
  C   C1060     1.0  0.71351  0.34510  0.98119  1.0000
  H   H1794     1.0  0.58218  0.44757  0.82017  1.0000
  N   N70       1.0  0.58204  0.10934  0.74131  1.0000
  C   C1061     1.0  0.56761  0.11270  0.72831  1.0000
  C   C1062     1.0  0.57815  0.12152  0.76268  1.0000
  C   C1063     1.0  0.55568  0.37631  0.97870  1.0000
  C   C1064     1.0  0.59549  0.12514  0.73050  1.0000
  H   H1795     1.0  0.74633  0.11323  0.70552  1.0000
  C   C1065     1.0  0.57326  0.15400  0.76321  1.0000
  C   C1066     1.0  0.59610  0.48495  0.83099  1.0000
  C   C1067     1.0  0.60919  0.13500  0.74436  1.0000
  H   H1796     1.0  0.55731  0.10260  0.73644  1.0000
  H   H1797     1.0  0.56466  0.13620  0.72618  1.0000
  H   H1798     1.0  0.58783  0.11908  0.77368  1.0000
  H   H1799     1.0  0.56842  0.10871  0.77008  1.0000
  H   H1800     1.0  0.74878  0.18413  0.90605  1.0000
  H   H1801     1.0  0.55065  0.21738  0.96219  1.0000
  H   H1802     1.0  0.60045  0.11140  0.71765  1.0000
  H   H1803     1.0  0.59122  0.14545  0.72284  1.0000
  C   C1068     1.0  0.52776  0.13516  0.76239  1.0000
  H   H1804     1.0  0.63907  0.01863  0.80780  1.0000
  C   C1069     1.0  0.73228  0.08290  0.88472  1.0000
  H   H1805     1.0  0.58107  0.16822  0.75356  1.0000
  H   H1806     1.0  0.56105  0.15661  0.75810  1.0000
  H   H1807     1.0  0.57364  0.16204  0.77958  1.0000
  H   H1808     1.0  0.75580  0.15326  0.85221  1.0000
  H   H1809     1.0  0.67333  0.40118  0.84978  1.0000
  H   H1810     1.0  0.53894  0.19564  0.93224  1.0000
  H   H1811     1.0  0.62030  0.13265  0.73530  1.0000
  H   H1812     1.0  0.61064  0.12250  0.75901  1.0000
  H   H1813     1.0  0.60831  0.15868  0.74808  1.0000
  N   N71       1.0  0.67606  0.40260  0.88354  1.0000
  H   H1814     1.0  0.56763  0.38038  0.97220  1.0000
  C   C1070     1.0  0.68008  0.37058  0.88527  1.0000
  C   C1071     1.0  0.68582  0.42003  0.89847  1.0000
  H   H1815     1.0  0.65700  0.43196  0.89099  1.0000
  H   H1816     1.0  0.72424  0.06769  0.87667  1.0000
  C   C1072     1.0  0.67216  0.35029  0.86932  1.0000
  C   C1073     1.0  0.68415  0.41253  0.92188  1.0000
  C   C1074     1.0  0.65035  0.38982  0.90418  1.0000
  H   H1817     1.0  0.51891  0.21237  0.90956  1.0000
  C   C1075     1.0  0.76121  0.34562  0.97490  1.0000
  H   H1818     1.0  0.67729  0.36148  0.90096  1.0000
  H   H1819     1.0  0.69293  0.36759  0.88337  1.0000
  H   H1820     1.0  0.69835  0.41766  0.89422  1.0000
  H   H1821     1.0  0.76022  0.00548  0.82266  1.0000
  H   H1822     1.0  0.73389  0.11221  0.85825  1.0000
  H   H1823     1.0  0.75726  0.11057  0.83031  1.0000
  C   C1076     1.0  0.52836  0.10578  0.75633  1.0000
  H   H1824     1.0  0.59686  0.41329  0.83231  1.0000
  H   H1825     1.0  0.68328  0.44383  0.89736  1.0000
  H   H1826     1.0  0.67299  0.32720  0.87469  1.0000
  H   H1827     1.0  0.68702  0.38945  0.92528  1.0000
  H   H1828     1.0  0.67247  0.41827  0.92826  1.0000
  H   H1829     1.0  0.69268  0.42599  0.93057  1.0000
  H   H1830     1.0  0.71362  0.38450  0.96184  1.0000
  H   H1831     1.0  0.65772  0.38172  0.91687  1.0000
  H   H1832     1.0  0.75540  0.05638  0.71070  1.0000
  N   N72       1.0  0.52693  0.37743  0.96714  1.0000
  H   H1833     1.0  0.73648  0.15247  0.88045  1.0000
  C   C1077     1.0  0.56834  0.09959  0.70607  1.0000
  H   H1834     1.0  0.66813  0.45456  0.86155  1.0000
  H   H1835     1.0  0.72103  0.25999  0.99353  1.0000
  C   C1078     1.0  0.68067  0.41223  0.86159  1.0000
  H   H1836     1.0  0.73960  0.06928  0.89495  1.0000
  H   H1837     1.0  0.55502  0.20424  0.98755  1.0000
  C   C1079     1.0  0.74623  0.14310  0.88930  1.0000
  H   H1838     1.0  0.55576  0.35387  0.98541  1.0000
  H   H1839     1.0  0.62443  0.48461  0.86790  1.0000
  H   H1840     1.0  0.74696  0.08302  0.85729  1.0000
  H   H1841     1.0  0.54680  0.36167  0.94930  1.0000
  H   H1842     1.0  0.59807  0.45819  0.80222  1.0000
  N   N73       1.0  0.60814  0.47051  0.84439  1.0000
  H   H1843     1.0  0.58852  0.45098  0.86148  1.0000
  H   H1844     1.0  0.52804  0.33016  0.96534  1.0000
  C   C1080     1.0  0.74211  0.09971  0.86809  1.0000
  H   H1845     1.0  0.52782  0.44435  0.99325  1.0000
  C   C1081     1.0  0.59979  0.06825  0.75550  1.0000
  C   C1082     1.0  0.51975  0.15574  0.75012  1.0000
  H   H1846     1.0  0.70033  0.29507  0.99344  1.0000
  H   H1847     1.0  0.59988  0.07714  0.77157  1.0000
  H   H1848     1.0  0.68440  0.00661  0.84252  1.0000
  H   H1849     1.0  0.64110  0.40326  0.91180  1.0000
  H   H1850     1.0  0.68294  0.33869  0.98915  1.0000
  C   C1083     1.0  0.76306  0.13523  0.85857  1.0000
  H   H1851     1.0  0.65246  0.40442  0.87244  1.0000
  H   H1852     1.0  0.52133  0.07471  0.73294  1.0000
  N   N74       1.0  0.60263  0.20535  0.86582  1.0000
  C   C1084     1.0  0.59068  0.21822  0.85150  1.0000
  C   C1085     1.0  0.60624  0.17471  0.85840  1.0000
  C   C1086     1.0  0.61747  0.22319  0.86549  1.0000
  C   C1087     1.0  0.59601  0.20536  0.88784  1.0000
  C   C1088     1.0  0.58709  0.25104  0.85452  1.0000
  C   C1089     1.0  0.59321  0.15173  0.86207  1.0000
  C   C1090     1.0  0.62540  0.22731  0.84379  1.0000
  C   C1091     1.0  0.60641  0.19202  0.90481  1.0000
  H   H1853     1.0  0.59409  0.21505  0.83476  1.0000
  H   H1854     1.0  0.57935  0.20647  0.85346  1.0000
  H   H1855     1.0  0.61704  0.16616  0.86549  1.0000
  H   H1856     1.0  0.60886  0.17456  0.84125  1.0000
  H   H1857     1.0  0.61550  0.24525  0.87236  1.0000
  H   H1858     1.0  0.62631  0.21299  0.87570  1.0000
  H   H1859     1.0  0.59371  0.22814  0.89314  1.0000
  H   H1860     1.0  0.58430  0.19480  0.88879  1.0000
  H   H1861     1.0  0.59738  0.26527  0.85126  1.0000
  H   H1862     1.0  0.57797  0.25752  0.84334  1.0000
  H   H1863     1.0  0.58227  0.25576  0.87035  1.0000
  H   H1864     1.0  0.59703  0.13058  0.85517  1.0000
  H   H1865     1.0  0.59077  0.14762  0.87894  1.0000
  H   H1866     1.0  0.58229  0.15781  0.85421  1.0000
  H   H1867     1.0  0.62933  0.20616  0.83709  1.0000
  H   H1868     1.0  0.63597  0.24121  0.84554  1.0000
  H   H1869     1.0  0.61778  0.23866  0.83261  1.0000
  H   H1870     1.0  0.61401  0.20918  0.91167  1.0000
  H   H1871     1.0  0.61386  0.17399  0.89904  1.0000
  H   H1872     1.0  0.59890  0.18234  0.91743  1.0000
  H   H1873     1.0  0.68132  0.44904  0.83983  1.0000
  H   H1874     1.0  0.52673  0.20394  0.98312  1.0000
  C   C1092     1.0  0.72447  0.28341  0.99477  1.0000
  H   H1875     1.0  0.61067  0.07455  0.74690  1.0000
  H   H1876     1.0  0.56746  0.07534  0.70648  1.0000
  C   C1093     1.0  0.60089  0.44604  0.85749  1.0000
  C   C1094     1.0  0.58521  0.07699  0.74333  1.0000
  C   C1095     1.0  0.58914  0.46604  0.81359  1.0000
  C   C1096     1.0  0.54397  0.37908  0.96082  1.0000
  H   H1877     1.0  0.53416  0.16865  0.98820  1.0000
  H   H1878     1.0  0.69910  0.38498  0.98206  1.0000
  H   H1879     1.0  0.63028  0.44838  0.84183  1.0000
  H   H1880     1.0  0.61323  0.40562  0.84870  1.0000
  H   H1881     1.0  0.74641  0.37970  0.96344  1.0000
  H   H1882     1.0  0.76306  0.39989  0.70839  1.0000
  C   C1097     1.0  0.52400  0.34739  0.97646  1.0000
  H   H1883     1.0  0.76049  0.18286  0.88286  1.0000
  H   H1884     1.0  0.55363  0.39268  0.99119  1.0000
  H   H1885     1.0  0.57495  0.06559  0.75079  1.0000
  H   H1886     1.0  0.69603  0.02583  0.87168  1.0000
  H   H1887     1.0  0.69286  0.40550  0.85773  1.0000
  C   C1098     1.0  0.53346  0.18580  0.97583  1.0000
  H   H1888     1.0  0.54527  0.14984  0.94559  1.0000
  C   C1099     1.0  0.67962  0.44537  0.85693  1.0000
  C   C1100     1.0  0.52207  0.40246  0.93108  1.0000
  H   H1889     1.0  0.64411  0.37102  0.89709  1.0000
  C   C1101     1.0  0.65889  0.40847  0.88713  1.0000
  S   S319      1.0  0.75428  0.31734  0.95819  1.0000
  C   C1102     1.0  0.75172  0.06739  0.69610  1.0000
  H   H1890     1.0  0.74083  0.13364  0.90381  1.0000
  H   H1891     1.0  0.51688  0.44249  0.96949  1.0000
  H   H1892     1.0  0.74753  0.12519  0.66881  1.0000
  H   H1893     1.0  0.72494  0.33970  0.97370  1.0000
  H   H1894     1.0  0.52489  0.42435  0.93729  1.0000
  H   H1895     1.0  0.72483  0.09775  0.89422  1.0000
  H   H1896     1.0  0.76061  0.38121  0.75475  1.0000
  C   C1103     1.0  0.53295  0.14584  0.95062  1.0000
  S   S320      1.0  0.55212  0.48543  0.83556  1.0000
  C   C1104     1.0  0.71128  0.37842  0.97843  1.0000
  H   H1897     1.0  0.73442  0.08624  0.71728  1.0000
  N   N75       1.0  0.52527  0.17427  0.95677  1.0000
  C   C1105     1.0  0.76071  0.39533  0.98874  1.0000
  H   H1898     1.0  0.72819  0.29074  0.97895  1.0000
  C   C1106     1.0  0.52090  0.09736  0.73783  1.0000
  H   H1899     1.0  0.74716  0.40317  0.74080  1.0000
  H   H1900     1.0  0.74435  0.05047  0.68859  1.0000
  H   H1901     1.0  0.52820  0.10464  0.93486  1.0000
  H   H1902     1.0  0.64220  0.00140  0.86356  1.0000
  C   C1107     1.0  0.52572  0.12829  0.93260  1.0000
  C   C1108     1.0  0.52256  0.39988  0.98345  1.0000
  H   H1903     1.0  0.53075  0.34411  0.99096  1.0000
  C   C1109     1.0  0.51938  0.26485  0.97203  1.0000
  H   H1904     1.0  0.52054  0.27170  0.95585  1.0000
  H   H1905     1.0  0.53089  0.13507  0.91723  1.0000
  H   H1906     1.0  0.53762  0.43550  0.96981  1.0000
  H   H1907     1.0  0.76199  0.36392  0.68066  1.0000
  H   H1908     1.0  0.58086  0.47953  0.80460  1.0000
  H   H1909     1.0  0.52615  0.21930  0.94604  1.0000
  C   C1110     1.0  0.65289  0.99686  0.85403  1.0000
  C   C1111     1.0  0.52642  0.43220  0.97836  1.0000
  H   H1910     1.0  0.66000  0.01725  0.85383  1.0000
  C   C1112     1.0  0.69224  0.00279  0.87439  1.0000
  H   H1911     1.0  0.68220  0.00436  0.88540  1.0000
  H   H1912     1.0  0.75895  0.02596  0.97594  1.0000
  H   H1913     1.0  0.58599  0.49236  0.84070  1.0000
  C   C1113     1.0  0.75714  0.99590  0.72367  1.0000
  H   H1914     1.0  0.76270  0.33002  0.75194  1.0000
  C   C1114     1.0  0.51527  0.19598  0.92164  1.0000
  C   C1115     1.0  0.61438  0.49339  0.85910  1.0000
  C   C1116     1.0  0.76414  0.38203  0.72018  1.0000
  H   H1915     1.0  0.62330  0.49414  0.80731  1.0000
  Fe  Fe161     1.0  0.58389  0.82588  0.30197  1.0000
  S   S321      1.0  0.60840  0.83790  0.29025  1.0000
  Fe  Fe162     1.0  0.55037  0.83169  0.28543  1.0000
  Fe  Fe163     1.0  0.69550  0.79026  0.31373  1.0000
  S   S322      1.0  0.53964  0.84369  0.25370  1.0000
  H   H1916     1.0  0.61393  0.79296  0.32181  1.0000
  S   S323      1.0  0.56679  0.86306  0.30111  1.0000
  S   S324      1.0  0.56814  0.79531  0.28451  1.0000
  Fe  Fe164     1.0  0.72539  0.78859  0.28536  1.0000
  H   H1917     1.0  0.75053  0.93800  0.00767  1.0000
  S   S325      1.0  0.73319  0.77261  0.25258  1.0000
  H   H1918     1.0  0.67377  0.93094  0.32480  1.0000
  H   H1919     1.0  0.71811  0.66213  0.25693  1.0000
  H   H1920     1.0  0.75224  0.75194  0.15162  1.0000
  S   S326      1.0  0.70639  0.82226  0.29090  1.0000
  H   H1921     1.0  0.72523  0.62257  0.32216  1.0000
  H   H1922     1.0  0.73735  0.66699  0.24487  1.0000
  C   C1117     1.0  0.63881  0.78543  0.32071  1.0000
  H   H1923     1.0  0.76327  0.51633  0.05456  1.0000
  H   H1924     1.0  0.75477  0.68474  0.31676  1.0000
  H   H1925     1.0  0.74022  0.71310  0.26668  1.0000
  H   H1926     1.0  0.72601  0.75427  0.99897  1.0000
  C   C1118     1.0  0.73297  0.69480  0.27266  1.0000
  C   C1119     1.0  0.62538  0.81951  0.29817  1.0000
  C   C1120     1.0  0.63977  0.82667  0.28844  1.0000
  C   C1121     1.0  0.65364  0.81326  0.29484  1.0000
  H   H1927     1.0  0.58339  0.81661  0.21120  1.0000
  H   H1928     1.0  0.74419  0.62024  0.31033  1.0000
  H   H1929     1.0  0.72488  0.64070  0.28615  1.0000
  H   H1930     1.0  0.64020  0.84264  0.27590  1.0000
  H   H1931     1.0  0.66464  0.81855  0.28711  1.0000
  Fe  Fe165     1.0  0.72054  0.83767  0.31840  1.0000
  C   C1122     1.0  0.75510  0.72544  0.30010  1.0000
  C   C1123     1.0  0.75139  0.75818  0.24341  1.0000
  H   H1932     1.0  0.65753  0.89030  0.30035  1.0000
  H   H1933     1.0  0.53111  0.86749  0.21400  1.0000
  S   S327      1.0  0.74029  0.80624  0.31109  1.0000
  H   H1934     1.0  0.61716  0.89623  0.21230  1.0000
  H   H1935     1.0  0.56662  0.85433  0.19836  1.0000
  H   H1936     1.0  0.74874  0.54909  0.00966  1.0000
  H   H1937     1.0  0.67680  0.90576  0.29514  1.0000
  H   H1938     1.0  0.63228  0.87380  0.22249  1.0000
  H   H1939     1.0  0.72268  0.69409  0.24196  1.0000
  H   H1940     1.0  0.72256  0.70562  0.27980  1.0000
  H   H1941     1.0  0.75027  0.64042  0.27062  1.0000
  H   H1942     1.0  0.52952  0.73772  0.02126  1.0000
  H   H1943     1.0  0.73662  0.70328  0.31630  1.0000
  Fe  Fe166     1.0  0.55891  0.78156  0.31640  1.0000
  H   H1944     1.0  0.67214  0.87002  0.28635  1.0000
  H   H1945     1.0  0.67209  0.84887  0.32023  1.0000
  H   H1946     1.0  0.51544  0.78753  0.19859  1.0000
  H   H1947     1.0  0.71908  0.66785  0.30456  1.0000
  C   C1124     1.0  0.52145  0.87143  0.22474  1.0000
  C   C1125     1.0  0.52263  0.86284  0.24585  1.0000
  H   H1948     1.0  0.72453  0.78162  0.18747  1.0000
  H   H1949     1.0  0.72316  0.95034  0.32571  1.0000
  C   C1126     1.0  0.75178  0.74161  0.22486  1.0000
  H   H1950     1.0  0.56985  0.91599  0.23894  1.0000
  N   N76       1.0  0.74130  0.67697  0.28884  1.0000
  H   H1951     1.0  0.75939  0.73608  0.31452  1.0000
  H   H1952     1.0  0.74700  0.74131  0.29301  1.0000
  C   C1127     1.0  0.52075  0.74296  0.00992  1.0000
  H   H1953     1.0  0.74293  0.85383  0.01218  1.0000
  C   C1128     1.0  0.75789  0.95718  0.00302  1.0000
  H   H1954     1.0  0.75869  0.84449  0.19119  1.0000
  C   C1129     1.0  0.67619  0.87185  0.31979  1.0000
  H   H1955     1.0  0.56535  0.88685  0.25762  1.0000
  C   C1130     1.0  0.73267  0.79420  0.17701  1.0000
  C   C1131     1.0  0.74673  0.69660  0.30628  1.0000
  S   S328      1.0  0.67037  0.77655  0.32065  1.0000
  H   H1956     1.0  0.63801  0.86889  0.32340  1.0000
  H   H1957     1.0  0.75111  0.80641  0.14220  1.0000
  C   C1132     1.0  0.76165  0.79730  0.14966  1.0000
  H   H1958     1.0  0.62247  0.89841  0.23967  1.0000
  H   H1959     1.0  0.56131  0.87553  0.22119  1.0000
  S   S329      1.0  0.71305  0.75542  0.30599  1.0000
  C   C1133     1.0  0.67017  0.88560  0.29943  1.0000
  H   H1960     1.0  0.74100  0.73727  0.21689  1.0000
  C   C1134     1.0  0.72943  0.65581  0.29821  1.0000
  H   H1961     1.0  0.73117  0.78552  0.16100  1.0000
  H   H1962     1.0  0.56592  0.89298  0.19703  1.0000
  S   S330      1.0  0.55144  0.73454  0.32445  1.0000
  C   C1135     1.0  0.65323  0.79285  0.31119  1.0000
  H   H1963     1.0  0.57436  0.91979  0.26586  1.0000
  S   S331      1.0  0.53989  0.81551  0.31598  1.0000
  H   H1964     1.0  0.59634  0.80193  0.23067  1.0000
  H   H1965     1.0  0.57580  0.79646  0.23328  1.0000
  H   H1966     1.0  0.72893  0.81736  0.17775  1.0000
  C   C1136     1.0  0.62493  0.79869  0.31425  1.0000
  C   C1137     1.0  0.73522  0.63588  0.31597  1.0000
  H   H1967     1.0  0.59281  0.86341  0.19953  1.0000
  S   S332      1.0  0.72263  0.88759  0.32243  1.0000
  N   N77       1.0  0.59204  0.86705  0.23324  1.0000
  C   C1138     1.0  0.60907  0.85871  0.23188  1.0000
  C   C1139     1.0  0.58323  0.84054  0.24134  1.0000
  C   C1140     1.0  0.59045  0.89149  0.24898  1.0000
  C   C1141     1.0  0.58689  0.87678  0.21186  1.0000
  C   C1142     1.0  0.62071  0.88354  0.22621  1.0000
  C   C1143     1.0  0.58491  0.81250  0.22811  1.0000
  C   C1144     1.0  0.57397  0.90381  0.25280  1.0000
  C   C1145     1.0  0.56922  0.87449  0.20736  1.0000
  H   H1968     1.0  0.61290  0.84898  0.24693  1.0000
  H   H1969     1.0  0.61102  0.84138  0.21992  1.0000
  H   H1970     1.0  0.57067  0.84470  0.24321  1.0000
  H   H1971     1.0  0.58696  0.83500  0.25742  1.0000
  H   H1972     1.0  0.59491  0.88434  0.26445  1.0000
  H   H1973     1.0  0.59761  0.91081  0.24419  1.0000
  H   H1974     1.0  0.59058  0.89986  0.20880  1.0000
  H   H1975     1.0  0.74895  0.84494  0.16700  1.0000
  C   C1146     1.0  0.72756  0.67805  0.25316  1.0000
  C   C1147     1.0  0.75465  0.65948  0.27969  1.0000
  H   H1976     1.0  0.52147  0.83182  0.16663  1.0000
  H   H1977     1.0  0.68910  0.86996  0.31788  1.0000
  C   C1148     1.0  0.75640  0.52959  0.01034  1.0000
  H   H1978     1.0  0.75160  0.76621  0.18561  1.0000
  H   H1979     1.0  0.75083  0.51408  0.02163  1.0000
  H   H1980     1.0  0.76201  0.76118  0.12758  1.0000
  H   H1981     1.0  0.75339  0.97939  0.03142  1.0000
  H   H1982     1.0  0.76141  0.64918  0.29241  1.0000
  C   C1149     1.0  0.75147  0.86345  0.00148  1.0000
  C   C1150     1.0  0.74940  0.79013  0.18489  1.0000
  H   H1983     1.0  0.76232  0.69561  0.25787  1.0000
  H   H1984     1.0  0.74916  0.79762  0.20145  1.0000
  C   C1151     1.0  0.76232  0.76422  0.14482  1.0000
  H   H1985     1.0  0.73967  0.64850  0.32934  1.0000
  C   C1152     1.0  0.76403  0.97185  0.02291  1.0000
  N   N78       1.0  0.76218  0.80548  0.17248  1.0000
  C   C1153     1.0  0.75996  0.83810  0.17444  1.0000
  H   H1986     1.0  0.51510  0.66631  0.00328  1.0000
  C   C1154     1.0  0.52636  0.71942  0.40056  1.0000
  H   H1987     1.0  0.68226  0.96064  0.35262  1.0000
  S   S333      1.0  0.55102  0.86883  0.36131  1.0000
  C   C1155     1.0  0.67930  0.91836  0.33756  1.0000
  H   H1988     1.0  0.62680  0.97017  0.37672  1.0000
  C   C1156     1.0  0.62620  0.96379  0.39353  1.0000
  H   H1989     1.0  0.74379  0.66471  0.50595  1.0000
  S   S334      1.0  0.73871  0.74354  0.35431  1.0000
  Fe  Fe167     1.0  0.58639  0.54391  0.41816  1.0000
  S   S335      1.0  0.58122  0.56023  0.38604  1.0000
  S   S336      1.0  0.60948  0.52153  0.42347  1.0000
  Fe  Fe168     1.0  0.55321  0.55614  0.43492  1.0000
  S   S337      1.0  0.54562  0.57411  0.40370  1.0000
  S   S338      1.0  0.53831  0.55665  0.46525  1.0000
  Fe  Fe169     1.0  0.55867  0.53535  0.39025  1.0000
  C   C1157     1.0  0.74706  0.63117  0.48251  1.0000
  Fe  Fe170     1.0  0.56888  0.59770  0.40187  1.0000
  S   S339      1.0  0.57589  0.64513  0.39368  1.0000
  H   H1990     1.0  0.53202  0.49448  0.45610  1.0000
  S   S340      1.0  0.57564  0.58263  0.43417  1.0000
  Fe  Fe171     1.0  0.71247  0.52806  0.41252  1.0000
  S   S341      1.0  0.71153  0.54484  0.44583  1.0000
  H   H1991     1.0  0.75325  0.71646  0.40272  1.0000
  Fe  Fe172     1.0  0.71193  0.59083  0.39488  1.0000
  S   S342      1.0  0.71121  0.61165  0.42656  1.0000
  S   S343      1.0  0.70711  0.61854  0.36634  1.0000
  Fe  Fe173     1.0  0.72935  0.57865  0.43523  1.0000
  H   H1992     1.0  0.58161  0.58010  0.48815  1.0000
  Fe  Fe174     1.0  0.69352  0.57639  0.43434  1.0000
  S   S344      1.0  0.67063  0.59048  0.44942  1.0000
  S   S345      1.0  0.73145  0.55991  0.40244  1.0000
  S   S346      1.0  0.69321  0.55754  0.40218  1.0000
  H   H1993     1.0  0.68127  0.83274  0.37576  1.0000
  C   C1158     1.0  0.51812  0.80163  0.36535  1.0000
  C   C1159     1.0  0.62138  0.96827  0.44034  1.0000
  H   H1994     1.0  0.67980  0.62121  0.40520  1.0000
  H   H1995     1.0  0.68601  0.93094  0.36957  1.0000
  H   H1996     1.0  0.56668  0.51728  0.52527  1.0000
  C   C1160     1.0  0.73517  0.58648  0.56116  1.0000
  H   H1997     1.0  0.52929  0.95563  0.51714  1.0000
  C   C1161     1.0  0.52659  0.98863  0.49318  1.0000
  H   H1998     1.0  0.73898  0.69033  0.46510  1.0000
  C   C1162     1.0  0.62631  0.54154  0.43020  1.0000
  C   C1163     1.0  0.62536  0.56977  0.43855  1.0000
  C   C1164     1.0  0.63900  0.58438  0.44480  1.0000
  C   C1165     1.0  0.65368  0.57131  0.44203  1.0000
  C   C1166     1.0  0.65461  0.54329  0.43337  1.0000
  C   C1167     1.0  0.64095  0.52830  0.42779  1.0000
  H   H1999     1.0  0.61413  0.58017  0.44050  1.0000
  H   H2000     1.0  0.61862  0.95825  0.45586  1.0000
  H   H2001     1.0  0.66585  0.53292  0.43131  1.0000
  H   H2002     1.0  0.73786  0.76039  0.40267  1.0000
  H   H2003     1.0  0.58492  0.92245  0.37870  1.0000
  C   C1168     1.0  0.71970  0.90059  0.36514  1.0000
  C   C1169     1.0  0.71772  0.92025  0.38202  1.0000
  C   C1170     1.0  0.71766  0.95081  0.37876  1.0000
  C   C1171     1.0  0.71975  0.96145  0.35833  1.0000
  H   H2004     1.0  0.62091  0.60073  0.37715  1.0000
  H   H2005     1.0  0.65685  0.61819  0.34598  1.0000
  H   H2006     1.0  0.52734  0.75930  0.35701  1.0000
  H   H2007     1.0  0.73534  0.59845  0.54612  1.0000
  C   C1172     1.0  0.57305  0.53503  0.48416  1.0000
  C   C1173     1.0  0.72954  0.70919  0.35824  1.0000
  C   C1174     1.0  0.71428  0.70404  0.35184  1.0000
  C   C1175     1.0  0.70743  0.67621  0.35461  1.0000
  C   C1176     1.0  0.71558  0.65369  0.36451  1.0000
  C   C1177     1.0  0.73076  0.65893  0.37121  1.0000
  C   C1178     1.0  0.73784  0.68638  0.36752  1.0000
  H   H2008     1.0  0.73446  0.60239  0.57425  1.0000
  H   H2009     1.0  0.72999  0.75397  0.42829  1.0000
  H   H2010     1.0  0.73727  0.64138  0.37826  1.0000
  H   H2011     1.0  0.74988  0.68986  0.37148  1.0000
  C   C1179     1.0  0.55929  0.70910  0.34257  1.0000
  C   C1180     1.0  0.57210  0.71594  0.35491  1.0000
  C   C1181     1.0  0.57706  0.69601  0.37032  1.0000
  C   C1182     1.0  0.56945  0.66884  0.37344  1.0000
  C   C1183     1.0  0.55681  0.66183  0.36087  1.0000
  C   C1184     1.0  0.55175  0.68187  0.34559  1.0000
  H   H2012     1.0  0.57808  0.73669  0.35274  1.0000
  H   H2013     1.0  0.58687  0.70165  0.37992  1.0000
  H   H2014     1.0  0.55082  0.64108  0.36306  1.0000
  H   H2015     1.0  0.65033  0.91003  0.33419  1.0000
  C   C1185     1.0  0.55418  0.90704  0.36314  1.0000
  C   C1186     1.0  0.55061  0.92145  0.38203  1.0000
  C   C1187     1.0  0.55336  0.95174  0.38413  1.0000
  C   C1188     1.0  0.55962  0.96785  0.36726  1.0000
  C   C1189     1.0  0.56313  0.95348  0.34837  1.0000
  C   C1190     1.0  0.56045  0.92320  0.34631  1.0000
  H   H2016     1.0  0.54574  0.90912  0.39512  1.0000
  H   H2017     1.0  0.55059  0.96259  0.39875  1.0000
  H   H2018     1.0  0.61834  0.50173  0.49525  1.0000
  H   H2019     1.0  0.75707  0.55774  0.63405  1.0000
  C   C1191     1.0  0.72171  0.94178  0.34144  1.0000
  H   H2020     1.0  0.68087  0.66003  0.40519  1.0000
  C   C1192     1.0  0.52719  0.52862  0.47836  1.0000
  H   H2021     1.0  0.65241  0.89699  0.36021  1.0000
  Fe  Fe175     1.0  0.72685  0.77454  0.33195  1.0000
  H   H2022     1.0  0.69575  0.67220  0.34917  1.0000
  C   C1193     1.0  0.67977  0.87292  0.35776  1.0000
  C   C1194     1.0  0.63825  0.62910  0.39424  1.0000
  H   H2023     1.0  0.56322  0.91240  0.33170  1.0000
  H   H2024     1.0  0.64085  0.62071  0.41014  1.0000
  H   H2025     1.0  0.74948  0.59163  0.51488  1.0000
  H   H2026     1.0  0.53902  0.77535  0.42061  1.0000
  S   S347      1.0  0.71417  0.97432  0.40063  1.0000
  H   H2027     1.0  0.75052  0.76236  0.42439  1.0000
  H   H2028     1.0  0.75170  0.55855  0.50061  1.0000
  H   H2029     1.0  0.71469  0.71041  0.43313  1.0000
  C   C1195     1.0  0.74875  0.56476  0.56435  1.0000
  H   H2030     1.0  0.67821  0.88546  0.37249  1.0000
  H   H2031     1.0  0.52064  0.72964  0.41439  1.0000
  H   H2032     1.0  0.75400  0.94002  0.57512  1.0000
  C   C1196     1.0  0.75205  0.64992  0.49862  1.0000
  C   C1197     1.0  0.64685  0.62439  0.35646  1.0000
  H   H2033     1.0  0.56420  0.78842  0.40676  1.0000
  H   H2034     1.0  0.56214  0.57388  0.49754  1.0000
  C   C1198     1.0  0.63102  0.93131  0.39416  1.0000
  H   H2035     1.0  0.67490  0.82645  0.34993  1.0000
  H   H2036     1.0  0.61569  0.60986  0.40326  1.0000
  H   H2037     1.0  0.75879  0.61515  0.54169  1.0000
  C   C1199     1.0  0.76369  0.71071  0.44122  1.0000
  H   H2038     1.0  0.71155  0.70111  0.46003  1.0000
  H   H2039     1.0  0.53093  0.69787  0.40570  1.0000
  H   H2040     1.0  0.63503  0.86223  0.35043  1.0000
  H   H2041     1.0  0.70773  0.72144  0.34471  1.0000
  C   C1200     1.0  0.56623  0.78116  0.39044  1.0000
  H   H2042     1.0  0.65023  0.84353  0.33706  1.0000
  H   H2043     1.0  0.69183  0.91693  0.33290  1.0000
  H   H2044     1.0  0.63624  0.65356  0.33387  1.0000
  H   H2045     1.0  0.73329  0.70789  0.40730  1.0000
  C   C1201     1.0  0.51927  0.53534  0.49727  1.0000
  H   H2046     1.0  0.66082  0.58869  0.39967  1.0000
  C   C1202     1.0  0.52383  0.77101  0.37167  1.0000
  H   H2047     1.0  0.52479  0.82776  0.41826  1.0000
  H   H2048     1.0  0.63576  0.97695  0.40055  1.0000
  C   C1203     1.0  0.53448  0.81827  0.40872  1.0000
  H   H2049     1.0  0.63286  0.95970  0.43505  1.0000
  H   H2050     1.0  0.57811  0.56076  0.51262  1.0000
  H   H2051     1.0  0.53864  0.98778  0.48789  1.0000
  H   H2052     1.0  0.63820  0.60604  0.45154  1.0000
  H   H2053     1.0  0.65252  0.54472  0.38217  1.0000
  H   H2054     1.0  0.51996  0.55735  0.50340  1.0000
  S   S348      1.0  0.56469  0.51619  0.42136  1.0000
  H   H2055     1.0  0.63245  0.66425  0.36036  1.0000
  C   C1204     1.0  0.59241  0.92849  0.39197  1.0000
  H   H2056     1.0  0.61433  0.63702  0.38365  1.0000
  H   H2057     1.0  0.69259  0.87149  0.35478  1.0000
  C   C1205     1.0  0.71914  0.69684  0.44609  1.0000
  S   S349      1.0  0.70858  0.80726  0.34139  1.0000
  C   C1206     1.0  0.62161  0.61839  0.38883  1.0000
  H   H2058     1.0  0.51999  0.60036  0.65649  1.0000
  H   H2059     1.0  0.54994  0.80602  0.37279  1.0000
  H   H2060     1.0  0.66420  0.64244  0.41711  1.0000
  H   H2061     1.0  0.62227  0.99211  0.44296  1.0000
  N   N79       1.0  0.65137  0.62165  0.37907  1.0000
  C   C1207     1.0  0.66474  0.64282  0.38236  1.0000
  H   H2062     1.0  0.73844  0.55910  0.52244  1.0000
  N   N80       1.0  0.61053  0.97164  0.40300  1.0000
  C   C1208     1.0  0.54007  0.73795  0.39161  1.0000
  C   C1209     1.0  0.67266  0.64125  0.40380  1.0000
  Fe  Fe176     1.0  0.55758  0.84452  0.33151  1.0000
  C   C1210     1.0  0.74375  0.71748  0.41478  1.0000
  H   H2063     1.0  0.74822  0.65404  0.44244  1.0000
  H   H2064     1.0  0.67409  0.63967  0.37019  1.0000
  H   H2065     1.0  0.66085  0.66589  0.38063  1.0000
  C   C1211     1.0  0.72157  0.91122  0.34467  1.0000
  H   H2066     1.0  0.64392  0.93001  0.39519  1.0000
  H   H2067     1.0  0.71618  0.91174  0.39775  1.0000
  H   H2068     1.0  0.54182  0.67633  0.33618  1.0000
  H   H2069     1.0  0.59480  0.51690  0.51847  1.0000
  H   H2070     1.0  0.73507  0.63151  0.47758  1.0000
  H   H2071     1.0  0.66825  0.58735  0.37349  1.0000
  H   H2072     1.0  0.57111  0.75870  0.39041  1.0000
  H   H2073     1.0  0.60312  0.55000  0.49306  1.0000
  H   H2074     1.0  0.76196  0.53340  0.53121  1.0000
  H   H2075     1.0  0.75901  0.90417  0.61771  1.0000
  C   C1212     1.0  0.64146  0.65509  0.34960  1.0000
  C   C1213     1.0  0.60138  0.53228  0.48141  1.0000
  H   H2076     1.0  0.71972  0.87723  0.36799  1.0000
  H   H2077     1.0  0.59711  0.96897  0.43203  1.0000
  H   H2078     1.0  0.56797  0.96579  0.33526  1.0000
  C   C1214     1.0  0.67390  0.84183  0.36323  1.0000
  H   H2079     1.0  0.71975  0.98482  0.35551  1.0000
  C   C1215     1.0  0.59739  0.96089  0.38958  1.0000
  H   H2080     1.0  0.60038  0.54358  0.46599  1.0000
  H   H2081     1.0  0.71772  0.67333  0.44227  1.0000
  H   H2082     1.0  0.66608  0.94022  0.36325  1.0000
  H   H2083     1.0  0.52757  0.81600  0.35915  1.0000
  C   C1216     1.0  0.64625  0.56547  0.37905  1.0000
  C   C1217     1.0  0.76172  0.49833  0.65875  1.0000
  H   H2084     1.0  0.58524  0.92514  0.40647  1.0000
  C   C1218     1.0  0.52123  0.97039  0.50978  1.0000
  H   H2085     1.0  0.63739  0.65331  0.39604  1.0000
  H   H2086     1.0  0.62740  0.91981  0.37975  1.0000
  N   N81       1.0  0.53680  0.76987  0.38724  1.0000
  C   C1219     1.0  0.53216  0.78461  0.40754  1.0000
  C   C1220     1.0  0.57394  0.56399  0.49649  1.0000
  N   N82       1.0  0.74801  0.70018  0.43397  1.0000
  H   H2087     1.0  0.62652  0.91924  0.40805  1.0000
  H   H2088     1.0  0.75730  0.89178  0.58313  1.0000
  H   H2089     1.0  0.73762  0.66175  0.41982  1.0000
  H   H2090     1.0  0.60014  0.96467  0.37267  1.0000
  C   C1221     1.0  0.60827  0.96052  0.42514  1.0000
  C   C1222     1.0  0.65744  0.59123  0.38307  1.0000
  H   H2091     1.0  0.58662  0.97369  0.39303  1.0000
  C   C1223     1.0  0.67817  0.93826  0.35703  1.0000
  H   H2092     1.0  0.60222  0.91304  0.39172  1.0000
  H   H2093     1.0  0.76021  0.63513  0.40952  1.0000
  H   H2094     1.0  0.54417  0.72681  0.37712  1.0000
  H   H2095     1.0  0.57533  0.79571  0.38330  1.0000
  C   C1224     1.0  0.74040  0.75034  0.41810  1.0000
  H   H2096     1.0  0.57157  0.54089  0.46743  1.0000
  H   H2097     1.0  0.73653  0.72720  0.45748  1.0000
  H   H2098     1.0  0.64243  0.56436  0.36264  1.0000
  H   H2099     1.0  0.76066  0.61412  0.58300  1.0000
  H   H2100     1.0  0.54964  0.73555  0.40298  1.0000
  H   H2101     1.0  0.62673  0.53057  0.47956  1.0000
  H   H2102     1.0  0.75100  0.56491  0.58147  1.0000
  C   C1225     1.0  0.55139  0.78279  0.37723  1.0000
  H   H2103     1.0  0.63612  0.56563  0.39007  1.0000
  C   C1226     1.0  0.58785  0.50222  0.50828  1.0000
  S   S350      1.0  0.75227  0.58834  0.45206  1.0000
  H   H2104     1.0  0.53454  0.83004  0.39361  1.0000
  H   H2105     1.0  0.55407  0.77166  0.36210  1.0000
  H   H2106     1.0  0.56188  0.52425  0.48882  1.0000
  H   H2107     1.0  0.63743  0.60895  0.35233  1.0000
  S   S351      1.0  0.55137  0.50696  0.36308  1.0000
  H   H2108     1.0  0.65143  0.67063  0.34809  1.0000
  C   C1227     1.0  0.73617  0.70437  0.45144  1.0000
  C   C1228     1.0  0.74836  0.66812  0.42825  1.0000
  H   H2109     1.0  0.66178  0.84206  0.36959  1.0000
  H   H2110     1.0  0.60696  0.93639  0.42586  1.0000
  H   H2111     1.0  0.63839  0.76948  0.33328  1.0000
  H   H2112     1.0  0.54527  0.82382  0.41719  1.0000
  H   H2113     1.0  0.72396  0.57414  0.56187  1.0000
  C   C1229     1.0  0.57236  0.49652  0.52048  1.0000
  H   H2114     1.0  0.64178  0.50642  0.42144  1.0000
  C   C1230     1.0  0.75763  0.61203  0.47281  1.0000
  C   C1231     1.0  0.74987  0.56762  0.51661  1.0000
  H   H2115     1.0  0.74426  0.54239  0.56083  1.0000
  H   H2116     1.0  0.51970  0.77978  0.41154  1.0000
  S   S352      1.0  0.57595  0.80966  0.33375  1.0000
  C   C1232     1.0  0.64429  0.86481  0.33814  1.0000
  H   H2117     1.0  0.76363  0.50978  0.64367  1.0000
  H   H2118     1.0  0.51765  0.71449  0.38844  1.0000
  N   N83       1.0  0.58674  0.51481  0.48645  1.0000
  C   C1233     1.0  0.61677  0.51489  0.48086  1.0000
  C   C1234     1.0  0.65480  0.89133  0.34353  1.0000
  N   N84       1.0  0.67214  0.88811  0.33967  1.0000
  H   H2119     1.0  0.61767  0.50064  0.46687  1.0000
  H   H2120     1.0  0.58674  0.50032  0.45429  1.0000
  C   C1235     1.0  0.52613  0.50002  0.47066  1.0000
  C   C1236     1.0  0.76223  0.65821  0.41432  1.0000
  C   C1237     1.0  0.76324  0.55761  0.53053  1.0000
  N   N85       1.0  0.76375  0.57065  0.55219  1.0000
  H   H2121     1.0  0.76319  0.73412  0.44588  1.0000
  H   H2122     1.0  0.76356  0.67150  0.39990  1.0000
  H   H2123     1.0  0.76372  0.69986  0.47485  1.0000
  H   H2124     1.0  0.76460  0.51456  0.57114  1.0000
  Fe  Fe177     1.0  0.55959  0.58283  0.79802  1.0000
  S   S353      1.0  0.54166  0.56994  0.82250  1.0000
  S   S354      1.0  0.55411  0.59910  0.76500  1.0000
  Fe  Fe178     1.0  0.58681  0.57414  0.82854  1.0000
  S   S355      1.0  0.57037  0.56169  0.85502  1.0000
  S   S356      1.0  0.61178  0.57541  0.83988  1.0000
  Fe  Fe179     1.0  0.55833  0.53394  0.83143  1.0000
  H   H2125     1.0  0.68534  0.61907  0.85292  1.0000
  Fe  Fe180     1.0  0.55563  0.59882  0.84383  1.0000
  S   S357      1.0  0.54394  0.63106  0.86612  1.0000
  S   S358      1.0  0.57544  0.54474  0.80517  1.0000
  S   S359      1.0  0.57284  0.61331  0.81903  1.0000
  Fe  Fe181     1.0  0.73362  0.54926  0.79759  1.0000
  S   S360      1.0  0.73817  0.56474  0.83050  1.0000
  C   C1238     1.0  0.74768  0.77986  0.96135  1.0000
  Fe  Fe182     1.0  0.69801  0.54976  0.80596  1.0000
  S   S361      1.0  0.70028  0.56464  0.83912  1.0000
  S   S362      1.0  0.67448  0.54361  0.79064  1.0000
  Fe  Fe183     1.0  0.71838  0.59651  0.82677  1.0000
  S   S363      1.0  0.71790  0.64661  0.83089  1.0000
  Fe  Fe184     1.0  0.71972  0.53161  0.84010  1.0000
  C   C1239     1.0  0.76084  0.57024  0.66675  1.0000
  S   S364      1.0  0.71505  0.58324  0.79316  1.0000
  H   H2126     1.0  0.60876  0.52116  0.88577  1.0000
  Fe  Fe185     1.0  0.56063  0.79069  0.89660  1.0000
  S   S365      1.0  0.56248  0.77012  0.92829  1.0000
  S   S366      1.0  0.56642  0.76364  0.86798  1.0000
  Fe  Fe186     1.0  0.55565  0.85240  0.91429  1.0000
  S   S367      1.0  0.55721  0.83576  0.94750  1.0000
  S   S368      1.0  0.55219  0.90172  0.91121  1.0000
  Fe  Fe187     1.0  0.57756  0.80937  0.93522  1.0000
  S   S369      1.0  0.60072  0.80390  0.95150  1.0000
  Fe  Fe188     1.0  0.54196  0.79821  0.93747  1.0000
  N   N86       1.0  0.51912  0.67512  0.94882  1.0000
  S   S370      1.0  0.57684  0.82832  0.90296  1.0000
  S   S371      1.0  0.53913  0.81646  0.90482  1.0000
  Fe  Fe189     1.0  0.68915  0.83686  0.91552  1.0000
  S   S372      1.0  0.69965  0.81559  0.88696  1.0000
  S   S373      1.0  0.66420  0.85234  0.91098  1.0000
  Fe  Fe190     1.0  0.72091  0.83768  0.93816  1.0000
  S   S374      1.0  0.73340  0.81649  0.91072  1.0000
  S   S375      1.0  0.73111  0.84648  0.97071  1.0000
  Fe  Fe191     1.0  0.71936  0.84757  0.89111  1.0000
  S   S376      1.0  0.72734  0.87110  0.86151  1.0000
  Fe  Fe192     1.0  0.71249  0.78629  0.90878  1.0000
  S   S377      1.0  0.71351  0.73607  0.90799  1.0000
  S   S378      1.0  0.70825  0.87068  0.91843  1.0000
  S   S379      1.0  0.70067  0.80551  0.93749  1.0000
  H   H2127     1.0  0.66579  0.60951  0.84599  1.0000
  H   H2128     1.0  0.69226  0.92146  0.82546  1.0000
  H   H2129     1.0  0.54230  0.65830  0.95465  1.0000
  H   H2130     1.0  0.75795  0.87567  0.94955  1.0000
  C   C1240     1.0  0.61856  0.81551  0.93957  1.0000
  C   C1241     1.0  0.63260  0.81210  0.95026  1.0000
  C   C1242     1.0  0.64688  0.82193  0.94130  1.0000
  C   C1243     1.0  0.64715  0.83565  0.92168  1.0000
  C   C1244     1.0  0.63317  0.83841  0.91083  1.0000
  C   C1245     1.0  0.61901  0.82813  0.91962  1.0000
  H   H2131     1.0  0.63241  0.80219  0.96567  1.0000
  H   H2132     1.0  0.65756  0.81987  0.94989  1.0000
  H   H2133     1.0  0.63330  0.84871  0.89556  1.0000
  H   H2134     1.0  0.60846  0.83010  0.91097  1.0000
  C   C1246     1.0  0.71457  0.71158  0.88629  1.0000
  C   C1247     1.0  0.71566  0.72152  0.86557  1.0000
  C   C1248     1.0  0.71673  0.70128  0.84894  1.0000
  C   C1249     1.0  0.71671  0.67086  0.85270  1.0000
  C   C1250     1.0  0.71544  0.66089  0.87340  1.0000
  C   C1251     1.0  0.71442  0.68114  0.89006  1.0000
  H   H2135     1.0  0.71583  0.74480  0.86236  1.0000
  H   H2136     1.0  0.71774  0.70929  0.83302  1.0000
  H   H2137     1.0  0.71536  0.63760  0.87659  1.0000
  H   H2138     1.0  0.71354  0.67312  0.90598  1.0000
  C   C1252     1.0  0.73145  0.97106  0.85892  1.0000
  C   C1253     1.0  0.73282  0.95639  0.87813  1.0000
  C   C1254     1.0  0.73101  0.92576  0.87935  1.0000
  C   C1255     1.0  0.72811  0.90964  0.86126  1.0000
  C   C1256     1.0  0.72645  0.92436  0.84218  1.0000
  C   C1257     1.0  0.72807  0.95495  0.84099  1.0000
  H   H2139     1.0  0.73541  0.96869  0.89209  1.0000
  H   H2140     1.0  0.73235  0.91454  0.89414  1.0000
  H   H2141     1.0  0.72385  0.91190  0.82831  1.0000
  H   H2142     1.0  0.72694  0.96599  0.82616  1.0000
  C   C1258     1.0  0.53583  0.61177  0.75598  1.0000
  N   N87       1.0  0.74440  0.74735  0.96197  1.0000
  C   C1259     1.0  0.59122  0.96680  0.90631  1.0000
  H   H2143     1.0  0.67002  0.97414  0.82199  1.0000
  H   H2144     1.0  0.54599  0.63176  0.72825  1.0000
  C   C1260     1.0  0.56554  0.96304  0.85614  1.0000
  C   C1261     1.0  0.56876  0.93289  0.85493  1.0000
  C   C1262     1.0  0.56432  0.91365  0.87134  1.0000
  C   C1263     1.0  0.55674  0.92444  0.88927  1.0000
  C   C1264     1.0  0.55335  0.95452  0.89038  1.0000
  C   C1265     1.0  0.55770  0.97374  0.87390  1.0000
  H   H2145     1.0  0.57474  0.92440  0.84120  1.0000
  H   H2146     1.0  0.56693  0.89056  0.87020  1.0000
  H   H2147     1.0  0.54744  0.96308  0.90415  1.0000
  H   H2148     1.0  0.53556  0.64177  0.79852  1.0000
  C   C1266     1.0  0.55091  0.66751  0.86728  1.0000
  C   C1267     1.0  0.54342  0.68744  0.88073  1.0000
  C   C1268     1.0  0.54836  0.71684  0.88156  1.0000
  C   C1269     1.0  0.56053  0.72667  0.86839  1.0000
  C   C1270     1.0  0.56795  0.70686  0.85483  1.0000
  C   C1271     1.0  0.56335  0.67729  0.85456  1.0000
  H   H2149     1.0  0.53362  0.68024  0.89028  1.0000
  H   H2150     1.0  0.54245  0.73210  0.89189  1.0000
  H   H2151     1.0  0.57729  0.71439  0.84448  1.0000
  H   H2152     1.0  0.56932  0.66226  0.84427  1.0000
  C   C1272     1.0  0.62872  0.56465  0.82586  1.0000
  C   C1273     1.0  0.62884  0.56015  0.80424  1.0000
  C   C1274     1.0  0.64291  0.55322  0.79364  1.0000
  C   C1275     1.0  0.65689  0.55072  0.80458  1.0000
  C   C1276     1.0  0.65663  0.55437  0.82629  1.0000
  C   C1277     1.0  0.64261  0.56142  0.83686  1.0000
  H   H2153     1.0  0.61818  0.56254  0.79562  1.0000
  H   H2154     1.0  0.59366  0.99003  0.90210  1.0000
  H   H2155     1.0  0.66723  0.55199  0.83494  1.0000
  H   H2156     1.0  0.64259  0.56472  0.85362  1.0000
  H   H2157     1.0  0.54635  0.65900  0.81846  1.0000
  H   H2158     1.0  0.63953  0.67613  0.82524  1.0000
  C   C1278     1.0  0.66898  0.67750  0.80240  1.0000
  S   S380      1.0  0.57216  0.98636  0.83545  1.0000
  H   H2159     1.0  0.64736  0.63804  0.79765  1.0000
  C   C1279     1.0  0.74869  0.86305  0.97981  1.0000
  H   H2160     1.0  0.73645  0.92368  0.76855  1.0000
  C   C1280     1.0  0.74169  0.55795  0.70767  1.0000
  H   H2161     1.0  0.63735  0.49777  0.82804  1.0000
  H   H2162     1.0  0.66891  0.63432  0.86688  1.0000
  N   N88       1.0  0.52631  0.68366  0.80870  1.0000
  H   H2163     1.0  0.54041  0.70862  0.83002  1.0000
  H   H2164     1.0  0.75659  0.51977  0.99449  1.0000
  N   N89       1.0  0.60454  0.92139  0.92194  1.0000
  C   C1281     1.0  0.59185  0.91803  0.93860  1.0000
  H   H2165     1.0  0.73627  0.57440  0.69739  1.0000
  C   C1282     1.0  0.61960  0.91121  0.93132  1.0000
  C   C1283     1.0  0.60017  0.90277  0.90348  1.0000
  C   C1284     1.0  0.59000  0.88735  0.94863  1.0000
  H   H2166     1.0  0.52619  0.61525  0.68135  1.0000
  C   C1285     1.0  0.63474  0.91604  0.91831  1.0000
  C   C1286     1.0  0.60881  0.90862  0.88233  1.0000
  H   H2167     1.0  0.59366  0.93372  0.95167  1.0000
  H   H2168     1.0  0.58022  0.92340  0.93223  1.0000
  H   H2169     1.0  0.72377  0.71999  0.96689  1.0000
  C   C1287     1.0  0.60566  0.95361  0.91672  1.0000
  H   H2170     1.0  0.62136  0.92202  0.94673  1.0000
  H   H2171     1.0  0.61912  0.88728  0.93462  1.0000
  H   H2172     1.0  0.60175  0.87926  0.90717  1.0000
  H   H2173     1.0  0.58748  0.90459  0.90050  1.0000
  H   H2174     1.0  0.59990  0.88182  0.95879  1.0000
  H   H2175     1.0  0.57936  0.88713  0.95886  1.0000
  H   H2176     1.0  0.60094  0.50523  0.82356  1.0000
  H   H2177     1.0  0.68624  0.95464  0.89654  1.0000
  H   H2178     1.0  0.74506  0.79001  0.97682  1.0000
  H   H2179     1.0  0.61892  0.51282  0.85032  1.0000
  H   H2180     1.0  0.63475  0.90368  0.90347  1.0000
  H   H2181     1.0  0.64462  0.90713  0.92731  1.0000
  H   H2182     1.0  0.73811  0.96313  0.76608  1.0000
  H   H2183     1.0  0.61537  0.88879  0.87744  1.0000
  H   H2184     1.0  0.63747  0.93947  0.91553  1.0000
  H   H2185     1.0  0.60019  0.91296  0.86996  1.0000
  H   H2186     1.0  0.75385  0.50368  0.69024  1.0000
  H   H2187     1.0  0.54637  0.67354  0.77128  1.0000
  N   N90       1.0  0.61324  0.73745  0.89339  1.0000
  C   C1288     1.0  0.60993  0.74897  0.87173  1.0000
  C   C1289     1.0  0.61563  0.70484  0.89141  1.0000
  C   C1290     1.0  0.62819  0.75166  0.90038  1.0000
  C   C1291     1.0  0.59975  0.74523  0.90785  1.0000
  C   C1292     1.0  0.60854  0.78253  0.86953  1.0000
  C   C1293     1.0  0.60172  0.68741  0.88270  1.0000
  C   C1294     1.0  0.63406  0.74297  0.92211  1.0000
  C   C1295     1.0  0.59736  0.72635  0.92787  1.0000
  H   H2188     1.0  0.61908  0.74176  0.86025  1.0000
  H   H2189     1.0  0.59873  0.73992  0.86599  1.0000
  H   H2190     1.0  0.61859  0.69451  0.90647  1.0000
  H   H2191     1.0  0.62593  0.70029  0.88100  1.0000
  H   H2192     1.0  0.63782  0.74742  0.88881  1.0000
  H   H2193     1.0  0.62699  0.77581  0.90108  1.0000
  H   H2194     1.0  0.60066  0.76852  0.91280  1.0000
  H   H2195     1.0  0.58858  0.74363  0.89931  1.0000
  H   H2196     1.0  0.62006  0.79365  0.87032  1.0000
  H   H2197     1.0  0.60376  0.78776  0.85393  1.0000
  H   H2198     1.0  0.60037  0.79189  0.88130  1.0000
  H   H2199     1.0  0.60088  0.69037  0.86551  1.0000
  H   H2200     1.0  0.60350  0.66363  0.88546  1.0000
  H   H2201     1.0  0.59045  0.69341  0.89029  1.0000
  H   H2202     1.0  0.62604  0.75070  0.93473  1.0000
  H   H2203     1.0  0.64538  0.75428  0.92467  1.0000
  H   H2204     1.0  0.63626  0.71920  0.92363  1.0000
  H   H2205     1.0  0.59372  0.74083  0.94101  1.0000
  H   H2206     1.0  0.60771  0.71454  0.93326  1.0000
  H   H2207     1.0  0.58753  0.71068  0.92595  1.0000
  C   C1296     1.0  0.75971  0.97417  0.79714  1.0000
  S   S381      1.0  0.71622  0.51444  0.80757  1.0000
  H   H2208     1.0  0.65163  0.61330  0.81765  1.0000
  H   H2209     1.0  0.71915  0.78317  0.98192  1.0000
  H   H2210     1.0  0.66996  0.92969  0.89303  1.0000
  H   H2211     1.0  0.67902  0.91622  0.85833  1.0000
  H   H2212     1.0  0.54215  0.70634  0.97397  1.0000
  H   H2213     1.0  0.67797  0.63979  0.77091  1.0000
  H   H2214     1.0  0.68497  0.60377  0.77540  1.0000
  H   H2215     1.0  0.74681  0.97670  0.79725  1.0000
  C   C1297     1.0  0.51991  0.53556  0.71527  1.0000
  H   H2216     1.0  0.74805  0.57383  0.66612  1.0000
  H   H2217     1.0  0.59330  0.51838  0.86785  1.0000
  S   S382      1.0  0.75506  0.54586  0.77552  1.0000
  C   C1298     1.0  0.52514  0.75817  0.99145  1.0000
  N   N91       1.0  0.67707  0.96325  0.85358  1.0000
  H   H2218     1.0  0.66189  0.69427  0.81077  1.0000
  N   N92       1.0  0.66848  0.64884  0.81422  1.0000
  H   H2219     1.0  0.66431  0.93847  0.83050  1.0000
  C   C1299     1.0  0.67636  0.62019  0.78100  1.0000
  H   H2220     1.0  0.73989  0.56553  0.72407  1.0000
  H   H2221     1.0  0.68409  0.71189  0.78959  1.0000
  C   C1300     1.0  0.53529  0.62761  0.73705  1.0000
  H   H2222     1.0  0.67842  0.60536  0.81266  1.0000
  H   H2223     1.0  0.75250  0.88505  0.78128  1.0000
  H   H2224     1.0  0.72066  0.75148  0.95118  1.0000
  C   C1301     1.0  0.53977  0.66345  0.80395  1.0000
  S   S383      1.0  0.51889  0.78199  0.95236  1.0000
  C   C1302     1.0  0.65202  0.63697  0.81377  1.0000
  H   H2225     1.0  0.52192  0.54999  0.66652  1.0000
  C   C1303     1.0  0.51621  0.61225  0.67080  1.0000
  H   H2226     1.0  0.68583  0.66265  0.83626  1.0000
  H   H2227     1.0  0.55713  0.69490  0.79046  1.0000
  H   H2228     1.0  0.66467  0.61035  0.77871  1.0000
  C   C1304     1.0  0.75674  0.88948  0.79723  1.0000
  H   H2229     1.0  0.69686  0.93577  0.86065  1.0000
  C   C1305     1.0  0.68532  0.69127  0.79866  1.0000
  H   H2230     1.0  0.58838  0.95540  0.89158  1.0000
  C   C1306     1.0  0.51675  0.66999  0.82636  1.0000
  H   H2231     1.0  0.60792  0.96656  0.93111  1.0000
  C   C1307     1.0  0.60258  0.50564  0.87540  1.0000
  H   H2232     1.0  0.66692  0.67251  0.84372  1.0000
  C   C1308     1.0  0.75986  0.87569  0.96623  1.0000
  C   C1309     1.0  0.51671  0.63786  0.91867  1.0000
  H   H2233     1.0  0.53343  0.71649  0.77299  1.0000
  H   H2234     1.0  0.52206  0.59402  0.78158  1.0000
  H   H2235     1.0  0.74946  0.87597  0.80822  1.0000
  H   H2236     1.0  0.69318  0.67695  0.78933  1.0000
  C   C1310     1.0  0.67927  0.62674  0.80428  1.0000
  H   H2237     1.0  0.66350  0.67527  0.78683  1.0000
  C   C1311     1.0  0.75939  0.55492  0.70333  1.0000
  H   H2238     1.0  0.52828  0.57251  0.69788  1.0000
  H   H2239     1.0  0.69167  0.63345  0.80579  1.0000
  H   H2240     1.0  0.75830  0.92333  0.82012  1.0000
  H   H2241     1.0  0.64300  0.55021  0.77685  1.0000
  C   C1312     1.0  0.75507  0.51822  0.67622  1.0000
  H   H2242     1.0  0.53718  0.76451  0.98864  1.0000
  C   C1313     1.0  0.72698  0.74354  0.96517  1.0000
  H   H2243     1.0  0.75030  0.97215  0.99417  1.0000
  H   H2244     1.0  0.55681  0.70491  0.95385  1.0000
  H   H2245     1.0  0.74350  0.74700  0.92813  1.0000
  H   H2246     1.0  0.74597  0.71344  0.98581  1.0000
  H   H2247     1.0  0.73980  0.79069  0.95013  1.0000
  C   C1314     1.0  0.74342  0.94192  0.76163  1.0000
  C   C1315     1.0  0.67363  0.65440  0.83626  1.0000
  H   H2248     1.0  0.58843  0.86994  0.93683  1.0000
  H   H2249     1.0  0.54067  0.67701  0.93055  1.0000
  H   H2250     1.0  0.73100  0.69994  0.93551  1.0000
  H   H2251     1.0  0.66268  0.97586  0.88058  1.0000
  C   C1316     1.0  0.67335  0.62767  0.85116  1.0000
  H   H2252     1.0  0.53997  0.72396  0.80487  1.0000
  H   H2253     1.0  0.73547  0.53665  0.70657  1.0000
  C   C1317     1.0  0.55163  0.67353  0.78698  1.0000
  H   H2254     1.0  0.74671  0.68780  0.95160  1.0000
  H   H2255     1.0  0.68400  0.93680  0.80254  1.0000
  H   H2256     1.0  0.51609  0.63649  0.98534  1.0000
  S   S384      1.0  0.72179  0.50282  0.86899  1.0000
  C   C1318     1.0  0.53254  0.71245  0.81664  1.0000
  H   H2257     1.0  0.61567  0.95887  0.90619  1.0000
  H   H2258     1.0  0.68936  0.91629  0.89394  1.0000
  C   C1319     1.0  0.68789  0.94209  0.81857  1.0000
  C   C1320     1.0  0.68222  0.93484  0.88832  1.0000
  H   H2259     1.0  0.64236  0.64799  0.84496  1.0000
  H   H2260     1.0  0.56125  0.65736  0.78611  1.0000
  H   H2261     1.0  0.69102  0.69725  0.81347  1.0000
  H   H2262     1.0  0.62825  0.64294  0.82523  1.0000
  H   H2263     1.0  0.73889  0.49748  0.75470  1.0000
  C   C1321     1.0  0.64001  0.65224  0.82822  1.0000
  H   H2264     1.0  0.52037  0.62238  0.82380  1.0000
  C   C1322     1.0  0.74872  0.73410  0.94106  1.0000
  H   H2265     1.0  0.61709  0.92717  0.88212  1.0000
  C   C1323     1.0  0.74371  0.70182  0.93813  1.0000
  N   N93       1.0  0.76427  0.94375  0.79028  1.0000
  H   H2266     1.0  0.52349  0.66963  0.84108  1.0000
  C   C1324     1.0  0.53666  0.67751  0.94724  1.0000
  C   C1325     1.0  0.68414  0.93704  0.86431  1.0000
  H   H2267     1.0  0.65358  0.95142  0.86335  1.0000
  C   C1326     1.0  0.67396  0.95490  0.83117  1.0000
  C   C1327     1.0  0.76130  0.51824  0.75769  1.0000
  H   H2268     1.0  0.74655  0.98909  0.71608  1.0000
  C   C1328     1.0  0.75505  0.92198  0.80338  1.0000
  H   H2269     1.0  0.76427  0.81400  0.95312  1.0000
  H   H2270     1.0  0.74250  0.94015  0.74436  1.0000
  C   C1329     1.0  0.76439  0.78990  0.95561  1.0000
  C   C1330     1.0  0.52189  0.60649  0.76715  1.0000
  C   C1331     1.0  0.51688  0.56525  0.70476  1.0000
  H   H2271     1.0  0.74243  0.92719  0.80305  1.0000
  C   C1332     1.0  0.52013  0.73457  0.82415  1.0000
  H   H2272     1.0  0.53969  0.72567  0.94951  1.0000
  H   H2273     1.0  0.52090  0.65136  0.71531  1.0000
  C   C1333     1.0  0.76080  0.94041  0.76738  1.0000
  H   H2274     1.0  0.58084  0.96681  0.91694  1.0000
  C   C1334     1.0  0.54399  0.70529  0.95677  1.0000
  H   H2275     1.0  0.52913  0.63953  0.91364  1.0000
  H   H2276     1.0  0.70747  0.75143  0.98669  1.0000
  H   H2277     1.0  0.52478  0.51955  0.70400  1.0000
  C   C1335     1.0  0.71971  0.75910  0.98440  1.0000
  H   H2278     1.0  0.76072  0.96857  0.83158  1.0000
  H   H2279     1.0  0.51498  0.72805  0.83957  1.0000
  C   C1336     1.0  0.66157  0.97077  0.86374  1.0000
  H   H2280     1.0  0.52881  0.53873  0.72749  1.0000
  C   C1337     1.0  0.51603  0.68705  0.78993  1.0000
  C   C1338     1.0  0.75259  0.73303  0.98001  1.0000
  H   H2281     1.0  0.52118  0.62791  0.95069  1.0000
  C   C1339     1.0  0.52107  0.63865  0.72962  1.0000
  H   H2282     1.0  0.70193  0.99089  0.88186  1.0000
  H   H2283     1.0  0.69758  0.95806  0.81671  1.0000
  N   N94       1.0  0.76431  0.54542  0.68154  1.0000
  H   H2284     1.0  0.76407  0.99092  0.78581  1.0000
  C   C1340     1.0  0.75094  0.49782  0.74932  1.0000
  C   C1341     1.0  0.68823  0.98891  0.85322  1.0000
  H   H2285     1.0  0.51737  0.69801  0.91887  1.0000
  H   H2286     1.0  0.74960  0.69293  0.92387  1.0000
  H   H2287     1.0  0.76366  0.53922  0.71512  1.0000
  H   H2288     1.0  0.69961  0.98247  0.84617  1.0000
  H   H2289     1.0  0.75293  0.74809  0.99368  1.0000
  H   H2290     1.0  0.56166  0.49570  0.87886  1.0000
  H   H2291     1.0  0.53269  0.66083  0.98850  1.0000
  H   H2292     1.0  0.76147  0.73510  0.93789  1.0000
  H   H2293     1.0  0.52581  0.75625  0.82646  1.0000
  H   H2294     1.0  0.74298  0.52400  0.67183  1.0000
  H   H2295     1.0  0.51542  0.72051  0.94064  1.0000
  C   C1342     1.0  0.51982  0.65952  0.98770  1.0000
  H   H2296     1.0  0.64895  0.99195  0.83800  1.0000
  H   H2297     1.0  0.51557  0.70287  0.97580  1.0000
  H   H2298     1.0  0.51856  0.70116  0.75745  1.0000
  C   C1343     1.0  0.52100  0.71012  0.77323  1.0000
  H   H2299     1.0  0.76470  0.57642  0.70740  1.0000
  H   H2300     1.0  0.51480  0.66578  0.78176  1.0000
  Fe  Fe193     1.0  0.97708  0.43241  0.04030  1.0000
  S   S385      1.0  0.98969  0.41355  0.06781  1.0000
  H   H2301     1.0  0.94637  0.45765  0.02219  1.0000
  Fe  Fe194     1.0  0.94559  0.43383  0.06508  1.0000
  S   S386      1.0  0.95600  0.41617  0.09453  1.0000
  S   S387      1.0  0.92135  0.45334  0.06321  1.0000
  Fe  Fe195     1.0  0.97610  0.44672  0.08693  1.0000
  H   H2302     1.0  0.82455  0.32166  0.06877  1.0000
  Fe  Fe196     1.0  0.96850  0.38423  0.07326  1.0000
  S   S388      1.0  0.96759  0.33403  0.07705  1.0000
  S   S389      1.0  0.96481  0.46668  0.05920  1.0000
  S   S390      1.0  0.95684  0.40070  0.04399  1.0000
  Fe  Fe197     1.0  0.79830  0.41712  0.04494  1.0000
  S   S391      1.0  0.79220  0.43659  0.07652  1.0000
  S   S392      1.0  0.77882  0.41650  0.02061  1.0000
  Fe  Fe198     1.0  0.83297  0.41062  0.05677  1.0000
  S   S393      1.0  0.82915  0.42974  0.08873  1.0000
  S   S394      1.0  0.85628  0.39048  0.04709  1.0000
  Fe  Fe199     1.0  0.80755  0.40136  0.08955  1.0000
  S   S395      1.0  0.80232  0.37529  0.11917  1.0000
  Fe  Fe200     1.0  0.81423  0.46346  0.07312  1.0000
  H   H2303     1.0  0.88706  0.09507  0.19793  1.0000
  S   S396      1.0  0.81211  0.38014  0.05843  1.0000
  S   S397      1.0  0.81961  0.44609  0.04066  1.0000
  Fe  Fe201     1.0  0.97488  0.13864  0.14182  1.0000
  S   S398      1.0  0.95923  0.11771  0.16611  1.0000
  S   S399      1.0  0.98644  0.11439  0.11493  1.0000
  Fe  Fe202     1.0  0.96986  0.20024  0.15919  1.0000
  S   S400      1.0  0.95400  0.18338  0.18524  1.0000
  S   S401      1.0  0.97500  0.24927  0.15613  1.0000
  Fe  Fe203     1.0  0.97166  0.14696  0.18884  1.0000
  S   S402      1.0  0.97812  0.12769  0.22075  1.0000
  Fe  Fe204     1.0  0.94320  0.15549  0.16038  1.0000
  S   S403      1.0  0.91839  0.14821  0.14969  1.0000
  S   S404      1.0  0.98828  0.16594  0.16464  1.0000
  S   S405      1.0  0.95810  0.17450  0.13437  1.0000
  Fe  Fe205     1.0  0.81106  0.20882  0.14137  1.0000
  S   S406      1.0  0.81486  0.22621  0.17369  1.0000
  S   S407      1.0  0.80889  0.23736  0.11257  1.0000
  Fe  Fe206     1.0  0.81036  0.14450  0.15525  1.0000
  S   S408      1.0  0.81410  0.15751  0.18883  1.0000
  S   S409      1.0  0.80782  0.09495  0.15061  1.0000
  Fe  Fe207     1.0  0.79658  0.19330  0.18403  1.0000
  S   S410      1.0  0.77455  0.19998  0.20442  1.0000
  Fe  Fe208     1.0  0.83207  0.18913  0.17572  1.0000
  S   S411      1.0  0.85553  0.19532  0.19118  1.0000
  S   S412      1.0  0.79163  0.17816  0.15124  1.0000
  S   S413      1.0  0.82952  0.17395  0.14261  1.0000
  H   H2304     1.0  0.92654  0.42365  0.02164  1.0000
  H   H2305     1.0  0.77259  0.19856  0.26598  1.0000
  H   H2306     1.0  0.99323  0.49159  0.15655  1.0000
  H   H2307     1.0  0.77199  0.13474  0.32261  1.0000
  H   H2308     1.0  0.92686  0.10694  0.10339  1.0000
  H   H2309     1.0  0.79924  0.46125  0.00505  1.0000
  H   H2310     1.0  0.91285  0.45140  0.01609  1.0000
  H   H2311     1.0  0.87338  0.12110  0.18931  1.0000
  H   H2312     1.0  0.77043  0.03164  0.06835  1.0000
  H   H2313     1.0  0.99000  0.18608  0.30414  1.0000
  C   C1344     1.0  0.90145  0.16344  0.16123  1.0000
  C   C1345     1.0  0.90100  0.17319  0.18195  1.0000
  C   C1346     1.0  0.88687  0.18321  0.19090  1.0000
  C   C1347     1.0  0.87320  0.18390  0.17914  1.0000
  C   C1348     1.0  0.87385  0.17520  0.15821  1.0000
  C   C1349     1.0  0.88787  0.16467  0.14938  1.0000
  H   H2314     1.0  0.91138  0.17217  0.19126  1.0000
  H   H2315     1.0  0.88646  0.19003  0.20711  1.0000
  H   H2316     1.0  0.86350  0.17617  0.14890  1.0000
  H   H2317     1.0  0.88816  0.15727  0.13331  1.0000
  H   H2318     1.0  0.99088  0.21826  0.12178  1.0000
  C   C1350     1.0  0.81234  0.03597  0.09216  1.0000
  C   C1351     1.0  0.81380  0.06660  0.09018  1.0000
  C   C1352     1.0  0.81252  0.08504  0.10783  1.0000
  C   C1353     1.0  0.80957  0.07301  0.12769  1.0000
  C   C1354     1.0  0.80818  0.04237  0.12968  1.0000
  C   C1355     1.0  0.80961  0.02393  0.11207  1.0000
  H   H2319     1.0  0.81590  0.07617  0.07486  1.0000
  H   H2320     1.0  0.81363  0.10853  0.10603  1.0000
  H   H2321     1.0  0.80586  0.03281  0.14495  1.0000
  H   H2322     1.0  0.76819  0.48063  0.06325  1.0000
  C   C1356     1.0  0.80347  0.33688  0.11750  1.0000
  C   C1357     1.0  0.80857  0.32074  0.13478  1.0000
  C   C1358     1.0  0.81019  0.29016  0.13349  1.0000
  C   C1359     1.0  0.80637  0.27548  0.11511  1.0000
  C   C1360     1.0  0.80107  0.29158  0.09796  1.0000
  C   C1361     1.0  0.79963  0.32218  0.09914  1.0000
  H   H2323     1.0  0.81164  0.33204  0.14898  1.0000
  H   H2324     1.0  0.81472  0.27807  0.14655  1.0000
  H   H2325     1.0  0.79814  0.28037  0.08366  1.0000
  H   H2326     1.0  0.79552  0.33440  0.08583  1.0000
  H   H2327     1.0  0.01452  0.26405  0.06231  1.0000
  H   H2328     1.0  0.86764  0.25815  0.11280  1.0000
  H   H2329     1.0  0.83043  0.31347  0.04259  1.0000
  C   C1362     1.0  0.96876  0.31144  0.09973  1.0000
  C   C1363     1.0  0.97476  0.32168  0.11855  1.0000
  C   C1364     1.0  0.97646  0.30240  0.13566  1.0000
  C   C1365     1.0  0.97204  0.27275  0.13431  1.0000
  C   C1366     1.0  0.96564  0.26263  0.11568  1.0000
  C   C1367     1.0  0.96414  0.28182  0.09847  1.0000
  H   H2330     1.0  0.97840  0.34434  0.11978  1.0000
  H   H2331     1.0  0.98137  0.31053  0.15001  1.0000
  H   H2332     1.0  0.96210  0.23994  0.11441  1.0000
  H   H2333     1.0  0.95948  0.27367  0.08398  1.0000
  C   C1368     1.0  0.98028  0.01450  0.11289  1.0000
  C   C1369     1.0  0.97538  0.03031  0.13055  1.0000
  C   C1370     1.0  0.97702  0.06089  0.13110  1.0000
  C   C1371     1.0  0.98377  0.07599  0.11412  1.0000
  C   C1372     1.0  0.98865  0.06019  0.09636  1.0000
  C   C1373     1.0  0.98683  0.02951  0.09568  1.0000
  H   H2334     1.0  0.97024  0.01884  0.14385  1.0000
  H   H2335     1.0  0.97343  0.07260  0.14493  1.0000
  H   H2336     1.0  0.99392  0.07164  0.08313  1.0000
  H   H2337     1.0  0.99073  0.01745  0.08200  1.0000
  C   C1374     1.0  0.90339  0.43455  0.06037  1.0000
  C   C1375     1.0  0.90265  0.40477  0.05534  1.0000
  C   C1376     1.0  0.88811  0.39140  0.05156  1.0000
  C   C1377     1.0  0.87421  0.40754  0.05315  1.0000
  C   C1378     1.0  0.87495  0.43707  0.05873  1.0000
  C   C1379     1.0  0.88949  0.45054  0.06211  1.0000
  H   H2338     1.0  0.91328  0.39225  0.05391  1.0000
  H   H2339     1.0  0.88763  0.36857  0.04718  1.0000
  H   H2340     1.0  0.86435  0.44972  0.05998  1.0000
  H   H2341     1.0  0.88995  0.47358  0.06599  1.0000
  N   N95       1.0  0.91773  0.25864  0.15200  1.0000
  H   H2342     1.0  0.01040  0.13256  0.20460  1.0000
  C   C1380     1.0  0.91983  0.29110  0.15555  1.0000
  C   C1381     1.0  0.90093  0.25011  0.15623  1.0000
  C   C1382     1.0  0.91866  0.22166  0.12120  1.0000
  C   C1383     1.0  0.93099  0.24872  0.18781  1.0000
  C   C1384     1.0  0.93647  0.30322  0.15155  1.0000
  C   C1385     1.0  0.89419  0.25614  0.17832  1.0000
  H   H2343     1.0  0.80228  0.29792  0.20166  1.0000
  C   C1386     1.0  0.94218  0.47023  0.00848  1.0000
  H   H2344     1.0  0.91645  0.29776  0.17160  1.0000
  H   H2345     1.0  0.91185  0.30375  0.14541  1.0000
  C   C1387     1.0  0.77836  0.36022  0.00348  1.0000
  N   N96       1.0  0.01263  0.16503  0.30331  1.0000
  H   H2346     1.0  0.98142  0.22780  0.08326  1.0000
  C   C1388     1.0  0.77203  0.22725  0.31310  1.0000
  N   N97       1.0  0.00504  0.22102  0.09350  1.0000
  H   H2347     1.0  0.97884  0.17837  0.09768  1.0000
  H   H2348     1.0  0.90253  0.01055  0.10764  1.0000
  H   H2349     1.0  0.97943  0.01617  0.19724  1.0000
  H   H2350     1.0  0.79155  0.24485  0.22799  1.0000
  H   H2351     1.0  0.90000  0.24286  0.19038  1.0000
  H   H2352     1.0  0.85728  0.36508  0.09724  1.0000
  N   N98       1.0  0.85211  0.08078  0.17367  1.0000
  C   C1389     1.0  0.84592  0.05472  0.16180  1.0000
  C   C1390     1.0  0.85128  0.10693  0.15925  1.0000
  C   C1391     1.0  0.84137  0.08568  0.19232  1.0000
  C   C1392     1.0  0.86850  0.07416  0.18041  1.0000
  C   C1393     1.0  0.84376  0.02598  0.17434  1.0000
  C   C1394     1.0  0.86031  0.10419  0.13822  1.0000
  C   C1395     1.0  0.84540  0.11143  0.20677  1.0000
  C   C1396     1.0  0.87932  0.10065  0.18479  1.0000
  H   H2353     1.0  0.83445  0.05980  0.15494  1.0000
  H   H2354     1.0  0.85373  0.04927  0.14827  1.0000
  H   H2355     1.0  0.85532  0.12726  0.16676  1.0000
  H   H2356     1.0  0.83895  0.11162  0.15545  1.0000
  H   H2357     1.0  0.82915  0.08888  0.18708  1.0000
  H   H2358     1.0  0.84103  0.06620  0.20278  1.0000
  H   H2359     1.0  0.87469  0.06123  0.16806  1.0000
  H   H2360     1.0  0.85425  0.02019  0.18327  1.0000
  S   S414      1.0  0.98776  0.47734  0.10991  1.0000
  H   H2361     1.0  0.85416  0.08930  0.12738  1.0000
  H   H2362     1.0  0.86079  0.12597  0.13043  1.0000
  H   H2363     1.0  0.87245  0.09678  0.14026  1.0000
  H   H2364     1.0  0.84614  0.13269  0.19844  1.0000
  H   H2365     1.0  0.85625  0.10728  0.21540  1.0000
  H   H2366     1.0  0.83592  0.11369  0.21877  1.0000
  H   H2367     1.0  0.88731  0.10498  0.17121  1.0000
  H   H2368     1.0  0.87698  0.26733  0.07349  1.0000
  H   H2369     1.0  0.90055  0.40642  0.00944  1.0000
  C   C1397     1.0  0.00526  0.27082  0.07359  1.0000
  H   H2370     1.0  0.92283  0.22021  0.10466  1.0000
  H   H2371     1.0  0.77194  0.26945  0.13220  1.0000
  H   H2372     1.0  0.77256  0.23964  0.29807  1.0000
  H   H2373     1.0  0.92187  0.02840  0.12659  1.0000
  C   C1398     1.0  0.98464  0.03812  0.19413  1.0000
  H   H2374     1.0  0.92546  0.20554  0.13015  1.0000
  C   C1399     1.0  0.79049  0.30522  0.19710  1.0000
  H   H2375     1.0  0.88411  0.30021  0.06089  1.0000
  H   H2376     1.0  0.78730  0.35464  0.01448  1.0000
  H   H2377     1.0  0.77750  0.31219  0.14869  1.0000
  S   S415      1.0  0.81367  0.01387  0.06929  1.0000
  H   H2378     1.0  0.89319  0.26129  0.14494  1.0000
  C   C1400     1.0  0.77953  0.24441  0.23345  1.0000
  N   N99       1.0  0.76717  0.28775  0.17496  1.0000
  C   C1401     1.0  0.01313  0.17350  0.32615  1.0000
  H   H2379     1.0  0.93961  0.30381  0.13462  1.0000
  H   H2380     1.0  0.98267  0.04432  0.17771  1.0000
  H   H2381     1.0  0.97803  0.05454  0.20352  1.0000
  N   N100      1.0  0.76738  0.19568  0.30952  1.0000
  H   H2382     1.0  0.79181  0.27994  0.16914  1.0000
  H   H2383     1.0  0.79204  0.32671  0.18918  1.0000
  H   H2384     1.0  0.99455  0.21619  0.06306  1.0000
  H   H2385     1.0  0.78349  0.24515  0.14813  1.0000
  H   H2386     1.0  0.00459  0.20571  0.28967  1.0000
  H   H2387     1.0  0.97550  0.17856  0.07036  1.0000
  H   H2388     1.0  0.89916  0.22624  0.15385  1.0000
  H   H2389     1.0  0.94043  0.23974  0.15711  1.0000
  C   C1402     1.0  0.76902  0.22460  0.22471  1.0000
  H   H2390     1.0  0.76923  0.47851  0.02542  1.0000
  H   H2391     1.0  0.85066  0.27302  0.12650  1.0000
  H   H2392     1.0  0.82758  0.28409  0.06087  1.0000
  H   H2393     1.0  0.00485  0.99732  0.14641  1.0000
  C   C1403     1.0  0.92119  0.25326  0.12903  1.0000
  C   C1404     1.0  0.00602  0.25410  0.09461  1.0000
  H   H2394     1.0  0.93356  0.25859  0.12504  1.0000
  H   H2395     1.0  0.94536  0.29079  0.16017  1.0000
  H   H2396     1.0  0.84995  0.23741  0.11530  1.0000
  H   H2397     1.0  0.83977  0.36167  0.08212  1.0000
  H   H2398     1.0  0.92866  0.22938  0.19805  1.0000
  C   C1405     1.0  0.77238  0.38864  0.00319  1.0000
  H   H2399     1.0  0.86822  0.06007  0.19467  1.0000
  H   H2400     1.0  0.89265  0.28665  0.08466  1.0000
  N   N101      1.0  0.93104  0.03145  0.09456  1.0000
  C   C1406     1.0  0.94720  0.03161  0.08483  1.0000
  C   C1407     1.0  0.93233  0.02202  0.11713  1.0000
  C   C1408     1.0  0.92390  0.06149  0.09386  1.0000
  C   C1409     1.0  0.92095  0.01068  0.08247  1.0000
  C   C1410     1.0  0.94866  0.04260  0.06201  1.0000
  H   H2401     1.0  0.99332  0.16432  0.07954  1.0000
  C   C1411     1.0  0.93365  0.08629  0.10367  1.0000
  C   C1412     1.0  0.90395  0.00699  0.09061  1.0000
  H   H2402     1.0  0.95526  0.04514  0.09421  1.0000
  H   H2403     1.0  0.99711  0.12889  0.31118  1.0000
  H   H2404     1.0  0.78272  0.27878  0.25614  1.0000
  C   C1413     1.0  0.00837  0.13293  0.30260  1.0000
  H   H2405     1.0  0.92127  0.06797  0.07750  1.0000
  H   H2406     1.0  0.91237  0.06148  0.10219  1.0000
  H   H2407     1.0  0.92000  0.01804  0.06593  1.0000
  C   C1414     1.0  0.99144  0.21297  0.07994  1.0000
  H   H2408     1.0  0.94422  0.06513  0.06002  1.0000
  H   H2409     1.0  0.96123  0.04319  0.05737  1.0000
  H   H2410     1.0  0.94293  0.02747  0.05096  1.0000
  H   H2411     1.0  0.92468  0.21674  0.16462  1.0000
  C   C1415     1.0  0.01033  0.11911  0.21857  1.0000
  C   C1416     1.0  0.92860  0.24006  0.16466  1.0000
  H   H2412     1.0  0.93629  0.08183  0.12030  1.0000
  H   H2413     1.0  0.78386  0.26055  0.19089  1.0000
  C   C1417     1.0  0.77449  0.26358  0.24946  1.0000
  H   H2414     1.0  0.00893  0.09498  0.15249  1.0000
  S   S416      1.0  0.98538  0.44691  0.00746  1.0000
  H   H2415     1.0  0.98569  0.09198  0.25620  1.0000
  H   H2416     1.0  0.99365  0.26869  0.06637  1.0000
  H   H2417     1.0  0.00083  0.18576  0.11623  1.0000
  H   H2418     1.0  0.89611  0.02225  0.08235  1.0000
  H   H2419     1.0  0.89429  0.27965  0.18249  1.0000
  H   H2420     1.0  0.84151  0.00781  0.16325  1.0000
  H   H2421     1.0  0.79145  0.18265  0.30517  1.0000
  C   C1418     1.0  0.98465  0.18172  0.08221  1.0000
  H   H2422     1.0  0.77143  0.33397  0.16959  1.0000
  H   H2423     1.0  0.00650  0.22037  0.32465  1.0000
  C   C1419     1.0  0.78344  0.28193  0.18251  1.0000
  C   C1420     1.0  0.01056  0.08455  0.25504  1.0000
  H   H2424     1.0  0.00440  0.00179  0.01681  1.0000
  C   C1421     1.0  0.78028  0.18191  0.29657  1.0000
  H   H2425     1.0  0.79125  0.18152  0.26549  1.0000
  H   H2426     1.0  0.00696  0.29460  0.07659  1.0000
  H   H2427     1.0  0.98552  0.18842  0.26596  1.0000
  C   C1422     1.0  0.76799  0.31413  0.16071  1.0000
  H   H2428     1.0  0.99131  0.48058  0.18363  1.0000
  H   H2429     1.0  0.94467  0.09055  0.09476  1.0000
  H   H2430     1.0  0.90616  0.21522  0.12138  1.0000
  H   H2431     1.0  0.98555  0.15195  0.27580  1.0000
  H   H2432     1.0  0.93707  0.32624  0.15708  1.0000
  H   H2433     1.0  0.95311  0.47811  0.00084  1.0000
  C   C1423     1.0  0.99312  0.17139  0.27275  1.0000
  H   H2434     1.0  0.77821  0.15833  0.29381  1.0000
  H   H2435     1.0  0.00180  0.04452  0.15554  1.0000
  H   H2436     1.0  0.91409  0.26793  0.11906  1.0000
  H   H2437     1.0  0.00279  0.02335  0.21381  1.0000
  H   H2438     1.0  0.92356  0.26649  0.19389  1.0000
  N   N102      1.0  0.85324  0.30337  0.08700  1.0000
  C   C1424     1.0  0.84439  0.32310  0.10185  1.0000
  C   C1425     1.0  0.84874  0.27209  0.09207  1.0000
  C   C1426     1.0  0.84933  0.30960  0.06455  1.0000
  C   C1427     1.0  0.87042  0.30885  0.08964  1.0000
  C   C1428     1.0  0.84524  0.35621  0.09714  1.0000
  C   C1429     1.0  0.85475  0.25989  0.11292  1.0000
  C   C1430     1.0  0.83194  0.30692  0.05919  1.0000
  C   C1431     1.0  0.88154  0.28964  0.07629  1.0000
  H   H2439     1.0  0.83189  0.31699  0.10253  1.0000
  H   H2440     1.0  0.84845  0.32030  0.11814  1.0000
  H   H2441     1.0  0.85239  0.25686  0.07937  1.0000
  H   H2442     1.0  0.83582  0.26960  0.09286  1.0000
  H   H2443     1.0  0.85346  0.33177  0.05974  1.0000
  H   H2444     1.0  0.85567  0.29440  0.05383  1.0000
  H   H2445     1.0  0.87346  0.33183  0.08521  1.0000
  H   H2446     1.0  0.87379  0.30747  0.10635  1.0000
  H   H2447     1.0  0.83849  0.36803  0.10947  1.0000
  C   C1432     1.0  0.99624  0.11356  0.22935  1.0000
  C   C1433     1.0  0.99650  0.09640  0.24770  1.0000
  H   H2448     1.0  0.00198  0.16600  0.26060  1.0000
  H   H2449     1.0  0.94217  0.03365  0.12470  1.0000
  H   H2450     1.0  0.88174  0.24916  0.17883  1.0000
  H   H2451     1.0  0.83337  0.02697  0.18497  1.0000
  H   H2452     1.0  0.94337  0.25501  0.19020  1.0000
  C   C1434     1.0  0.01093  0.08417  0.16781  1.0000
  C   C1435     1.0  0.77150  0.25183  0.14418  1.0000
  H   H2453     1.0  0.78782  0.02721  0.03977  1.0000
  C   C1436     1.0  0.78341  0.19590  0.27488  1.0000
  C   C1437     1.0  0.00220  0.20988  0.11552  1.0000
  H   H2454     1.0  0.77487  0.04211  0.01050  1.0000
  C   C1438     1.0  0.77947  0.00849  0.04113  1.0000
  H   H2455     1.0  0.78359  0.30786  0.21184  1.0000
  H   H2456     1.0  0.00411  0.06054  0.20792  1.0000
  H   H2457     1.0  0.80952  0.01178  0.02274  1.0000
  H   H2458     1.0  0.78399  0.22869  0.31958  1.0000
  C   C1439     1.0  0.76888  0.02103  0.00689  1.0000
  C   C1440     1.0  0.00190  0.03898  0.20050  1.0000
  H   H2459     1.0  0.92319  0.49179  0.02678  1.0000
  H   H2460     1.0  0.00085  0.08984  0.17814  1.0000
  H   H2461     1.0  0.81338  0.99643  0.99765  1.0000
  H   H2462     1.0  0.99652  0.26297  0.10479  1.0000
  H   H2463     1.0  0.00609  0.46541  0.16783  1.0000
  H   H2464     1.0  0.78807  0.47477  0.03557  1.0000
  H   H2465     1.0  0.95225  0.00925  0.08498  1.0000
  C   C1441     1.0  0.99970  0.48610  0.17090  1.0000
  H   H2466     1.0  0.01051  0.07103  0.26898  1.0000
  C   C1442     1.0  0.00016  0.18319  0.29317  1.0000
  H   H2467     1.0  0.00621  0.12540  0.28650  1.0000
  C   C1443     1.0  0.92080  0.43527  0.00852  1.0000
  C   C1444     1.0  0.77875  0.49109  0.03295  1.0000
  C   C1445     1.0  0.01224  0.05083  0.16435  1.0000
  C   C1446     1.0  0.90996  0.41272  0.99806  1.0000
  H   H2468     1.0  0.98989  0.99569  0.16684  1.0000
  C   C1447     1.0  0.80410  0.00654  0.00757  1.0000
  H   H2469     1.0  0.80839  0.00045  0.11387  1.0000
  N   N103      1.0  0.01407  0.03244  0.18381  1.0000
  H   H2470     1.0  0.78944  0.21737  0.27616  1.0000
  H   H2471     1.0  0.81293  0.49080  0.99994  1.0000
  H   H2472     1.0  0.80048  0.02705  0.99984  1.0000
  H   H2473     1.0  0.76599  0.23243  0.13685  1.0000
  H   H2474     1.0  0.76490  0.26847  0.32710  1.0000
  C   C1448     1.0  0.00325  0.46337  0.99840  1.0000
  C   C1449     1.0  0.01060  0.99611  0.00250  1.0000
  N   N104      1.0  0.77562  0.99659  0.01979  1.0000
  H   H2475     1.0  0.94967  0.41592  0.99837  1.0000
  C   C1450     1.0  0.76568  0.01978  0.05467  1.0000
  H   H2476     1.0  0.01447  0.48505  0.21535  1.0000
  H   H2477     1.0  0.01190  0.20739  0.14664  1.0000
  C   C1451     1.0  0.01405  0.00022  0.17836  1.0000
  C   C1452     1.0  0.99684  0.10140  0.55040  1.0000
  H   H2478     1.0  0.86774  0.06196  0.61294  1.0000
  Fe  Fe209     1.0  0.97598  0.39995  0.64550  1.0000
  S   S417      1.0  0.98866  0.37400  0.62025  1.0000
  S   S418      1.0  0.95808  0.43315  0.63655  1.0000
  S   S419      1.0  0.83181  0.43743  0.64155  1.0000
  Fe  Fe210     1.0  0.81175  0.46905  0.64040  1.0000
  H   H2479     1.0  0.86308  0.42117  0.65796  1.0000
  C   C1453     1.0  0.92356  0.00479  0.62630  1.0000
  H   H2480     1.0  0.88913  0.48520  0.64723  1.0000
  Fe  Fe211     1.0  0.96883  0.21266  0.58398  1.0000
  S   S420      1.0  0.96125  0.23381  0.55413  1.0000
  S   S421      1.0  0.97571  0.23747  0.61311  1.0000
  Fe  Fe212     1.0  0.96178  0.15046  0.56929  1.0000
  S   S422      1.0  0.95357  0.16761  0.53825  1.0000
  S   S423      1.0  0.95958  0.10045  0.57314  1.0000
  Fe  Fe213     1.0  0.97460  0.19763  0.53805  1.0000
  S   S424      1.0  0.98716  0.20108  0.50592  1.0000
  Fe  Fe214     1.0  0.94093  0.20224  0.55653  1.0000
  S   S425      1.0  0.91680  0.21989  0.54923  1.0000
  S   S426      1.0  0.98368  0.17822  0.56797  1.0000
  S   S427      1.0  0.94764  0.18341  0.58752  1.0000
  Fe  Fe215     1.0  0.79695  0.17008  0.53975  1.0000
  S   S428      1.0  0.78569  0.18995  0.56863  1.0000
  S   S429      1.0  0.78501  0.16497  0.50794  1.0000
  Fe  Fe216     1.0  0.82906  0.16596  0.56111  1.0000
  S   S430      1.0  0.81981  0.18493  0.59119  1.0000
  S   S431      1.0  0.85360  0.14720  0.56139  1.0000
  Fe  Fe217     1.0  0.79912  0.15559  0.58620  1.0000
  S   S432      1.0  0.79108  0.12890  0.61448  1.0000
  Fe  Fe218     1.0  0.80751  0.21775  0.57123  1.0000
  S   S433      1.0  0.80860  0.26789  0.57462  1.0000
  S   S434      1.0  0.80903  0.13426  0.55737  1.0000
  S   S435      1.0  0.81802  0.20022  0.54108  1.0000
  H   H2481     1.0  0.91356  0.46887  0.64451  1.0000
  C   C1454     1.0  0.84751  0.23838  0.58488  1.0000
  H   H2482     1.0  0.89067  0.27740  0.56276  1.0000
  H   H2483     1.0  0.82732  0.06839  0.53508  1.0000
  H   H2484     1.0  0.86634  0.25035  0.61810  1.0000
  C   C1455     1.0  0.89944  0.19903  0.55234  1.0000
  C   C1456     1.0  0.89932  0.17134  0.56177  1.0000
  C   C1457     1.0  0.88517  0.15578  0.56446  1.0000
  C   C1458     1.0  0.87102  0.16788  0.55798  1.0000
  C   C1459     1.0  0.87114  0.19551  0.54850  1.0000
  C   C1460     1.0  0.88531  0.21092  0.54559  1.0000
  H   H2485     1.0  0.91013  0.16194  0.56695  1.0000
  H   H2486     1.0  0.88521  0.13430  0.57162  1.0000
  H   H2487     1.0  0.86038  0.20472  0.54299  1.0000
  H   H2488     1.0  0.88536  0.23211  0.53798  1.0000
  C   C1461     1.0  0.81210  0.33130  0.63073  1.0000
  C   C1462     1.0  0.81163  0.30078  0.63410  1.0000
  C   C1463     1.0  0.81048  0.28103  0.61721  1.0000
  C   C1464     1.0  0.80982  0.29158  0.59666  1.0000
  C   C1465     1.0  0.81042  0.32208  0.59330  1.0000
  C   C1466     1.0  0.81155  0.34183  0.61018  1.0000
  H   H2489     1.0  0.00348  0.48700  0.64670  1.0000
  H   H2490     1.0  0.81006  0.25767  0.62009  1.0000
  H   H2491     1.0  0.80995  0.33051  0.57748  1.0000
  H   H2492     1.0  0.81194  0.36518  0.60728  1.0000
  C   C1467     1.0  0.79659  0.02928  0.61133  1.0000
  C   C1468     1.0  0.79260  0.04506  0.59337  1.0000
  C   C1469     1.0  0.79125  0.07574  0.59403  1.0000
  C   C1470     1.0  0.79370  0.09075  0.61273  1.0000
  C   C1471     1.0  0.79778  0.07497  0.63065  1.0000
  C   C1472     1.0  0.79929  0.04435  0.62993  1.0000
  H   H2493     1.0  0.79048  0.03357  0.57891  1.0000
  H   H2494     1.0  0.78795  0.08772  0.58018  1.0000
  H   H2495     1.0  0.79989  0.08656  0.64505  1.0000
  H   H2496     1.0  0.80242  0.03240  0.64379  1.0000
  C   C1473     1.0  0.97607  0.03539  0.62352  1.0000
  C   C1474     1.0  0.96752  0.02577  0.60641  1.0000
  C   C1475     1.0  0.96264  0.04601  0.59116  1.0000
  C   C1476     1.0  0.96619  0.07608  0.59281  1.0000
  C   C1477     1.0  0.97478  0.08567  0.60987  1.0000
  C   C1478     1.0  0.97974  0.06541  0.62506  1.0000
  H   H2497     1.0  0.01368  0.05111  0.55189  1.0000
  H   H2498     1.0  0.95603  0.03833  0.57800  1.0000
  H   H2499     1.0  0.97761  0.10869  0.61138  1.0000
  H   H2500     1.0  0.98635  0.07311  0.63822  1.0000
  C   C1479     1.0  0.98340  0.33676  0.61680  1.0000
  C   C1480     1.0  0.97322  0.32243  0.63088  1.0000
  C   C1481     1.0  0.97033  0.29222  0.62896  1.0000
  C   C1482     1.0  0.97732  0.27609  0.61269  1.0000
  C   C1483     1.0  0.98706  0.29057  0.59811  1.0000
  C   C1484     1.0  0.99018  0.32076  0.60026  1.0000
  H   H2501     1.0  0.96779  0.33438  0.64354  1.0000
  H   H2502     1.0  0.96273  0.28121  0.64021  1.0000
  H   H2503     1.0  0.99269  0.27825  0.58568  1.0000
  H   H2504     1.0  0.99808  0.33158  0.58929  1.0000
  H   H2505     1.0  0.97984  0.24196  0.65951  1.0000
  C   C1485     1.0  0.88787  0.41342  0.65809  1.0000
  H   H2506     1.0  0.99964  0.33312  0.42846  1.0000
  C   C1486     1.0  0.00459  0.21817  0.49607  1.0000
  H   H2507     1.0  0.84685  0.33112  0.62835  1.0000
  H   H2508     1.0  0.00208  0.16700  0.33448  1.0000
  H   H2509     1.0  0.00200  0.39219  0.44225  1.0000
  H   H2510     1.0  0.97027  0.11252  0.52663  1.0000
  S   S436      1.0  0.91927  0.40389  0.65687  1.0000
  C   C1487     1.0  0.83966  0.02684  0.58641  1.0000
  C   C1488     1.0  0.91816  0.47724  0.62931  1.0000
  C   C1489     1.0  0.83937  0.10754  0.60619  1.0000
  H   H2511     1.0  0.00033  0.32893  0.49705  1.0000
  H   H2512     1.0  0.77257  0.34818  0.38080  1.0000
  C   C1490     1.0  0.01382  0.30982  0.45139  1.0000
  C   C1491     1.0  0.83528  0.05749  0.54615  1.0000
  H   H2513     1.0  0.98728  0.42925  0.58445  1.0000
  C   C1492     1.0  0.83743  0.07399  0.60529  1.0000
  H   H2514     1.0  0.83593  0.11522  0.62209  1.0000
  H   H2515     1.0  0.99265  0.43661  0.62103  1.0000
  H   H2516     1.0  0.83154  0.11884  0.59522  1.0000
  N   N105      1.0  0.86538  0.28256  0.59326  1.0000
  C   C1493     1.0  0.76826  0.14002  0.47606  1.0000
  H   H2517     1.0  0.84488  0.28175  0.61397  1.0000
  C   C1494     1.0  0.83316  0.07185  0.56785  1.0000
  H   H2518     1.0  0.99012  0.47451  0.61945  1.0000
  C   C1495     1.0  0.99531  0.45586  0.61086  1.0000
  Fe  Fe219     1.0  0.81444  0.40519  0.65551  1.0000
  C   C1496     1.0  0.85236  0.29774  0.60520  1.0000
  N   N106      1.0  0.93242  0.03808  0.65647  1.0000
  C   C1497     1.0  0.97758  0.11477  0.51218  1.0000
  N   N107      1.0  0.84281  0.05946  0.58527  1.0000
  H   H2519     1.0  0.81209  0.29234  0.64991  1.0000
  C   C1498     1.0  0.90938  0.46023  0.61234  1.0000
  H   H2520     1.0  0.90999  0.43644  0.61601  1.0000
  H   H2521     1.0  0.77742  0.18426  0.33925  1.0000
  H   H2522     1.0  0.96464  0.00277  0.60494  1.0000
  C   C1499     1.0  0.85745  0.32055  0.62158  1.0000
  H   H2523     1.0  0.83580  0.09543  0.56535  1.0000
  H   H2524     1.0  0.85162  0.11460  0.60324  1.0000
  H   H2525     1.0  0.83734  0.24594  0.59426  1.0000
  H   H2526     1.0  0.86480  0.33833  0.61473  1.0000
  H   H2527     1.0  0.82489  0.06907  0.60818  1.0000
  H   H2528     1.0  0.94785  0.09709  0.65707  1.0000
  H   H2529     1.0  0.01342  0.43053  0.58056  1.0000
  C   C1500     1.0  0.87441  0.26456  0.60864  1.0000
  H   H2530     1.0  0.84663  0.01509  0.57421  1.0000
  H   H2531     1.0  0.77041  0.31952  0.42323  1.0000
  H   H2532     1.0  0.88217  0.07230  0.59452  1.0000
  H   H2533     1.0  0.86677  0.25337  0.56645  1.0000
  H   H2534     1.0  0.01364  0.23059  0.52592  1.0000
  H   H2535     1.0  0.84330  0.06514  0.61919  1.0000
  H   H2536     1.0  0.84726  0.06069  0.53965  1.0000
  H   H2537     1.0  0.97327  0.45419  0.59453  1.0000
  H   H2538     1.0  0.82719  0.02202  0.58302  1.0000
  C   C1501     1.0  0.87177  0.05787  0.59671  1.0000
  C   C1502     1.0  0.88413  0.29817  0.56223  1.0000
  H   H2539     1.0  0.93055  0.47006  0.62853  1.0000
  H   H2540     1.0  0.92668  0.09935  0.65903  1.0000
  H   H2541     1.0  0.77399  0.15634  0.46624  1.0000
  H   H2542     1.0  0.87551  0.03473  0.59510  1.0000
  H   H2543     1.0  0.91486  0.46318  0.59661  1.0000
  H   H2544     1.0  0.92630  0.06235  0.62846  1.0000
  H   H2545     1.0  0.00362  0.09446  0.58273  1.0000
  S   S437      1.0  0.81351  0.35505  0.65274  1.0000
  C   C1503     1.0  0.00913  0.31673  0.42879  1.0000
  H   H2546     1.0  0.89268  0.31577  0.55816  1.0000
  H   H2547     1.0  0.01413  0.41180  0.60492  1.0000
  H   H2548     1.0  0.98047  0.13810  0.50925  1.0000
  H   H2549     1.0  0.99073  0.08004  0.55299  1.0000
  H   H2550     1.0  0.98903  0.46808  0.57850  1.0000
  C   C1504     1.0  0.01364  0.38258  0.44505  1.0000
  H   H2551     1.0  0.91120  0.00996  0.62997  1.0000
  H   H2552     1.0  0.89683  0.46585  0.61205  1.0000
  H   H2553     1.0  0.76650  0.02877  0.65065  1.0000
  H   H2554     1.0  0.77494  0.29966  0.36749  1.0000
  H   H2555     1.0  0.00048  0.15068  0.52956  1.0000
  H   H2556     1.0  0.86164  0.08908  0.57544  1.0000
  H   H2557     1.0  0.84273  0.22682  0.57114  1.0000
  C   C1505     1.0  0.01186  0.31167  0.65780  1.0000
  H   H2558     1.0  0.98772  0.07267  0.51598  1.0000
  H   H2559     1.0  0.99740  0.09469  0.49689  1.0000
  S   S438      1.0  0.98193  0.01126  0.64379  1.0000
  N   N108      1.0  0.01271  0.45915  0.60769  1.0000
  H   H2560     1.0  0.82050  0.07061  0.57203  1.0000
  H   H2561     1.0  0.97020  0.10753  0.49906  1.0000
  C   C1506     1.0  0.98589  0.45175  0.59075  1.0000
  C   C1507     1.0  0.00998  0.31296  0.49768  1.0000
  C   C1508     1.0  0.00981  0.13467  0.52557  1.0000
  H   H2562     1.0  0.00446  0.29642  0.42162  1.0000
  H   H2563     1.0  0.90827  0.05040  0.65371  1.0000
  S   S439      1.0  0.79409  0.43543  0.65155  1.0000
  H   H2564     1.0  0.85071  0.27751  0.56630  1.0000
  H   H2565     1.0  0.88256  0.22869  0.58805  1.0000
  C   C1509     1.0  0.85792  0.26377  0.57680  1.0000
  Fe  Fe220     1.0  0.96947  0.46290  0.65949  1.0000
  H   H2566     1.0  0.01304  0.31020  0.51439  1.0000
  H   H2567     1.0  0.86874  0.32574  0.57927  1.0000
  C   C1510     1.0  0.85973  0.06577  0.58006  1.0000
  H   H2568     1.0  0.94637  0.00612  0.63978  1.0000
  H   H2569     1.0  0.84446  0.30912  0.59419  1.0000
  H   H2570     1.0  0.83213  0.03391  0.54630  1.0000
  C   C1511     1.0  0.88720  0.24469  0.59935  1.0000
  H   H2571     1.0  0.99796  0.25965  0.65381  1.0000
  H   H2572     1.0  0.89238  0.23172  0.61217  1.0000
  H   H2573     1.0  0.00771  0.13099  0.57308  1.0000
  C   C1512     1.0  0.93408  0.00913  0.64535  1.0000
  H   H2574     1.0  0.87575  0.29704  0.54923  1.0000
  H   H2575     1.0  0.88033  0.27891  0.62010  1.0000
  C   C1513     1.0  0.99216  0.09525  0.51296  1.0000
  H   H2576     1.0  0.88473  0.31359  0.59411  1.0000
  H   H2577     1.0  0.86346  0.05365  0.56577  1.0000
  C   C1514     1.0  0.87568  0.30591  0.58309  1.0000
  H   H2578     1.0  0.92780  0.01799  0.61269  1.0000
  H   H2579     1.0  0.89688  0.25752  0.59206  1.0000
  H   H2580     1.0  0.88740  0.39662  0.64622  1.0000
  H   H2581     1.0  0.00590  0.29111  0.49242  1.0000
  H   H2582     1.0  0.86352  0.31021  0.63483  1.0000
  C   C1515     1.0  0.77180  0.13864  0.49749  1.0000
  H   H2583     1.0  0.99914  0.20852  0.46403  1.0000
  H   H2584     1.0  0.76679  0.13080  0.65714  1.0000
  H   H2585     1.0  0.85416  0.22194  0.59380  1.0000
  N   N109      1.0  0.00417  0.10363  0.52884  1.0000
  H   H2586     1.0  0.85432  0.01539  0.61358  1.0000
  C   C1516     1.0  0.00774  0.10740  0.56890  1.0000
  C   C1517     1.0  0.00760  0.21819  0.47431  1.0000
  H   H2587     1.0  0.00271  0.30339  0.45943  1.0000
  C   C1518     1.0  0.84256  0.01134  0.60746  1.0000
  C   C1519     1.0  0.93555  0.06191  0.64041  1.0000
  H   H2588     1.0  0.00504  0.04084  0.52735  1.0000
  H   H2589     1.0  0.99979  0.35559  0.46643  1.0000
  H   H2590     1.0  0.98733  0.11764  0.55213  1.0000
  H   H2591     1.0  0.93696  0.10895  0.63530  1.0000
  H   H2592     1.0  0.94657  0.05763  0.63156  1.0000
  H   H2593     1.0  0.76683  0.11597  0.52643  1.0000
  H   H2594     1.0  0.76940  0.07978  0.64857  1.0000
  C   C1520     1.0  0.93675  0.09349  0.64879  1.0000
  H   H2595     1.0  0.00654  0.14219  0.49182  1.0000
  H   H2596     1.0  0.83362  0.01764  0.61939  1.0000
  H   H2597     1.0  0.00372  0.30659  0.64502  1.0000
  C   C1521     1.0  0.01234  0.36135  0.46401  1.0000
  H   H2598     1.0  0.76563  0.29463  0.39247  1.0000
  C   C1522     1.0  0.76637  0.18085  0.33065  1.0000
  H   H2599     1.0  0.76514  0.39441  0.36777  1.0000
  H   H2600     1.0  0.76477  0.36695  0.41290  1.0000
  H   H2601     1.0  0.77268  0.48763  0.66353  1.0000
  S   S440      1.0  0.95462  0.44740  0.68698  1.0000
  H   H2602     1.0  0.00033  0.32005  0.72015  1.0000
  H   H2603     1.0  0.79342  0.40737  0.72348  1.0000
  H   H2604     1.0  0.97304  0.33104  0.72694  1.0000
  Fe  Fe221     1.0  0.97326  0.41331  0.69202  1.0000
  S   S441      1.0  0.98088  0.40087  0.72500  1.0000
  H   H2605     1.0  0.79508  0.02018  0.75048  1.0000
  Fe  Fe222     1.0  0.79895  0.45249  0.68388  1.0000
  C   C1523     1.0  0.94340  0.42721  0.98554  1.0000
  S   S442      1.0  0.77687  0.45588  0.70456  1.0000
  H   H2606     1.0  0.98920  0.28756  0.72405  1.0000
  S   S443      1.0  0.85748  0.46820  0.68769  1.0000
  H   H2607     1.0  0.99049  0.37793  0.76460  1.0000
  S   S444      1.0  0.81834  0.42033  0.68865  1.0000
  H   H2608     1.0  0.94398  0.06175  0.68124  1.0000
  C   C1524     1.0  0.94480  0.04052  0.67284  1.0000
  H   H2609     1.0  0.79638  0.35719  0.69309  1.0000
  C   C1525     1.0  0.77910  0.33624  0.72537  1.0000
  H   H2610     1.0  0.94517  0.99442  0.68410  1.0000
  C   C1526     1.0  0.99850  0.38384  0.73267  1.0000
  C   C1527     1.0  0.76993  0.01784  0.98276  1.0000
  H   H2611     1.0  0.90407  0.42163  0.98418  1.0000
  C   C1528     1.0  0.87407  0.42736  0.66469  1.0000
  H   H2612     1.0  0.91597  0.99833  0.68179  1.0000
  C   C1529     1.0  0.77553  0.04841  0.67978  1.0000
  H   H2613     1.0  0.77759  0.49127  0.99155  1.0000
  C   C1530     1.0  0.88892  0.45685  0.68863  1.0000
  H   H2614     1.0  0.00973  0.33540  0.68692  1.0000
  C   C1531     1.0  0.77157  0.47913  0.72583  1.0000
  C   C1532     1.0  0.99998  0.37433  0.75352  1.0000
  H   H2615     1.0  0.91378  0.44867  0.68890  1.0000
  H   H2616     1.0  0.91661  0.06022  0.67795  1.0000
  H   H2617     1.0  0.90110  0.02279  0.68988  1.0000
  C   C1533     1.0  0.76767  0.11660  0.83938  1.0000
  C   C1534     1.0  0.79203  0.38499  0.73029  1.0000
  H   H2618     1.0  0.99622  0.23289  0.67475  1.0000
  H   H2619     1.0  0.93448  0.01965  0.70103  1.0000
  H   H2620     1.0  0.78577  0.10372  0.68088  1.0000
  C   C1535     1.0  0.87453  0.44923  0.67991  1.0000
  H   H2621     1.0  0.77423  0.09672  0.84331  1.0000
  H   H2622     1.0  0.97709  0.28983  0.67408  1.0000
  H   H2623     1.0  0.77392  0.14590  0.86412  1.0000
  H   H2624     1.0  0.81391  0.36766  0.71581  1.0000
  H   H2625     1.0  0.99489  0.46935  0.96708  1.0000
  C   C1536     1.0  0.00461  0.47256  0.97736  1.0000
  C   C1537     1.0  0.77549  0.33061  0.74878  1.0000
  H   H2626     1.0  0.89966  0.00587  0.66520  1.0000
  C   C1538     1.0  0.78504  0.36840  0.69560  1.0000
  N   N110      1.0  0.93281  0.45047  0.99452  1.0000
  C   C1539     1.0  0.78449  0.01326  0.74297  1.0000
  C   C1540     1.0  0.97668  0.32380  0.71099  1.0000
  H   H2627     1.0  0.97824  0.26372  0.69461  1.0000
  H   H2628     1.0  0.79016  0.07392  0.71334  1.0000
  C   C1541     1.0  0.77375  0.35403  0.68008  1.0000
  H   H2629     1.0  0.76940  0.03739  0.76428  1.0000
  C   C1542     1.0  0.92444  0.46679  0.97760  1.0000
  C   C1543     1.0  0.78184  0.09242  0.71345  1.0000
  C   C1544     1.0  0.00289  0.31872  0.67831  1.0000
  H   H2630     1.0  0.01445  0.35255  0.77617  1.0000
  H   H2631     1.0  0.76613  0.16269  0.90608  1.0000
  C   C1545     1.0  0.90276  0.44280  0.68207  1.0000
  H   H2632     1.0  0.97871  0.34403  0.70171  1.0000
  C   C1546     1.0  0.80838  0.37115  0.73141  1.0000
  H   H2633     1.0  0.96679  0.31122  0.70455  1.0000
  H   H2634     1.0  0.80276  0.47389  0.97909  1.0000
  H   H2635     1.0  0.78691  0.39142  0.69019  1.0000
  C   C1547     1.0  0.90817  0.01559  0.67609  1.0000
  H   H2636     1.0  0.01307  0.29137  0.86142  1.0000
  C   C1548     1.0  0.76858  0.02279  0.66719  1.0000
  H   H2637     1.0  0.77292  0.32999  0.68237  1.0000
  H   H2638     1.0  0.80811  0.35022  0.74026  1.0000
  H   H2639     1.0  0.91380  0.47755  0.98425  1.0000
  H   H2640     1.0  0.00882  0.25854  0.89070  1.0000
  H   H2641     1.0  0.77750  0.31698  0.98988  1.0000
  C   C1549     1.0  0.77555  0.09898  0.69147  1.0000
  H   H2642     1.0  0.77934  0.03211  0.97611  1.0000
  N   N111      1.0  0.76549  0.07533  0.68213  1.0000
  C   C1550     1.0  0.76993  0.02294  0.75090  1.0000
  H   H2643     1.0  0.76937  0.12015  0.69276  1.0000
  N   N112      1.0  0.99815  0.29331  0.69224  1.0000
  H   H2644     1.0  0.78839  0.38884  0.74677  1.0000
  C   C1551     1.0  0.99169  0.30552  0.71257  1.0000
  H   H2645     1.0  0.76649  0.41646  0.74399  1.0000
  C   C1552     1.0  0.95577  0.43717  0.96912  1.0000
  H   H2646     1.0  0.00715  0.28028  0.92222  1.0000
  S   S445      1.0  0.81521  0.48806  0.67227  1.0000
  H   H2647     1.0  0.78511  0.08255  0.87416  1.0000
  H   H2648     1.0  0.91614  0.39217  0.99405  1.0000
  H   H2649     1.0  0.88935  0.47366  0.70050  1.0000
  H   H2650     1.0  0.77843  0.03918  0.69531  1.0000
  H   H2651     1.0  0.77522  0.11957  0.89510  1.0000
  S   S446      1.0  0.96147  0.38026  0.67150  1.0000
  H   H2652     1.0  0.78987  0.32404  0.72083  1.0000
  C   C1553     1.0  0.94464  0.01705  0.69020  1.0000
  H   H2653     1.0  0.78840  0.11189  0.71896  1.0000
  H   H2654     1.0  0.93477  0.48475  0.94848  1.0000
  H   H2655     1.0  0.00917  0.31959  0.89341  1.0000
  H   H2656     1.0  0.00770  0.25596  0.70831  1.0000
  H   H2657     1.0  0.93664  0.40994  0.97751  1.0000
  C   C1554     1.0  0.76566  0.10445  0.89056  1.0000
  H   H2658     1.0  0.96312  0.45563  0.97431  1.0000
  N   N113      1.0  0.78001  0.36776  0.71841  1.0000
  H   H2659     1.0  0.78696  0.05412  0.67221  1.0000
  H   H2660     1.0  0.96386  0.41869  0.96604  1.0000
  C   C1555     1.0  0.98538  0.27537  0.68236  1.0000
  H   H2661     1.0  0.76979  0.32442  0.71688  1.0000
  H   H2662     1.0  0.81618  0.38633  0.73991  1.0000
  Fe  Fe223     1.0  0.83429  0.45438  0.67425  1.0000
  C   C1556     1.0  0.01358  0.35999  0.76015  1.0000
  S   S447      1.0  0.98889  0.43122  0.66635  1.0000
  H   H2663     1.0  0.92000  0.45111  0.96578  1.0000
  H   H2664     1.0  0.77713  0.00460  0.66682  1.0000
  H   H2665     1.0  0.95037  0.44253  0.95399  1.0000
  C   C1557     1.0  0.77380  0.07680  0.88196  1.0000
  H   H2666     1.0  0.76668  0.06368  0.87121  1.0000
  C   C1558     1.0  0.93377  0.49069  0.96530  1.0000
  C   C1559     1.0  0.01090  0.37914  0.71854  1.0000
  C   C1560     1.0  0.91634  0.04260  0.66595  1.0000
  H   H2667     1.0  0.99244  0.33111  0.67338  1.0000
  H   H2668     1.0  0.95521  0.02001  0.69976  1.0000
  H   H2669     1.0  0.78097  0.34667  0.75928  1.0000
  H   H2670     1.0  0.77520  0.13002  0.82867  1.0000
  H   H2671     1.0  0.77232  0.08821  0.72511  1.0000
  H   H2672     1.0  0.78047  0.30917  0.75336  1.0000
  H   H2673     1.0  0.01002  0.38664  0.70254  1.0000
  C   C1561     1.0  0.77278  0.33888  0.98947  1.0000
  C   C1562     1.0  0.80156  0.48119  0.99561  1.0000
  H   H2674     1.0  0.77616  0.06169  0.89517  1.0000
  C   C1563     1.0  0.99042  0.25133  0.66676  1.0000
  C   C1564     1.0  0.90226  0.42112  0.66667  1.0000
  C   C1565     1.0  0.01172  0.27401  0.69766  1.0000
  H   H2675     1.0  0.01149  0.23208  0.86124  1.0000
  H   H2676     1.0  0.95662  0.04025  0.66526  1.0000
  Fe  Fe224     1.0  0.94428  0.41573  0.66421  1.0000
  H   H2677     1.0  0.77151  0.99533  0.97688  1.0000
  C   C1566     1.0  0.78547  0.99477  0.72540  1.0000
  H   H2678     1.0  0.77846  0.35754  0.66391  1.0000
  H   H2679     1.0  0.01444  0.34247  0.87180  1.0000
  H   H2680     1.0  0.93491  0.48663  0.66404  1.0000
  Fe  Fe225     1.0  0.98360  0.93743  0.03803  1.0000
  S   S448      1.0  0.98921  0.91627  0.06911  1.0000
  C   C1567     1.0  0.80807  0.55131  0.01491  1.0000
  Fe  Fe226     1.0  0.94887  0.94467  0.05103  1.0000
  S   S449      1.0  0.95208  0.92489  0.08266  1.0000
  S   S450      1.0  0.92549  0.96238  0.04070  1.0000
  Fe  Fe227     1.0  0.97411  0.95202  0.08290  1.0000
  C   C1568     1.0  0.85645  0.59920  0.12511  1.0000
  Fe  Fe228     1.0  0.96670  0.89070  0.06652  1.0000
  S   S451      1.0  0.96103  0.84159  0.07007  1.0000
  S   S452      1.0  0.96986  0.97456  0.05225  1.0000
  S   S453      1.0  0.96215  0.90926  0.03444  1.0000
  Fe  Fe229     1.0  0.80465  0.91403  0.03718  1.0000
  S   S454      1.0  0.79297  0.93441  0.06550  1.0000
  H   H2681     1.0  0.76604  0.71821  0.20208  1.0000
  Fe  Fe230     1.0  0.83695  0.91314  0.05858  1.0000
  S   S455      1.0  0.82736  0.93345  0.08800  1.0000
  S   S456      1.0  0.86165  0.89506  0.05968  1.0000
  Fe  Fe231     1.0  0.80721  0.90242  0.08399  1.0000
  S   S457      1.0  0.79956  0.87786  0.11324  1.0000
  Fe  Fe232     1.0  0.81420  0.96381  0.06721  1.0000
  C   C1569     1.0  0.92966  0.90350  0.99792  1.0000
  S   S458      1.0  0.81746  0.88007  0.05576  1.0000
  S   S459      1.0  0.82520  0.94546  0.03765  1.0000
  Fe  Fe233     1.0  0.96664  0.63892  0.13869  1.0000
  S   S460      1.0  0.96266  0.62305  0.17168  1.0000
  S   S461      1.0  0.96391  0.60866  0.11096  1.0000
  Fe  Fe234     1.0  0.97006  0.70359  0.15139  1.0000
  S   S462      1.0  0.96651  0.69175  0.18549  1.0000
  S   S463      1.0  0.97392  0.75287  0.14566  1.0000
  Fe  Fe235     1.0  0.98244  0.65349  0.17970  1.0000
  S   S464      1.0  0.00437  0.64375  0.19856  1.0000
  Fe  Fe236     1.0  0.94705  0.66253  0.17454  1.0000
  S   S465      1.0  0.92340  0.66126  0.19147  1.0000
  S   S466      1.0  0.98737  0.66718  0.14613  1.0000
  S   S467      1.0  0.94973  0.67640  0.14102  1.0000
  Fe  Fe237     1.0  0.80534  0.71302  0.13784  1.0000
  S   S468      1.0  0.81974  0.73352  0.16270  1.0000
  S   S469      1.0  0.79618  0.73928  0.11067  1.0000
  Fe  Fe238     1.0  0.80941  0.65100  0.15514  1.0000
  S   S470      1.0  0.82396  0.66771  0.18176  1.0000
  S   S471      1.0  0.80552  0.60140  0.15289  1.0000
  Fe  Fe239     1.0  0.80607  0.70398  0.18486  1.0000
  S   S472      1.0  0.79832  0.72340  0.21657  1.0000
  Fe  Fe240     1.0  0.83610  0.69588  0.15743  1.0000
  S   S473      1.0  0.86152  0.70323  0.14750  1.0000
  S   S474      1.0  0.79068  0.68529  0.16001  1.0000
  S   S475      1.0  0.82248  0.67724  0.13088  1.0000
  C   C1570     1.0  0.77999  0.73601  0.22660  1.0000
  C   C1571     1.0  0.00880  0.62268  0.22111  1.0000
  C   C1572     1.0  0.77954  0.75187  0.24548  1.0000
  C   C1573     1.0  0.00195  0.98952  0.16252  1.0000
  H   H2682     1.0  0.79028  0.75599  0.25360  1.0000
  H   H2683     1.0  0.85974  0.59162  0.19067  1.0000
  C   C1574     1.0  0.99766  0.60528  0.23164  1.0000
  H   H2684     1.0  0.89934  0.60753  0.16683  1.0000
  H   H2685     1.0  0.98568  0.60547  0.22664  1.0000
  C   C1575     1.0  0.77768  0.79622  0.18102  1.0000
  C   C1576     1.0  0.90599  0.67131  0.17894  1.0000
  C   C1577     1.0  0.89213  0.67431  0.19085  1.0000
  C   C1578     1.0  0.87820  0.68306  0.18137  1.0000
  C   C1579     1.0  0.87815  0.68944  0.15996  1.0000
  C   C1580     1.0  0.89194  0.68605  0.14802  1.0000
  C   C1581     1.0  0.90571  0.67648  0.15738  1.0000
  H   H2686     1.0  0.89220  0.67007  0.20752  1.0000
  H   H2687     1.0  0.86764  0.68569  0.19074  1.0000
  H   H2688     1.0  0.89194  0.69054  0.13139  1.0000
  H   H2689     1.0  0.91610  0.67311  0.14791  1.0000
  H   H2690     1.0  0.83482  0.56346  0.15955  1.0000
  C   C1582     1.0  0.81300  0.53748  0.09755  1.0000
  C   C1583     1.0  0.81559  0.56776  0.09474  1.0000
  C   C1584     1.0  0.81315  0.58768  0.11135  1.0000
  C   C1585     1.0  0.80811  0.57754  0.13106  1.0000
  C   C1586     1.0  0.80545  0.54728  0.13383  1.0000
  C   C1587     1.0  0.80789  0.52736  0.11722  1.0000
  H   H2691     1.0  0.81952  0.57589  0.07961  1.0000
  H   H2692     1.0  0.81520  0.61085  0.10892  1.0000
  H   H2693     1.0  0.80154  0.53914  0.14898  1.0000
  C   C1588     1.0  0.85869  0.63000  0.11543  1.0000
  C   C1589     1.0  0.79925  0.83940  0.11198  1.0000
  C   C1590     1.0  0.80234  0.82311  0.13003  1.0000
  C   C1591     1.0  0.80167  0.79238  0.12969  1.0000
  C   C1592     1.0  0.79743  0.77777  0.11146  1.0000
  C   C1593     1.0  0.79438  0.79408  0.09337  1.0000
  C   C1594     1.0  0.79545  0.82482  0.09355  1.0000
  H   H2694     1.0  0.80539  0.83432  0.14428  1.0000
  H   H2695     1.0  0.80405  0.78007  0.14366  1.0000
  H   H2696     1.0  0.79115  0.78291  0.07918  1.0000
  H   H2697     1.0  0.79291  0.83726  0.07960  1.0000
  H   H2698     1.0  0.77336  0.75423  0.14997  1.0000
  S   S476      1.0  0.97828  0.97610  0.11325  1.0000
  H   H2699     1.0  0.83691  0.81575  0.04034  1.0000
  C   C1595     1.0  0.96482  0.81725  0.09122  1.0000
  C   C1596     1.0  0.96054  0.78751  0.08950  1.0000
  C   C1597     1.0  0.96339  0.76737  0.10580  1.0000
  C   C1598     1.0  0.97050  0.77680  0.12414  1.0000
  C   C1599     1.0  0.97456  0.80661  0.12597  1.0000
  C   C1600     1.0  0.97177  0.82670  0.10964  1.0000
  H   H2700     1.0  0.95521  0.77990  0.07530  1.0000
  H   H2701     1.0  0.96023  0.74455  0.10411  1.0000
  H   H2702     1.0  0.98004  0.81420  0.14007  1.0000
  H   H2703     1.0  0.97514  0.84945  0.11124  1.0000
  C   C1601     1.0  0.98040  0.51338  0.11151  1.0000
  C   C1602     1.0  0.96668  0.52116  0.10151  1.0000
  C   C1603     1.0  0.96154  0.55031  0.10188  1.0000
  C   C1604     1.0  0.96983  0.57183  0.11272  1.0000
  C   C1605     1.0  0.98340  0.56403  0.12310  1.0000
  C   C1606     1.0  0.98872  0.53492  0.12238  1.0000
  N   N114      1.0  0.00946  0.63428  0.32105  1.0000
  H   H2704     1.0  0.95105  0.55620  0.09378  1.0000
  H   H2705     1.0  0.99006  0.58074  0.13097  1.0000
  H   H2706     1.0  0.99952  0.52925  0.12971  1.0000
  C   C1607     1.0  0.90753  0.94549  0.04799  1.0000
  C   C1608     1.0  0.89364  0.95582  0.03940  1.0000
  C   C1609     1.0  0.87930  0.94147  0.04363  1.0000
  C   C1610     1.0  0.87881  0.91647  0.05634  1.0000
  C   C1611     1.0  0.89263  0.90672  0.06543  1.0000
  C   C1612     1.0  0.90690  0.92131  0.06147  1.0000
  C   C1613     1.0  0.78129  0.80678  0.20334  1.0000
  H   H2707     1.0  0.86875  0.94914  0.03647  1.0000
  H   H2708     1.0  0.89226  0.88771  0.07554  1.0000
  H   H2709     1.0  0.91746  0.91354  0.06850  1.0000
  H   H2710     1.0  0.76912  0.95427  0.03278  1.0000
  N   N115      1.0  0.78471  0.51546  0.01890  1.0000
  H   H2711     1.0  0.86251  0.58342  0.11447  1.0000
  H   H2712     1.0  0.87109  0.83441  0.06686  1.0000
  H   H2713     1.0  0.79256  0.79718  0.20813  1.0000
  C   C1614     1.0  0.79925  0.52812  0.02828  1.0000
  H   H2714     1.0  0.77674  0.55605  0.00527  1.0000
  H   H2715     1.0  0.81839  0.55891  0.02370  1.0000
  H   H2716     1.0  0.92893  0.89662  0.03102  1.0000
  H   H2717     1.0  0.00555  0.53222  0.00247  1.0000
  H   H2718     1.0  0.78248  0.50897  0.06458  1.0000
  H   H2719     1.0  0.92879  0.92759  0.00008  1.0000
  C   C1615     1.0  0.93909  0.84459  0.01711  1.0000
  S   S477      1.0  0.79352  0.90689  0.00503  1.0000
  C   C1616     1.0  0.76596  0.73074  0.21642  1.0000
  H   H2720     1.0  0.97501  0.59466  0.31177  1.0000
  H   H2721     1.0  0.99477  0.50513  0.03976  1.0000
  H   H2722     1.0  0.93032  0.51282  0.00458  1.0000
  H   H2723     1.0  0.92639  0.98867  0.08106  1.0000
  N   N116      1.0  0.00164  0.54977  0.04681  1.0000
  H   H2724     1.0  0.78547  0.99165  0.05060  1.0000
  C   C1617     1.0  0.00984  0.50398  0.22427  1.0000
  S   S478      1.0  0.00070  0.93829  0.00980  1.0000
  C   C1618     1.0  0.99569  0.58065  0.04462  1.0000
  H   H2725     1.0  0.99140  0.58522  0.02875  1.0000
  H   H2726     1.0  0.93703  0.79969  0.00461  1.0000
  H   H2727     1.0  0.97121  0.55944  0.16896  1.0000
  H   H2728     1.0  0.80765  0.51047  0.03205  1.0000
  H   H2729     1.0  0.91357  0.81938  0.99861  1.0000
  H   H2730     1.0  0.77719  0.68212  0.27477  1.0000
  C   C1619     1.0  0.76677  0.67590  0.26569  1.0000
  C   C1620     1.0  0.91465  0.84366  0.99793  1.0000
  H   H2731     1.0  0.91282  0.85294  0.06988  1.0000
  H   H2732     1.0  0.77856  0.77190  0.18152  1.0000
  H   H2733     1.0  0.01357  0.62125  0.28893  1.0000
  N   N117      1.0  0.92388  0.76833  0.15334  1.0000
  C   C1621     1.0  0.93296  0.76804  0.17339  1.0000
  C   C1622     1.0  0.92839  0.79609  0.14179  1.0000
  C   C1623     1.0  0.92909  0.74228  0.14065  1.0000
  C   C1624     1.0  0.90671  0.76623  0.15888  1.0000
  C   C1625     1.0  0.93113  0.74035  0.18720  1.0000
  C   C1626     1.0  0.92431  0.82490  0.15310  1.0000
  C   C1627     1.0  0.92242  0.73883  0.11862  1.0000
  C   C1628     1.0  0.89505  0.77571  0.14198  1.0000
  H   H2734     1.0  0.94570  0.77101  0.17001  1.0000
  H   H2735     1.0  0.92952  0.78660  0.18366  1.0000
  H   H2736     1.0  0.92322  0.79744  0.12613  1.0000
  H   H2737     1.0  0.94121  0.79652  0.13846  1.0000
  H   H2738     1.0  0.94201  0.74229  0.13881  1.0000
  H   H2739     1.0  0.92599  0.72166  0.14893  1.0000
  H   H2740     1.0  0.90355  0.74338  0.16358  1.0000
  H   H2741     1.0  0.93740  0.74382  0.20203  1.0000
  H   H2742     1.0  0.91880  0.73537  0.19149  1.0000
  H   H2743     1.0  0.93655  0.72098  0.17973  1.0000
  H   H2744     1.0  0.92619  0.84348  0.14203  1.0000
  H   H2745     1.0  0.93214  0.82892  0.16641  1.0000
  H   H2746     1.0  0.90971  0.73443  0.11923  1.0000
  H   H2747     1.0  0.92783  0.71923  0.11125  1.0000
  H   H2748     1.0  0.92538  0.75749  0.10813  1.0000
  H   H2749     1.0  0.90012  0.77998  0.12627  1.0000
  H   H2750     1.0  0.94542  0.85157  0.00255  1.0000
  H   H2751     1.0  0.77157  0.80733  0.14079  1.0000
  H   H2752     1.0  0.80084  0.57080  0.01185  1.0000
  H   H2753     1.0  0.89400  0.97458  0.02901  1.0000
  C   C1629     1.0  0.92168  0.84838  0.05747  1.0000
  H   H2754     1.0  0.78746  0.80357  0.17057  1.0000
  H   H2755     1.0  0.87451  0.84337  0.09408  1.0000
  C   C1630     1.0  0.98783  0.59794  0.31027  1.0000
  H   H2756     1.0  0.86798  0.55020  0.14197  1.0000
  H   H2757     1.0  0.91091  0.82043  0.03475  1.0000
  C   C1631     1.0  0.86024  0.56325  0.15257  1.0000
  H   H2758     1.0  0.98200  0.52354  0.05750  1.0000
  H   H2759     1.0  0.77390  0.85443  0.14717  1.0000
  C   C1632     1.0  0.99912  0.52324  0.21097  1.0000
  H   H2760     1.0  0.81252  0.54228  0.99988  1.0000
  C   C1633     1.0  0.01278  0.79040  0.32691  1.0000
  H   H2761     1.0  0.98542  0.64415  0.31427  1.0000
  H   H2762     1.0  0.86664  0.78173  0.07748  1.0000
  C   C1634     1.0  0.87865  0.60455  0.14802  1.0000
  C   C1635     1.0  0.78800  0.50315  0.99739  1.0000
  C   C1636     1.0  0.00450  0.68918  0.32836  1.0000
  C   C1637     1.0  0.01153  0.51047  0.17622  1.0000
  H   H2763     1.0  0.00947  0.76942  0.31938  1.0000
  H   H2764     1.0  0.85162  0.62683  0.19438  1.0000
  H   H2765     1.0  0.93021  0.86665  0.05772  1.0000
  H   H2766     1.0  0.78447  0.85375  0.17130  1.0000
  H   H2767     1.0  0.85363  0.79624  0.04876  1.0000
  C   C1638     1.0  0.00720  0.54640  0.06898  1.0000
  H   H2768     1.0  0.84211  0.86683  0.12483  1.0000
  H   H2769     1.0  0.85381  0.64740  0.12560  1.0000
  H   H2770     1.0  0.83405  0.78163  0.05343  1.0000
  H   H2771     1.0  0.94161  0.50946  0.02761  1.0000
  H   H2772     1.0  0.79492  0.96648  0.02065  1.0000
  C   C1639     1.0  0.97766  0.53280  0.02534  1.0000
  H   H2773     1.0  0.99344  0.57338  0.25618  1.0000
  H   H2774     1.0  0.88560  0.59239  0.13598  1.0000
  H   H2775     1.0  0.84125  0.77050  0.13037  1.0000
  H   H2776     1.0  0.83238  0.86225  0.10078  1.0000
  H   H2777     1.0  0.88696  0.81876  0.08036  1.0000
  H   H2778     1.0  0.85644  0.75178  0.11558  1.0000
  H   H2779     1.0  0.88004  0.62815  0.14409  1.0000
  N   N118      1.0  0.86172  0.59544  0.14739  1.0000
  C   C1640     1.0  0.85175  0.61460  0.16141  1.0000
  C   C1641     1.0  0.84367  0.55017  0.15108  1.0000
  C   C1642     1.0  0.85068  0.60649  0.18496  1.0000
  H   H2780     1.0  0.86432  0.55802  0.16843  1.0000
  H   H2781     1.0  0.85573  0.63783  0.16029  1.0000
  H   H2782     1.0  0.83950  0.61473  0.15589  1.0000
  H   H2783     1.0  0.87114  0.63481  0.11171  1.0000
  C   C1643     1.0  0.93364  0.49745  0.01712  1.0000
  H   H2784     1.0  0.88704  0.57779  0.17454  1.0000
  H   H2785     1.0  0.90198  0.85528  0.03771  1.0000
  H   H2786     1.0  0.97313  0.57247  0.06128  1.0000
  H   H2787     1.0  0.98829  0.51050  0.20855  1.0000
  H   H2788     1.0  0.99331  0.57830  0.31716  1.0000
  H   H2789     1.0  0.83899  0.59708  0.18891  1.0000
  H   H2790     1.0  0.91198  0.82549  0.15859  1.0000
  H   H2791     1.0  0.93791  0.98529  0.13746  1.0000
  H   H2792     1.0  0.84380  0.59417  0.12391  1.0000
  H   H2793     1.0  0.85324  0.86639  0.10092  1.0000
  C   C1644     1.0  0.77293  0.85747  0.16435  1.0000
  H   H2794     1.0  0.90401  0.77964  0.17303  1.0000
  C   C1645     1.0  0.99481  0.55470  0.18014  1.0000
  H   H2795     1.0  0.86992  0.79096  0.10390  1.0000
  H   H2796     1.0  0.88608  0.75821  0.14018  1.0000
  H   H2797     1.0  0.00219  0.96521  0.16183  1.0000
  H   H2798     1.0  0.99527  0.54187  0.22096  1.0000
  H   H2799     1.0  0.83705  0.73764  0.11668  1.0000
  H   H2800     1.0  0.96643  0.54086  0.03201  1.0000
  H   H2801     1.0  0.99446  0.57641  0.18816  1.0000
  C   C1646     1.0  0.88692  0.60078  0.16900  1.0000
  H   H2802     1.0  0.97705  0.61000  0.05477  1.0000
  C   C1647     1.0  0.98929  0.52676  0.04301  1.0000
  H   H2803     1.0  0.88863  0.79554  0.14718  1.0000
  H   H2804     1.0  0.94572  0.85465  0.03002  1.0000
  H   H2805     1.0  0.88199  0.61546  0.18117  1.0000
  H   H2806     1.0  0.84023  0.54748  0.13454  1.0000
  N   N119      1.0  0.84743  0.80453  0.09259  1.0000
  C   C1648     1.0  0.83960  0.77509  0.09583  1.0000
  C   C1649     1.0  0.84017  0.81872  0.07383  1.0000
  C   C1650     1.0  0.84439  0.82282  0.11200  1.0000
  C   C1651     1.0  0.86465  0.79926  0.08928  1.0000
  C   C1652     1.0  0.84401  0.75824  0.11583  1.0000
  C   C1653     1.0  0.84142  0.80169  0.05307  1.0000
  C   C1654     1.0  0.84312  0.85637  0.10919  1.0000
  C   C1655     1.0  0.87463  0.82576  0.08226  1.0000
  H   H2807     1.0  0.82671  0.77749  0.09617  1.0000
  H   H2808     1.0  0.84224  0.76001  0.08261  1.0000
  H   H2809     1.0  0.84528  0.84070  0.07062  1.0000
  H   H2810     1.0  0.82752  0.82256  0.07705  1.0000
  H   H2811     1.0  0.83310  0.81645  0.11966  1.0000
  H   H2812     1.0  0.85334  0.81869  0.12402  1.0000
  H   H2813     1.0  0.92430  0.97599  0.11767  1.0000
  C   C1656     1.0  0.98247  0.58930  0.06007  1.0000
  H   H2814     1.0  0.84342  0.52793  0.15818  1.0000
  C   C1657     1.0  0.00212  0.58707  0.24836  1.0000
  H   H2815     1.0  0.77004  0.88087  0.16699  1.0000
  H   H2816     1.0  0.95399  0.80658  0.01959  1.0000
  H   H2817     1.0  0.99070  0.59896  0.29329  1.0000
  H   H2818     1.0  0.00751  0.49784  0.07035  1.0000
  H   H2819     1.0  0.85240  0.63100  0.10042  1.0000
  S   S479      1.0  0.81633  0.51352  0.07594  1.0000
  H   H2820     1.0  0.94475  0.98041  0.11118  1.0000
  H   H2821     1.0  0.97483  0.51171  0.01759  1.0000
  H   H2822     1.0  0.77242  0.79933  0.21503  1.0000
  H   H2823     1.0  0.01234  0.98657  0.19271  1.0000
  H   H2824     1.0  0.78262  0.83089  0.20424  1.0000
  H   H2825     1.0  0.92738  0.82780  0.06243  1.0000
  H   H2826     1.0  0.00604  0.65694  0.29157  1.0000
  H   H2827     1.0  0.98185  0.54777  0.01284  1.0000
  H   H2828     1.0  0.80581  0.50419  0.11967  1.0000
  C   C1658     1.0  0.76515  0.87632  0.00951  1.0000
  C   C1659     1.0  0.97767  0.54441  0.17934  1.0000
  H   H2829     1.0  0.79647  0.53884  0.04352  1.0000
  C   C1660     1.0  0.91351  0.84424  0.03630  1.0000
  H   H2830     1.0  0.97624  0.52228  0.17279  1.0000
  C   C1661     1.0  0.99235  0.62650  0.32163  1.0000
  C   C1662     1.0  0.79055  0.98442  0.01053  1.0000
  C   C1663     1.0  0.77289  0.50030  0.05496  1.0000
  H   H2831     1.0  0.97188  0.54559  0.19502  1.0000
  H   H2832     1.0  0.91043  0.89675  0.01971  1.0000
  C   C1664     1.0  0.77281  0.53944  0.01704  1.0000
  H   H2833     1.0  0.76536  0.72221  0.28972  1.0000
  C   C1665     1.0  0.93496  0.98901  0.12082  1.0000
  H   H2834     1.0  0.00837  0.57176  0.00481  1.0000
  H   H2835     1.0  0.95993  0.50474  0.09356  1.0000
  H   H2836     1.0  0.98709  0.59372  0.07586  1.0000
  H   H2837     1.0  0.99732  0.54864  0.08037  1.0000
  H   H2838     1.0  0.89998  0.98415  0.08771  1.0000
  H   H2839     1.0  0.99159  0.68759  0.32851  1.0000
  N   N120      1.0  0.92245  0.85513  0.01720  1.0000
  H   H2840     1.0  0.76700  0.87655  0.02620  1.0000
  H   H2841     1.0  0.99871  0.55941  0.16377  1.0000
  H   H2842     1.0  0.77072  0.66136  0.25274  1.0000
  C   C1666     1.0  0.92246  0.88816  0.01743  1.0000
  H   H2843     1.0  0.93581  0.80162  0.03298  1.0000
  C   C1667     1.0  0.94130  0.81115  0.01867  1.0000
  H   H2844     1.0  0.00425  0.80694  0.32183  1.0000
  H   H2845     1.0  0.00539  0.59671  0.04670  1.0000
  H   H2846     1.0  0.00880  0.69682  0.31280  1.0000
  H   H2847     1.0  0.88984  0.84960  0.00722  1.0000
  H   H2848     1.0  0.77154  0.55178  0.03198  1.0000
  N   N121      1.0  0.00620  0.53463  0.19071  1.0000
  C   C1668     1.0  0.01299  0.54991  0.00879  1.0000
  C   C1669     1.0  0.01425  0.64120  0.29873  1.0000
  C   C1670     1.0  0.76538  0.76301  0.25379  1.0000
  H   H2849     1.0  0.76534  0.77571  0.26806  1.0000
  H   H2850     1.0  0.00301  0.49512  0.23786  1.0000
  H   H2851     1.0  0.01437  0.85100  0.32377  1.0000
  S   S480      1.0  0.99146  0.92438  0.64555  1.0000
  C   C1671     1.0  0.76994  0.89501  0.62386  1.0000
  Fe  Fe241     1.0  0.96958  0.89946  0.63825  1.0000
  S   S481      1.0  0.96598  0.86974  0.61042  1.0000
  S   S482      1.0  0.95429  0.93934  0.64072  1.0000
  S   S483      1.0  0.82597  0.93317  0.63114  1.0000
  Fe  Fe242     1.0  0.80875  0.96867  0.63805  1.0000
  H   H2852     1.0  0.93486  0.75494  0.54196  1.0000
  H   H2853     1.0  0.77954  0.81500  0.57183  1.0000
  S   S484      1.0  0.80818  0.49732  0.61163  1.0000
  Fe  Fe243     1.0  0.97481  0.70704  0.58529  1.0000
  S   S485      1.0  0.96143  0.72713  0.55941  1.0000
  S   S486      1.0  0.98715  0.73710  0.60806  1.0000
  Fe  Fe244     1.0  0.96743  0.64477  0.57093  1.0000
  S   S487      1.0  0.95362  0.66144  0.54355  1.0000
  S   S488      1.0  0.96788  0.59464  0.57384  1.0000
  Fe  Fe245     1.0  0.97311  0.69452  0.53838  1.0000
  S   S489      1.0  0.97948  0.71301  0.50579  1.0000
  Fe  Fe246     1.0  0.94319  0.69292  0.56661  1.0000
  S   S490      1.0  0.91842  0.70972  0.57068  1.0000
  S   S491      1.0  0.98776  0.67566  0.56396  1.0000
  S   S492      1.0  0.95581  0.67483  0.59426  1.0000
  Fe  Fe247     1.0  0.79598  0.68010  0.54341  1.0000
  S   S493      1.0  0.79260  0.69806  0.57614  1.0000
  S   S494      1.0  0.77320  0.67428  0.52544  1.0000
  Fe  Fe248     1.0  0.83160  0.67695  0.54873  1.0000
  S   S495      1.0  0.83046  0.69417  0.58146  1.0000
  S   S496      1.0  0.85467  0.66127  0.53475  1.0000
  Fe  Fe249     1.0  0.80990  0.66369  0.58540  1.0000
  S   S497      1.0  0.80736  0.63619  0.61495  1.0000
  Fe  Fe250     1.0  0.81345  0.72713  0.56936  1.0000
  S   S498      1.0  0.81680  0.77662  0.57422  1.0000
  S   S499      1.0  0.81204  0.64412  0.55338  1.0000
  S   S500      1.0  0.81577  0.71154  0.53585  1.0000
  C   C1672     1.0  0.99790  0.72508  0.49528  1.0000
  C   C1673     1.0  0.89040  0.50936  0.64752  1.0000
  H   H2854     1.0  0.90509  0.74825  0.48121  1.0000
  H   H2855     1.0  0.98818  0.73808  0.46583  1.0000
  H   H2856     1.0  0.80952  0.92920  0.59201  1.0000
  C   C1674     1.0  0.90095  0.69484  0.56094  1.0000
  C   C1675     1.0  0.88679  0.70796  0.56692  1.0000
  C   C1676     1.0  0.87258  0.69780  0.55904  1.0000
  C   C1677     1.0  0.87238  0.67462  0.54484  1.0000
  C   C1678     1.0  0.88656  0.66155  0.53870  1.0000
  C   C1679     1.0  0.90080  0.67137  0.54693  1.0000
  H   H2857     1.0  0.88682  0.72626  0.57764  1.0000
  H   H2858     1.0  0.86180  0.70834  0.56366  1.0000
  H   H2859     1.0  0.88649  0.64354  0.52775  1.0000
  H   H2860     1.0  0.91162  0.66095  0.54230  1.0000
  C   C1680     1.0  0.81131  0.83631  0.63201  1.0000
  C   C1681     1.0  0.81892  0.84633  0.61374  1.0000
  C   C1682     1.0  0.82077  0.82752  0.59640  1.0000
  C   C1683     1.0  0.81513  0.79848  0.59711  1.0000
  C   C1684     1.0  0.80783  0.78831  0.61553  1.0000
  C   C1685     1.0  0.80595  0.80714  0.63286  1.0000
  H   H2861     1.0  0.82328  0.86858  0.61291  1.0000
  H   H2862     1.0  0.82650  0.83552  0.58225  1.0000
  H   H2863     1.0  0.80342  0.76606  0.61631  1.0000
  H   H2864     1.0  0.92294  0.54639  0.64900  1.0000
  C   C1686     1.0  0.80920  0.53588  0.61294  1.0000
  C   C1687     1.0  0.80952  0.55212  0.59428  1.0000
  C   C1688     1.0  0.80913  0.58287  0.59468  1.0000
  C   C1689     1.0  0.80846  0.59765  0.61378  1.0000
  C   C1690     1.0  0.80869  0.58147  0.63247  1.0000
  C   C1691     1.0  0.80917  0.55068  0.63206  1.0000
  H   H2865     1.0  0.81006  0.54083  0.57943  1.0000
  H   H2866     1.0  0.80919  0.59500  0.58019  1.0000
  H   H2867     1.0  0.80848  0.59280  0.64730  1.0000
  H   H2868     1.0  0.80932  0.53845  0.64649  1.0000
  C   C1692     1.0  0.97120  0.53474  0.63198  1.0000
  C   C1693     1.0  0.97337  0.56518  0.63384  1.0000
  C   C1694     1.0  0.97218  0.58391  0.61633  1.0000
  C   C1695     1.0  0.96899  0.57232  0.59664  1.0000
  C   C1696     1.0  0.96674  0.54185  0.59480  1.0000
  C   C1697     1.0  0.96767  0.52321  0.61238  1.0000
  H   H2869     1.0  0.84141  0.56219  0.60664  1.0000
  H   H2870     1.0  0.97396  0.60726  0.61802  1.0000
  H   H2871     1.0  0.96421  0.53267  0.57964  1.0000
  S   S501      1.0  0.79511  0.94196  0.66179  1.0000
  C   C1698     1.0  0.97083  0.83242  0.61244  1.0000
  C   C1699     1.0  0.98396  0.82331  0.62328  1.0000
  C   C1700     1.0  0.98872  0.79388  0.62219  1.0000
  C   C1701     1.0  0.98016  0.77328  0.61076  1.0000
  C   C1702     1.0  0.96665  0.78227  0.60076  1.0000
  C   C1703     1.0  0.96217  0.81179  0.60128  1.0000
  H   H2872     1.0  0.99086  0.83925  0.63159  1.0000
  H   H2873     1.0  0.99941  0.78737  0.62946  1.0000
  H   H2874     1.0  0.95965  0.76659  0.59252  1.0000
  H   H2875     1.0  0.95195  0.81869  0.59298  1.0000
  C   C1704     1.0  0.78217  0.83844  0.56841  1.0000
  H   H2876     1.0  0.77777  0.56471  0.57977  1.0000
  C   C1705     1.0  0.85568  0.79350  0.65135  1.0000
  C   C1706     1.0  0.92562  0.76940  0.53614  1.0000
  C   C1707     1.0  0.78400  0.90078  0.60895  1.0000
  C   C1708     1.0  0.93257  0.71269  0.51143  1.0000
  C   C1709     1.0  0.93697  0.68735  0.49636  1.0000
  H   H2877     1.0  0.94355  0.72058  0.51858  1.0000
  H   H2878     1.0  0.92576  0.70248  0.52459  1.0000
  H   H2879     1.0  0.89149  0.69949  0.48307  1.0000
  H   H2880     1.0  0.94934  0.68127  0.49871  1.0000
  H   H2881     1.0  0.93600  0.69204  0.47952  1.0000
  H   H2882     1.0  0.93004  0.66737  0.50032  1.0000
  N   N122      1.0  0.91732  0.51020  0.62822  1.0000
  H   H2883     1.0  0.90779  0.73832  0.52936  1.0000
  H   H2884     1.0  0.79011  0.63002  0.50069  1.0000
  C   C1710     1.0  0.79718  0.89508  0.57437  1.0000
  Fe  Fe251     1.0  0.84026  0.95350  0.65638  1.0000
  S   S502      1.0  0.82379  0.99104  0.66139  1.0000
  H   H2885     1.0  0.97420  0.79571  0.51858  1.0000
  N   N123      1.0  0.78244  0.88900  0.58705  1.0000
  C   C1711     1.0  0.77811  0.63037  0.49580  1.0000
  H   H2886     1.0  0.01450  0.81254  0.49883  1.0000
  H   H2887     1.0  0.81466  0.92749  0.56500  1.0000
  H   H2888     1.0  0.01179  0.78654  0.34404  1.0000
  N   N124      1.0  0.86054  0.61611  0.60718  1.0000
  C   C1712     1.0  0.86365  0.64614  0.61623  1.0000
  C   C1713     1.0  0.87619  0.60306  0.60160  1.0000
  C   C1714     1.0  0.85261  0.59783  0.62407  1.0000
  C   C1715     1.0  0.85016  0.61970  0.58851  1.0000
  C   C1716     1.0  0.84963  0.66126  0.62708  1.0000
  C   C1717     1.0  0.88609  0.62048  0.58540  1.0000
  C   C1718     1.0  0.84985  0.56518  0.61932  1.0000
  C   C1719     1.0  0.85003  0.59462  0.57225  1.0000
  H   H2889     1.0  0.87308  0.64522  0.62798  1.0000
  H   H2890     1.0  0.86795  0.66163  0.60385  1.0000
  H   H2891     1.0  0.87517  0.58060  0.59535  1.0000
  H   H2892     1.0  0.88331  0.60064  0.61590  1.0000
  H   H2893     1.0  0.85938  0.59885  0.63876  1.0000
  H   H2894     1.0  0.84085  0.60668  0.62806  1.0000
  H   H2895     1.0  0.83789  0.62349  0.59372  1.0000
  H   H2896     1.0  0.85355  0.63981  0.57953  1.0000
  H   H2897     1.0  0.85246  0.68474  0.62961  1.0000
  C   C1720     1.0  0.76643  0.56720  0.64374  1.0000
  H   H2898     1.0  0.00744  0.65559  0.35124  1.0000
  H   H2899     1.0  0.89028  0.64167  0.59171  1.0000
  H   H2900     1.0  0.89664  0.60772  0.58099  1.0000
  H   H2901     1.0  0.87957  0.62437  0.57092  1.0000
  C   C1721     1.0  0.85384  0.82511  0.64315  1.0000
  H   H2902     1.0  0.79447  0.89128  0.61642  1.0000
  H   H2903     1.0  0.77206  0.90596  0.63903  1.0000
  H   H2904     1.0  0.83783  0.59040  0.56753  1.0000
  H   H2905     1.0  0.85471  0.57346  0.57747  1.0000
  H   H2906     1.0  0.85632  0.60152  0.55765  1.0000
  C   C1722     1.0  0.76768  0.60286  0.55036  1.0000
  H   H2907     1.0  0.99091  0.76635  0.53734  1.0000
  H   H2908     1.0  0.76811  0.89294  0.55974  1.0000
  H   H2909     1.0  0.92818  0.77950  0.48680  1.0000
  S   S503      1.0  0.97301  0.51223  0.65457  1.0000
  H   H2910     1.0  0.96569  0.49997  0.61077  1.0000
  H   H2911     1.0  0.98778  0.62495  0.33803  1.0000
  H   H2912     1.0  0.77149  0.94661  0.58810  1.0000
  C   C1723     1.0  0.91137  0.72874  0.48722  1.0000
  H   H2913     1.0  0.93694  0.74073  0.46003  1.0000
  H   H2914     1.0  0.76846  0.87136  0.62746  1.0000
  H   H2915     1.0  0.97526  0.82799  0.56076  1.0000
  C   C1724     1.0  0.98139  0.82347  0.54555  1.0000
  H   H2916     1.0  0.00807  0.86073  0.58747  1.0000
  H   H2917     1.0  0.89631  0.95008  0.62982  1.0000
  C   C1725     1.0  0.80466  0.92574  0.57628  1.0000
  H   H2918     1.0  0.90042  0.54525  0.63038  1.0000
  H   H2919     1.0  0.89556  0.87734  0.64059  1.0000
  H   H2920     1.0  0.78620  0.92471  0.60917  1.0000
  H   H2921     1.0  0.98283  0.84520  0.53773  1.0000
  C   C1726     1.0  0.94427  0.74872  0.47290  1.0000
  C   C1727     1.0  0.99867  0.73704  0.47492  1.0000
  N   N125      1.0  0.92368  0.73808  0.50242  1.0000
  H   H2922     1.0  0.85752  0.82447  0.62635  1.0000
  C   C1728     1.0  0.91527  0.75381  0.52009  1.0000
  H   H2923     1.0  0.90719  0.77064  0.51390  1.0000
  H   H2924     1.0  0.99875  0.51652  0.58599  1.0000
  H   H2925     1.0  0.93603  0.50944  0.60491  1.0000
  H   H2926     1.0  0.77255  0.70988  0.42826  1.0000
  C   C1729     1.0  0.93469  0.75974  0.49191  1.0000
  H   H2927     1.0  0.86343  0.89649  0.65300  1.0000
  H   H2928     1.0  0.77859  0.60616  0.54082  1.0000
  H   H2929     1.0  0.01036  0.83430  0.35488  1.0000
  S   S504      1.0  0.80857  0.85911  0.65425  1.0000
  H   H2930     1.0  0.94360  0.76757  0.50305  1.0000
  C   C1730     1.0  0.92643  0.55297  0.60405  1.0000
  H   H2931     1.0  0.95961  0.81999  0.52871  1.0000
  C   C1731     1.0  0.00863  0.81751  0.53186  1.0000
  H   H2932     1.0  0.92080  0.93711  0.64744  1.0000
  C   C1732     1.0  0.99529  0.77687  0.55172  1.0000
  H   H2933     1.0  0.78886  0.84676  0.60000  1.0000
  H   H2934     1.0  0.77184  0.94303  0.55998  1.0000
  H   H2935     1.0  0.88273  0.83381  0.63710  1.0000
  H   H2936     1.0  0.97604  0.57439  0.64895  1.0000
  H   H2937     1.0  0.79433  0.83904  0.56209  1.0000
  C   C1733     1.0  0.91019  0.93973  0.65657  1.0000
  H   H2938     1.0  0.93081  0.78990  0.52967  1.0000
  H   H2939     1.0  0.01016  0.84164  0.53064  1.0000
  H   H2940     1.0  0.86075  0.55306  0.61599  1.0000
  H   H2941     1.0  0.99147  0.86460  0.57164  1.0000
  H   H2942     1.0  0.96428  0.78775  0.54302  1.0000
  H   H2943     1.0  0.93434  0.56300  0.61557  1.0000
  C   C1734     1.0  0.86188  0.88128  0.62152  1.0000
  H   H2944     1.0  0.92408  0.98149  0.62137  1.0000
  H   H2945     1.0  0.00257  0.58894  0.35180  1.0000
  H   H2946     1.0  0.78843  0.56188  0.55570  1.0000
  H   H2947     1.0  0.93193  0.55693  0.58838  1.0000
  C   C1735     1.0  0.96938  0.80550  0.53310  1.0000
  C   C1736     1.0  0.89625  0.94695  0.64661  1.0000
  Fe  Fe252     1.0  0.97577  0.96322  0.65088  1.0000
  C   C1737     1.0  0.89891  0.70721  0.49602  1.0000
  H   H2948     1.0  0.91829  0.77566  0.54995  1.0000
  H   H2949     1.0  0.83903  0.66033  0.61754  1.0000
  Fe  Fe253     1.0  0.81385  0.90800  0.65668  1.0000
  H   H2950     1.0  0.89095  0.71779  0.50761  1.0000
  H   H2951     1.0  0.95279  0.73183  0.47754  1.0000
  H   H2952     1.0  0.85031  0.77820  0.64002  1.0000
  C   C1738     1.0  0.76834  0.90084  0.57618  1.0000
  H   H2953     1.0  0.84441  0.55463  0.63341  1.0000
  H   H2954     1.0  0.84114  0.82973  0.64335  1.0000
  H   H2955     1.0  0.80017  0.79907  0.64697  1.0000
  H   H2956     1.0  0.80649  0.87950  0.57885  1.0000
  H   H2957     1.0  0.77707  0.55411  0.64151  1.0000
  H   H2958     1.0  0.90416  0.68759  0.50316  1.0000
  C   C1739     1.0  0.88227  0.95007  0.65819  1.0000
  C   C1740     1.0  0.01161  0.72386  0.50676  1.0000
  H   H2959     1.0  0.85363  0.86867  0.61183  1.0000
  H   H2960     1.0  0.95132  0.76726  0.46641  1.0000
  H   H2961     1.0  0.78143  0.59704  0.47224  1.0000
  H   H2962     1.0  0.77958  0.51163  0.55074  1.0000
  C   C1741     1.0  0.77315  0.61172  0.47963  1.0000
  H   H2963     1.0  0.86057  0.90470  0.61712  1.0000
  C   C1742     1.0  0.00338  0.82154  0.56937  1.0000
  H   H2964     1.0  0.89457  0.51540  0.61464  1.0000
  H   H2965     1.0  0.79668  0.94380  0.57261  1.0000
  C   C1743     1.0  0.00337  0.85524  0.57186  1.0000
  H   H2966     1.0  0.84134  0.98731  0.60532  1.0000
  C   C1744     1.0  0.89103  0.86901  0.65592  1.0000
  H   H2967     1.0  0.99425  0.81879  0.50379  1.0000
  H   H2968     1.0  0.91638  0.71851  0.47297  1.0000
  C   C1745     1.0  0.92697  0.52382  0.64530  1.0000
  C   C1746     1.0  0.87981  0.84274  0.65291  1.0000
  H   H2969     1.0  0.76987  0.64307  0.56831  1.0000
  H   H2970     1.0  0.79522  0.89132  0.55740  1.0000
  C   C1747     1.0  0.78040  0.85612  0.58890  1.0000
  C   C1748     1.0  0.85800  0.87766  0.64508  1.0000
  H   H2971     1.0  0.84700  0.65148  0.64269  1.0000
  H   H2972     1.0  0.87400  0.87494  0.61747  1.0000
  S   S505      1.0  0.86526  0.96011  0.64484  1.0000
  C   C1749     1.0  0.77702  0.55630  0.56349  1.0000
  C   C1750     1.0  0.90072  0.52097  0.62930  1.0000
  H   H2973     1.0  0.78252  0.70167  0.46261  1.0000
  H   H2974     1.0  0.01129  0.71442  0.52230  1.0000
  N   N126      1.0  0.99711  0.80963  0.54915  1.0000
  H   H2975     1.0  0.00059  0.75166  0.65573  1.0000
  H   H2976     1.0  0.77334  0.65849  0.42289  1.0000
  C   C1751     1.0  0.01205  0.66018  0.33516  1.0000
  C   C1752     1.0  0.01288  0.74774  0.46616  1.0000
  H   H2977     1.0  0.98634  0.77199  0.56414  1.0000
  H   H2978     1.0  0.78472  0.51525  0.57737  1.0000
  H   H2979     1.0  0.87844  0.51826  0.64608  1.0000
  H   H2980     1.0  0.91512  0.56458  0.60427  1.0000
  H   H2981     1.0  0.99656  0.81250  0.58288  1.0000
  N   N127      1.0  0.86253  0.84878  0.65469  1.0000
  H   H2982     1.0  0.93936  0.52641  0.63999  1.0000
  H   H2983     1.0  0.77442  0.56208  0.52180  1.0000
  C   C1753     1.0  0.92435  0.51959  0.60737  1.0000
  H   H2984     1.0  0.84521  0.88124  0.64722  1.0000
  C   C1754     1.0  0.00759  0.51391  0.59831  1.0000
  C   C1755     1.0  0.76761  0.64976  0.50530  1.0000
  H   H2985     1.0  0.91716  0.51181  0.59418  1.0000
  H   H2986     1.0  0.86806  0.78715  0.65278  1.0000
  C   C1756     1.0  0.76997  0.61906  0.57125  1.0000
  H   H2987     1.0  0.77052  0.67039  0.45820  1.0000
  H   H2988     1.0  0.77400  0.84568  0.55627  1.0000
  H   H2989     1.0  0.01408  0.76568  0.57351  1.0000
  C   C1757     1.0  0.01004  0.75986  0.55767  1.0000
  H   H2990     1.0  0.00766  0.70649  0.33975  1.0000
  H   H2991     1.0  0.00187  0.51589  0.61386  1.0000
  H   H2992     1.0  0.01095  0.86641  0.56005  1.0000
  H   H2993     1.0  0.76870  0.85031  0.59562  1.0000
  H   H2994     1.0  0.78149  0.61407  0.57797  1.0000
  H   H2995     1.0  0.76958  0.58921  0.63739  1.0000
  C   C1758     1.0  0.76660  0.93443  0.57483  1.0000
  H   H2996     1.0  0.89462  0.51660  0.66289  1.0000
  H   H2997     1.0  0.00707  0.73614  0.55838  1.0000
  H   H2998     1.0  0.93183  0.99024  0.65587  1.0000
  C   C1759     1.0  0.77619  0.52257  0.56562  1.0000
  S   S506      1.0  0.79814  0.99082  0.61016  1.0000
  H   H2999     1.0  0.01323  0.75690  0.45052  1.0000
  H   H3000     1.0  0.00279  0.78335  0.50894  1.0000
  C   C1760     1.0  0.00459  0.80727  0.50973  1.0000
  C   C1761     1.0  0.77029  0.69443  0.46025  1.0000
  C   C1762     1.0  0.01474  0.59713  0.35067  1.0000
  S   S507      1.0  0.97202  0.95210  0.68506  1.0000
  H   H3001     1.0  0.79408  0.49956  0.72911  1.0000
  H   H3002     1.0  0.00140  0.51961  0.82569  1.0000
  S   S508      1.0  0.92785  0.92863  0.69150  1.0000
  Fe  Fe254     1.0  0.98623  0.91144  0.67923  1.0000
  H   H3003     1.0  0.79241  0.95770  0.76480  1.0000
  C   C1763     1.0  0.79262  0.96032  0.78205  1.0000
  Fe  Fe255     1.0  0.81126  0.96209  0.68509  1.0000
  C   C1764     1.0  0.92811  0.50700  0.66619  1.0000
  H   H3004     1.0  0.92341  0.89823  0.98341  1.0000
  C   C1765     1.0  0.00024  0.75875  0.68985  1.0000
  C   C1766     1.0  0.77631  0.88903  0.99593  1.0000
  C   C1767     1.0  0.78146  0.53837  0.68210  1.0000
  S   S509      1.0  0.82921  0.92589  0.68196  1.0000
  H   H3005     1.0  0.84388  0.85006  0.67803  1.0000
  C   C1768     1.0  0.99437  0.81184  0.68484  1.0000
  S   S510      1.0  0.80411  0.98248  0.71659  1.0000
  H   H3006     1.0  0.76730  0.94857  0.99272  1.0000
  H   H3007     1.0  0.89636  0.93619  0.70671  1.0000
  H   H3008     1.0  0.76678  0.95788  0.75805  1.0000
  C   C1769     1.0  0.00495  0.85069  0.75223  1.0000
  C   C1770     1.0  0.00077  0.86717  0.73446  1.0000
  H   H3009     1.0  0.99589  0.84134  0.76228  1.0000
  H   H3010     1.0  0.98861  0.87047  0.73097  1.0000
  H   H3011     1.0  0.99673  0.92706  0.77259  1.0000
  H   H3012     1.0  0.87164  0.94849  0.68899  1.0000
  H   H3013     1.0  0.85772  0.86870  0.70760  1.0000
  H   H3014     1.0  0.76560  0.91956  0.76108  1.0000
  H   H3015     1.0  0.00612  0.55220  0.81137  1.0000
  H   H3016     1.0  0.96922  0.81829  0.68678  1.0000
  H   H3017     1.0  0.99195  0.75356  0.70298  1.0000
  C   C1771     1.0  0.91035  0.93603  0.67829  1.0000
  H   H3018     1.0  0.00538  0.55771  0.85093  1.0000
  H   H3019     1.0  0.01429  0.81888  0.71537  1.0000
  H   H3020     1.0  0.78201  0.89839  0.96356  1.0000
  C   C1772     1.0  0.89633  0.93895  0.68988  1.0000
  H   H3021     1.0  0.77224  0.97185  0.70232  1.0000
  C   C1773     1.0  0.85685  0.84789  0.67720  1.0000
  C   C1774     1.0  0.77693  0.51842  0.75040  1.0000
  H   H3022     1.0  0.94224  0.89868  0.99580  1.0000
  N   N128      1.0  0.00638  0.78973  0.69123  1.0000
  H   H3023     1.0  0.80475  0.95566  0.78677  1.0000
  C   C1775     1.0  0.89804  0.85518  0.99415  1.0000
  C   C1776     1.0  0.01066  0.79575  0.71354  1.0000
  H   H3024     1.0  0.99890  0.83451  0.68689  1.0000
  H   H3025     1.0  0.01373  0.94818  0.77515  1.0000
  C   C1777     1.0  0.88231  0.94586  0.67988  1.0000
  C   C1778     1.0  0.01140  0.91030  0.79721  1.0000
  C   C1779     1.0  0.01234  0.87877  0.72100  1.0000
  H   H3026     1.0  0.00404  0.96276  0.81631  1.0000
  H   H3027     1.0  0.76889  0.88165  0.79853  1.0000
  Fe  Fe256     1.0  0.95133  0.92585  0.67430  1.0000
  C   C1780     1.0  0.97868  0.81102  0.69718  1.0000
  C   C1781     1.0  0.77354  0.88857  0.97426  1.0000
  S   S511      1.0  0.96517  0.88408  0.67128  1.0000
  C   C1782     1.0  0.86365  0.87097  0.69205  1.0000
  C   C1783     1.0  0.99229  0.75058  0.66922  1.0000
  C   C1784     1.0  0.78141  0.93848  0.79327  1.0000
  H   H3028     1.0  0.78598  0.53023  0.66690  1.0000
  C   C1785     1.0  0.77169  0.98617  0.71577  1.0000
  H   H3029     1.0  0.00076  0.91453  0.80698  1.0000
  H   H3030     1.0  0.84930  0.79007  0.66645  1.0000
  H   H3031     1.0  0.88620  0.88735  0.66503  1.0000
  H   H3032     1.0  0.98811  0.72753  0.67023  1.0000
  H   H3033     1.0  0.87623  0.86730  0.69467  1.0000
  H   H3034     1.0  0.89788  0.87915  0.99132  1.0000
  H   H3035     1.0  0.80462  0.55643  0.68664  1.0000
  C   C1786     1.0  0.00937  0.92540  0.77583  1.0000
  C   C1787     1.0  0.76944  0.72244  0.97586  1.0000
  H   H3036     1.0  0.00949  0.60409  0.83744  1.0000
  H   H3037     1.0  0.76979  0.70301  0.96552  1.0000
  H   H3038     1.0  0.78504  0.53411  0.75678  1.0000
  H   H3039     1.0  0.90149  0.86154  0.66439  1.0000
  H   H3040     1.0  0.92189  0.84827  0.98362  1.0000
  H   H3041     1.0  0.77239  0.78620  0.96873  1.0000
  H   H3042     1.0  0.91669  0.50149  0.67348  1.0000
  H   H3043     1.0  0.86157  0.89373  0.68684  1.0000
  H   H3044     1.0  0.99201  0.81083  0.66780  1.0000
  S   S512      1.0  0.00796  0.89703  0.69715  1.0000
  H   H3045     1.0  0.78344  0.51987  0.69310  1.0000
  H   H3046     1.0  0.98193  0.76421  0.66613  1.0000
  H   H3047     1.0  0.76899  0.78042  0.94083  1.0000
  H   H3048     1.0  0.78424  0.93810  0.81021  1.0000
  H   H3049     1.0  0.85954  0.82648  0.68457  1.0000
  H   H3050     1.0  0.77720  0.73951  0.96909  1.0000
  H   H3051     1.0  0.78883  0.97369  0.99525  1.0000
  H   H3052     1.0  0.79062  0.56950  0.70524  1.0000
  H   H3053     1.0  0.01356  0.90949  0.83839  1.0000
  C   C1788     1.0  0.79233  0.56368  0.68850  1.0000
  H   H3054     1.0  0.97518  0.78895  0.70269  1.0000
  H   H3055     1.0  0.97907  0.82585  0.71091  1.0000
  H   H3056     1.0  0.01056  0.88641  0.79394  1.0000
  H   H3057     1.0  0.79096  0.58329  0.67848  1.0000
  H   H3058     1.0  0.77792  0.98557  0.81986  1.0000
  C   C1789     1.0  0.76507  0.98352  0.81906  1.0000
  H   H3059     1.0  0.94567  0.49492  0.97088  1.0000
  H   H3060     1.0  0.78479  0.91653  0.78731  1.0000
  H   H3061     1.0  0.79036  0.52098  0.98581  1.0000
  H   H3062     1.0  0.89343  0.84468  0.97986  1.0000
  C   C1790     1.0  0.01049  0.96705  0.99560  1.0000
  H   H3063     1.0  0.77453  0.71561  0.99096  1.0000
  H   H3064     1.0  0.79025  0.98343  0.78614  1.0000
  H   H3065     1.0  0.00032  0.79308  0.72423  1.0000
  H   H3066     1.0  0.92742  0.51182  0.96604  1.0000
  H   H3067     1.0  0.93460  0.52062  0.67752  1.0000
  H   H3068     1.0  0.00985  0.74275  0.69174  1.0000
  H   H3069     1.0  0.88312  0.82542  0.66428  1.0000
  C   C1791     1.0  0.78208  0.49889  0.73465  1.0000
  C   C1792     1.0  0.01088  0.53572  0.82224  1.0000
  H   H3070     1.0  0.01177  0.57623  0.88179  1.0000
  H   H3071     1.0  0.01445  0.95841  0.84068  1.0000
  H   H3072     1.0  0.76534  0.59152  0.67272  1.0000
