data_image0
_chemical_formula_structural       H2CS2HC2H4CHFeH2CHCHNC2H2SCHCHCNH2CH2CH7C4H6CH2CHSHCFeHSHCH4SFeHC3SC2HSHC3NH4FeC2HSC2HCH3FeS2FeS2H2SHC6HCH10FeH6CH5FeNCHC3H3CHSHC2SH2CHC2HCNHC4HCSCH4CHCSFeS2FeS2H4CHCH4C6H2CNC4H3CH4CH3SCNCHCH3FeH2SH5CH2CHC2H2CHFeH7CHCSCHSH3CHS2H2C3H2FeH3CHFeHCHCHCHSHSCHCH6CFeH3SHC3HC2HNHCHFeH6C2H3CH2C2H3C2HSH3SHSH6CHNC3HCHCHCH3C2H2FeH4CFeSHSH2CH2CH2CSH4FeHC2H2CSH2CH2C2H4CH2C2HCHFeC5FeS2FeS2NH3CH3SC6H5C2H5C4H4SH2CH3NC3H4CH11CSC2HSCHCH2CHCHFe2S2H6FeS2H3CH2C7H3FeCH3C3HFeHCHC3HNCHCH2C2H6CHCH4CH7SHSCH2NSHCH2SCHNFeHSFeHC3H4C2H4C2H4CH3CHCH4NH2CS2CHC5SH3CS2C2FeH3CHCH3CSHSH2NCH2CH4CH3SFeSHCFeC4HC3
_chemical_formula_sum              "H384 C224 S64 Fe32 N16"
_cell_length_a       34.5716
_cell_length_b       34.5293
_cell_length_c       24.6582
_cell_angle_alpha    89.759
_cell_angle_beta     90.2895
_cell_angle_gamma    90.1827

_space_group_name_H-M_alt    "P 1"
_space_group_IT_number       1

loop_
  _space_group_symop_operation_xyz
  'x, y, z'

loop_
  _atom_site_type_symbol
  _atom_site_label
  _atom_site_symmetry_multiplicity
  _atom_site_fract_x
  _atom_site_fract_y
  _atom_site_fract_z
  _atom_site_occupancy
  H   H1        1.0  0.33106  0.24575  0.21087  1.0000
  H   H2        1.0  0.33476  0.24044  0.08662  1.0000
  C   C1        1.0  0.39632  0.28707  0.12434  1.0000
  S   S1        1.0  0.41406  0.19566  0.04578  1.0000
  S   S2        1.0  0.47932  0.18083  0.35075  1.0000
  H   H3        1.0  0.40747  0.25386  0.25520  1.0000
  C   C2        1.0  0.46649  0.20417  0.19060  1.0000
  C   C3        1.0  0.46186  0.18881  0.24306  1.0000
  H   H4        1.0  0.46938  0.07683  0.42212  1.0000
  H   H5        1.0  0.44837  0.19403  0.15776  1.0000
  H   H6        1.0  0.44007  0.16688  0.25041  1.0000
  H   H7        1.0  0.44212  0.00777  0.01617  1.0000
  C   C4        1.0  0.37800  0.30445  0.21865  1.0000
  H   H8        1.0  0.46069  0.06545  0.26067  1.0000
  Fe  Fe1       1.0  0.47055  0.22751  0.04274  1.0000
  H   H9        1.0  0.41800  0.26451  0.13490  1.0000
  H   H10       1.0  0.40075  0.01183  0.40464  1.0000
  C   C5        1.0  0.35036  0.24696  0.17488  1.0000
  H   H11       1.0  0.43938  0.28614  0.21825  1.0000
  C   C6        1.0  0.41352  0.28447  0.24443  1.0000
  H   H12       1.0  0.47061  0.07351  0.13251  1.0000
  N   N1        1.0  0.48558  0.02232  0.38545  1.0000
  C   C7        1.0  0.49468  0.23248  0.18092  1.0000
  C   C8        1.0  0.32825  0.22801  0.12700  1.0000
  H   H13       1.0  0.37521  0.22767  0.18483  1.0000
  H   H14       1.0  0.33590  0.19681  0.12499  1.0000
  S   S3        1.0  0.49920  0.17322  0.50100  1.0000
  C   C9        1.0  0.46183  0.03342  0.33635  1.0000
  H   H15       1.0  0.29656  0.22880  0.13398  1.0000
  C   C10       1.0  0.48531  0.20167  0.28607  1.0000
  H   H16       1.0  0.43441  0.04756  0.34853  1.0000
  C   C11       1.0  0.41858  0.32541  0.11572  1.0000
  N   N2        1.0  0.36414  0.28792  0.16547  1.0000
  H   H17       1.0  0.44661  0.11712  0.11380  1.0000
  H   H18       1.0  0.42443  0.03691  0.46073  1.0000
  C   C12       1.0  0.47148  0.10543  0.13739  1.0000
  H   H19       1.0  0.38516  0.27855  0.08373  1.0000
  H   H20       1.0  0.32270  0.30363  0.10281  1.0000
  C   C13       1.0  0.49493  0.05734  0.41955  1.0000
  H   H21       1.0  0.45344  0.00698  0.31313  1.0000
  H   H22       1.0  0.46673  0.11316  0.18033  1.0000
  H   H23       1.0  0.28175  0.28629  0.18554  1.0000
  H   H24       1.0  0.42117  0.29944  0.28283  1.0000
  H   H25       1.0  0.44053  0.32096  0.08356  1.0000
  H   H26       1.0  0.35484  0.30267  0.24971  1.0000
  H   H27       1.0  0.48308  0.09151  0.31440  1.0000
  C   C14       1.0  0.48027  0.06224  0.29627  1.0000
  C   C15       1.0  0.33191  0.31306  0.14385  1.0000
  C   C16       1.0  0.29509  0.31508  0.17878  1.0000
  C   C17       1.0  0.42196  0.00925  0.43831  1.0000
  H   H28       1.0  0.30058  0.32958  0.21811  1.0000
  H   H29       1.0  0.50094  0.04808  0.46186  1.0000
  H   H30       1.0  0.27331  0.33301  0.15688  1.0000
  H   H31       1.0  0.43469  0.33457  0.15246  1.0000
  H   H32       1.0  0.46834  0.15611  0.80460  1.0000
  H   H33       1.0  0.47317  0.06982  0.83986  1.0000
  C   C18       1.0  0.46312  0.12488  0.79557  1.0000
  H   H34       1.0  0.48751  0.06636  0.68700  1.0000
  H   H35       1.0  0.41423  0.06891  0.75639  1.0000
  C   C19       1.0  0.28151  0.30934  0.98912  1.0000
  H   H36       1.0  0.40136  0.12556  0.70383  1.0000
  S   S4        1.0  0.42051  0.18717  0.91357  1.0000
  H   H37       1.0  0.41524  0.17096  0.73521  1.0000
  C   C20       1.0  0.46695  0.24347  0.77081  1.0000
  Fe  Fe2       1.0  0.39841  0.23183  0.97264  1.0000
  H   H38       1.0  0.47919  0.16855  0.69629  1.0000
  S   S5        1.0  0.43607  0.08935  0.99707  1.0000
  H   H39       1.0  0.49201  0.05341  0.75503  1.0000
  C   C21       1.0  0.47615  0.05299  0.57371  1.0000
  H   H40       1.0  0.42709  0.25733  0.70582  1.0000
  H   H41       1.0  0.44552  0.24611  0.80242  1.0000
  H   H42       1.0  0.46166  0.11024  0.88119  1.0000
  H   H43       1.0  0.43122  0.12172  0.79574  1.0000
  S   S6        1.0  0.47022  0.25225  0.60653  1.0000
  Fe  Fe3       1.0  0.47678  0.21937  0.91980  1.0000
  H   H44       1.0  0.49865  0.11115  0.57066  1.0000
  C   C22       1.0  0.45660  0.24987  0.71618  1.0000
  C   C23       1.0  0.47532  0.05706  0.98909  1.0000
  C   C24       1.0  0.32150  0.30240  0.98629  1.0000
  S   S7        1.0  0.45352  0.26653  0.97326  1.0000
  C   C25       1.0  0.42062  0.15104  0.70081  1.0000
  C   C26       1.0  0.48411  0.24584  0.67488  1.0000
  H   H45       1.0  0.43346  0.02531  0.73225  1.0000
  S   S8        1.0  0.33774  0.25676  0.96313  1.0000
  H   H46       1.0  0.46847  0.12737  0.65651  1.0000
  C   C27       1.0  0.47507  0.07254  0.72750  1.0000
  C   C28       1.0  0.43327  0.05707  0.72472  1.0000
  C   C29       1.0  0.46381  0.14031  0.69721  1.0000
  N   N3        1.0  0.48041  0.11469  0.74138  1.0000
  H   H47       1.0  0.41229  0.16713  0.66339  1.0000
  H   H48       1.0  0.44686  0.06218  0.58182  1.0000
  H   H49       1.0  0.42036  0.06241  0.68401  1.0000
  H   H50       1.0  0.26142  0.28714  0.97594  1.0000
  Fe  Fe4       1.0  0.44169  0.15446  0.98689  1.0000
  C   C30       1.0  0.47803  0.10137  0.84466  1.0000
  C   C31       1.0  0.48432  0.01341  0.56882  1.0000
  H   H51       1.0  0.37803  0.32663  0.00047  1.0000
  S   S9        1.0  0.49922  0.18382  0.98958  1.0000
  C   C32       1.0  0.47010  0.01780  0.00236  1.0000
  C   C33       1.0  0.34719  0.33136  0.00323  1.0000
  H   H52       1.0  0.01703  0.53094  0.37801  1.0000
  C   C34       1.0  0.33285  0.36608  0.02521  1.0000
  H   H53       1.0  0.09171  0.44317  0.41764  1.0000
  H   H54       1.0  0.24550  0.48187  0.30474  1.0000
  H   H55       1.0  0.35456  0.61072  0.34976  1.0000
  Fe  Fe5       1.0  0.20936  0.55047  0.47924  1.0000
  S   S10       1.0  0.23133  0.51615  0.40822  1.0000
  S   S11       1.0  0.18979  0.61230  0.47717  1.0000
  Fe  Fe6       1.0  0.19508  0.52866  0.10169  1.0000
  S   S12       1.0  0.17501  0.46694  0.10709  1.0000
  S   S13       1.0  0.19019  0.57148  0.17025  1.0000
  H   H56       1.0  0.22907  0.50265  0.21077  1.0000
  H   H57       1.0  0.30976  0.55885  0.44227  1.0000
  S   S14       1.0  0.24710  0.51502  0.05163  1.0000
  H   H58       1.0  0.17922  0.60705  0.27312  1.0000
  C   C35       1.0  0.22078  0.53232  0.34222  1.0000
  C   C36       1.0  0.20204  0.56756  0.33318  1.0000
  C   C37       1.0  0.19361  0.57966  0.28004  1.0000
  C   C38       1.0  0.20292  0.55612  0.23584  1.0000
  C   C39       1.0  0.22162  0.52083  0.24478  1.0000
  C   C40       1.0  0.23092  0.50916  0.29792  1.0000
  H   H59       1.0  0.19399  0.58550  0.36698  1.0000
  C   C41       1.0  0.29134  0.61825  0.42391  1.0000
  H   H60       1.0  0.26542  0.60100  0.41178  1.0000
  H   H61       1.0  0.04638  0.53161  0.17478  1.0000
  H   H62       1.0  0.08016  0.60898  0.36079  1.0000
  H   H63       1.0  0.02593  0.60080  0.02199  1.0000
  H   H64       1.0  0.24876  0.63679  0.33729  1.0000
  H   H65       1.0  0.03449  0.49292  0.42291  1.0000
  H   H66       1.0  0.35287  0.38782  0.03992  1.0000
  H   H67       1.0  0.32520  0.57082  0.28273  1.0000
  H   H68       1.0  0.39953  0.34916  0.10171  1.0000
  H   H69       1.0  0.33435  0.64131  0.30051  1.0000
  Fe  Fe7       1.0  0.22513  0.45350  0.05129  1.0000
  H   H70       1.0  0.28002  0.59511  0.28502  1.0000
  H   H71       1.0  0.29605  0.56542  0.34172  1.0000
  H   H72       1.0  0.11963  0.56133  0.31183  1.0000
  H   H73       1.0  0.32348  0.59339  0.49216  1.0000
  H   H74       1.0  0.05891  0.45681  0.34113  1.0000
  H   H75       1.0  0.08472  0.48236  0.23203  1.0000
  C   C42       1.0  0.09229  0.55098  0.33065  1.0000
  H   H76       1.0  0.35020  0.59032  0.43088  1.0000
  H   H77       1.0  0.12270  0.45742  0.31070  1.0000
  H   H78       1.0  0.15195  0.49958  0.31159  1.0000
  H   H79       1.0  0.06948  0.55634  0.29951  1.0000
  H   H80       1.0  0.13543  0.48180  0.21961  1.0000
  Fe  Fe8       1.0  0.14148  0.48153  0.03085  1.0000
  N   N4        1.0  0.09486  0.50827  0.34467  1.0000
  C   C43       1.0  0.11209  0.50291  0.40059  1.0000
  H   H81       1.0  0.28134  0.63642  0.45818  1.0000
  C   C44       1.0  0.11857  0.46070  0.41924  1.0000
  C   C45       1.0  0.05588  0.48887  0.33917  1.0000
  C   C46       1.0  0.29282  0.37239  0.02989  1.0000
  H   H82       1.0  0.09404  0.51660  0.43226  1.0000
  H   H83       1.0  0.14068  0.51790  0.40313  1.0000
  H   H84       1.0  0.11290  0.52694  0.23228  1.0000
  C   C47       1.0  0.12185  0.48937  0.30479  1.0000
  H   H85       1.0  0.14197  0.44655  0.39601  1.0000
  S   S15       1.0  0.15930  0.54357  0.02867  1.0000
  H   H86       1.0  0.11177  0.58201  0.40381  1.0000
  C   C48       1.0  0.08560  0.57960  0.37765  1.0000
  C   C49       1.0  0.11255  0.49590  0.24405  1.0000
  S   S16       1.0  0.27653  0.41323  0.06642  1.0000
  H   H87       1.0  0.34183  0.34352  0.13877  1.0000
  H   H88       1.0  0.04289  0.49501  0.29874  1.0000
  C   C50       1.0  0.32075  0.58890  0.44766  1.0000
  H   H89       1.0  0.06064  0.57198  0.40332  1.0000
  C   C51       1.0  0.02517  0.50007  0.38110  1.0000
  C   C52       1.0  0.32647  0.62162  0.33471  1.0000
  H   H90       1.0  0.23634  0.34829  0.01504  1.0000
  C   C53       1.0  0.30523  0.58640  0.31018  1.0000
  N   N5        1.0  0.30448  0.64357  0.37740  1.0000
  H   H91       1.0  0.12830  0.46079  0.46226  1.0000
  C   C54       1.0  0.00356  0.57468  0.50409  1.0000
  C   C55       1.0  0.04944  0.54289  0.01991  1.0000
  C   C56       1.0  0.01975  0.57057  0.01427  1.0000
  C   C57       1.0  0.26899  0.66022  0.34988  1.0000
  H   H92       1.0  0.07799  0.55203  0.03223  1.0000
  C   C58       1.0  0.04179  0.50359  0.01059  1.0000
  S   S17       1.0  0.07812  0.46752  0.01538  1.0000
  C   C59       1.0  0.01842  0.54424  0.16137  1.0000
  H   H93       1.0  0.38465  0.33591  0.21455  1.0000
  H   H94       1.0  0.36448  0.65174  0.46230  1.0000
  H   H95       1.0  0.02303  0.57586  0.15775  1.0000
  H   H96       1.0  0.01194  0.53169  0.12109  1.0000
  C   C60       1.0  0.26719  0.34411  0.01089  1.0000
  H   H97       1.0  0.38787  0.65227  0.39605  1.0000
  C   C61       1.0  0.36800  0.66767  0.42355  1.0000
  S   S18       1.0  0.15943  0.52886  0.52804  1.0000
  Fe  Fe9       1.0  0.19511  0.54258  0.60155  1.0000
  S   S19       1.0  0.19227  0.49897  0.66984  1.0000
  S   S20       1.0  0.17506  0.60400  0.60868  1.0000
  Fe  Fe10      1.0  0.20899  0.52312  0.97887  1.0000
  S   S21       1.0  0.18921  0.46132  0.97556  1.0000
  S   S22       1.0  0.22982  0.55783  0.90691  1.0000
  H   H98       1.0  0.18040  0.46446  0.77360  1.0000
  H   H99       1.0  0.38484  0.38555  0.87025  1.0000
  H   H100      1.0  0.19398  0.48727  0.86693  1.0000
  H   H101      1.0  0.15523  0.60583  0.93674  1.0000
  C   C62       1.0  0.10375  0.55822  0.79807  1.0000
  H   H102      1.0  0.34437  0.47700  0.92200  1.0000
  C   C63       1.0  0.30447  0.45443  0.81405  1.0000
  H   H103      1.0  0.15142  0.59998  0.78944  1.0000
  H   H104      1.0  0.24230  0.59239  0.80262  1.0000
  H   H105      1.0  0.11629  0.48751  0.90332  1.0000
  H   H106      1.0  0.28466  0.42423  0.74005  1.0000
  C   C64       1.0  0.20297  0.51582  0.73524  1.0000
  C   C65       1.0  0.22020  0.55200  0.74347  1.0000
  C   C66       1.0  0.22870  0.56448  0.79638  1.0000
  C   C67       1.0  0.21941  0.54115  0.84115  1.0000
  C   C68       1.0  0.20175  0.50520  0.83281  1.0000
  C   C69       1.0  0.19396  0.49238  0.77995  1.0000
  H   H107      1.0  0.22734  0.57018  0.70905  1.0000
  H   H108      1.0  0.23383  0.42988  0.83226  1.0000
  C   C70       1.0  0.02075  0.58513  0.82036  1.0000
  N   N6        1.0  0.08639  0.55847  0.85409  1.0000
  C   C71       1.0  0.06802  0.51926  0.86375  1.0000
  C   C72       1.0  0.05508  0.58845  0.86019  1.0000
  C   C73       1.0  0.11718  0.56440  0.89697  1.0000
  C   C74       1.0  0.09604  0.48460  0.86853  1.0000
  H   H109      1.0  0.03026  0.58577  0.77750  1.0000
  H   H110      1.0  0.05054  0.51952  0.90155  1.0000
  H   H111      1.0  0.04744  0.51176  0.83058  1.0000
  C   C75       1.0  0.12081  0.59650  0.77636  1.0000
  H   H112      1.0  0.04302  0.58725  0.90207  1.0000
  H   H113      1.0  0.10744  0.55203  0.93640  1.0000
  H   H114      1.0  0.14395  0.54842  0.88653  1.0000
  H   H115      1.0  0.07892  0.45787  0.87633  1.0000
  C   C76       1.0  0.31180  0.43525  0.75868  1.0000
  H   H116      1.0  0.11249  0.47981  0.83071  1.0000
  H   H117      1.0  0.06643  0.61835  0.85599  1.0000
  H   H118      1.0  0.12797  0.53725  0.79638  1.0000
  S   S23       1.0  0.27779  0.65751  0.57272  1.0000
  C   C77       1.0  0.31347  0.48485  0.92280  1.0000
  N   N7        1.0  0.29342  0.42746  0.85982  1.0000
  C   C78       1.0  0.28615  0.45047  0.91081  1.0000
  H   H119      1.0  0.33083  0.47145  0.82357  1.0000
  C   C79       1.0  0.12932  0.60643  0.90986  1.0000
  H   H120      1.0  0.32323  0.45750  0.73020  1.0000
  H   H121      1.0  0.13743  0.62335  0.87360  1.0000
  H   H122      1.0  0.23292  0.39560  0.92599  1.0000
  Fe  Fe11      1.0  0.22539  0.61902  0.55364  1.0000
  H   H123      1.0  0.33364  0.41188  0.76133  1.0000
  H   H124      1.0  0.08313  0.54679  0.76717  1.0000
  S   S24       1.0  0.24719  0.55763  0.55232  1.0000
  H   H125      1.0  0.37422  0.43453  0.85818  1.0000
  H   H126      1.0  0.32353  0.37465  0.83651  1.0000
  H   H127      1.0  0.12009  0.59603  0.73127  1.0000
  H   H128      1.0  0.25679  0.46351  0.90953  1.0000
  H   H129      1.0  0.02393  0.51548  0.68061  1.0000
  C   C80       1.0  0.36478  0.40913  0.88206  1.0000
  H   H130      1.0  0.28146  0.47665  0.80782  1.0000
  H   H131      1.0  0.28671  0.43137  0.94726  1.0000
  C   C81       1.0  0.32295  0.39618  0.87001  1.0000
  H   H132      1.0  0.25982  0.38959  0.80715  1.0000
  C   C82       1.0  0.05092  0.52819  0.53484  1.0000
  C   C83       1.0  0.25593  0.40794  0.84367  1.0000
  H   H133      1.0  0.10631  0.62174  0.93250  1.0000
  H   H134      1.0  0.25479  0.35439  0.89282  1.0000
  C   C84       1.0  0.02244  0.49897  0.53334  1.0000
  H   H135      1.0  0.03004  0.46963  0.54464  1.0000
  Fe  Fe12      1.0  0.14159  0.59082  0.53187  1.0000
  H   H136      1.0  0.10411  0.62243  0.78755  1.0000
  H   H137      1.0  0.07985  0.52118  0.54801  1.0000
  H   H138      1.0  0.36883  0.41486  0.92604  1.0000
  H   H139      1.0  0.31446  0.37832  0.90573  1.0000
  H   H140      1.0  0.30731  0.49585  0.96414  1.0000
  H   H141      1.0  0.30795  0.50935  0.89446  1.0000
  H   H142      1.0  0.20857  0.37158  0.87186  1.0000
  C   C85       1.0  0.23749  0.38105  0.88662  1.0000
  H   H143      1.0  0.00425  0.56259  0.67190  1.0000
  C   C86       1.0  0.04186  0.56617  0.51952  1.0000
  S   S25       1.0  0.07754  0.60344  0.51799  1.0000
  C   C87       1.0  0.00420  0.49246  0.99554  1.0000
  H   H144      1.0  0.00312  0.55891  0.82862  1.0000
  S   S26       1.0  0.35060  0.81745  0.49294  1.0000
  H   H145      1.0  0.25935  0.71714  0.38812  1.0000
  H   H146      1.0  0.40951  0.98771  0.46696  1.0000
  H   H147      1.0  0.47729  0.98554  0.45626  1.0000
  C   C88       1.0  0.46160  0.99438  0.41877  1.0000
  H   H148      1.0  0.48675  0.78906  0.24171  1.0000
  S   S27       1.0  0.42726  0.89839  0.46363  1.0000
  S   S28       1.0  0.46802  0.81353  0.48689  1.0000
  H   H149      1.0  0.33436  0.69786  0.36328  1.0000
  H   H150      1.0  0.45624  0.96703  0.39591  1.0000
  C   C89       1.0  0.24464  0.68868  0.38370  1.0000
  C   C90       1.0  0.32867  0.67718  0.39721  1.0000
  C   C91       1.0  0.50149  0.81625  0.24891  1.0000
  H   H151      1.0  0.27350  0.78680  0.48643  1.0000
  H   H152      1.0  0.23727  0.67701  0.42426  1.0000
  Fe  Fe13      1.0  0.48509  0.87092  0.44930  1.0000
  H   H153      1.0  0.48489  0.81876  0.33338  1.0000
  H   H154      1.0  0.21691  0.69433  0.36215  1.0000
  H   H155      1.0  0.38263  0.69538  0.43410  1.0000
  C   C92       1.0  0.29168  0.76414  0.50297  1.0000
  H   H156      1.0  0.31291  0.69389  0.42845  1.0000
  Fe  Fe14      1.0  0.41135  0.84250  0.50634  1.0000
  H   H157      1.0  0.27699  0.67575  0.31175  1.0000
  C   C93       1.0  0.50036  0.83301  0.30086  1.0000
  H   H158      1.0  0.49665  0.96151  0.01037  1.0000
  C   C94       1.0  0.32466  0.74881  0.72805  1.0000
  H   H159      1.0  0.33414  0.72718  0.75885  1.0000
  C   C95       1.0  0.29884  0.72588  0.68799  1.0000
  H   H160      1.0  0.37949  0.74802  0.81449  1.0000
  S   S29       1.0  0.43048  0.86553  0.58751  1.0000
  H   H161      1.0  0.36996  0.72372  0.64611  1.0000
  S   S30       1.0  0.48959  0.82563  0.87839  1.0000
  C   C96       1.0  0.42340  0.75445  0.65527  1.0000
  H   H162      1.0  0.30616  0.76893  0.75168  1.0000
  C   C97       1.0  0.47522  0.83640  0.77100  1.0000
  H   H163      1.0  0.41853  0.77554  0.62193  1.0000
  H   H164      1.0  0.44823  0.84884  0.78434  1.0000
  H   H165      1.0  0.46173  0.84292  0.68634  1.0000
  H   H166      1.0  0.31963  0.84198  0.71132  1.0000
  H   H167      1.0  0.35918  0.81089  0.76925  1.0000
  H   H168      1.0  0.42419  0.74985  0.77623  1.0000
  C   C98       1.0  0.31348  0.82476  0.67444  1.0000
  Fe  Fe15      1.0  0.48788  0.83964  0.56632  1.0000
  H   H169      1.0  0.30917  0.84556  0.64039  1.0000
  H   H170      1.0  0.37176  0.81653  0.64836  1.0000
  H   H171      1.0  0.43962  0.72985  0.63758  1.0000
  S   S31       1.0  0.44612  0.97950  0.57539  1.0000
  H   H172      1.0  0.44240  0.76742  0.68657  1.0000
  C   C99       1.0  0.34712  0.79753  0.66012  1.0000
  C   C100      1.0  0.39987  0.76712  0.79239  1.0000
  C   C101      1.0  0.38517  0.73914  0.67938  1.0000
  H   H173      1.0  0.30983  0.69594  0.68238  1.0000
  C   C102      1.0  0.35479  0.74147  0.53076  1.0000
  C   C103      1.0  0.33786  0.70627  0.54775  1.0000
  H   H174      1.0  0.41270  0.78700  0.82301  1.0000
  N   N8        1.0  0.35913  0.76920  0.70382  1.0000
  H   H175      1.0  0.35588  0.68397  0.56551  1.0000
  C   C104      1.0  0.37967  0.79149  0.74791  1.0000
  H   H176      1.0  0.33911  0.78249  0.62203  1.0000
  Fe  Fe16      1.0  0.45238  0.91818  0.54305  1.0000
  H   H177      1.0  0.40186  0.81115  0.73033  1.0000
  H   H178      1.0  0.28585  0.80871  0.67919  1.0000
  H   H179      1.0  0.47603  0.94360  0.84697  1.0000
  H   H180      1.0  0.26883  0.72435  0.70376  1.0000
  H   H181      1.0  0.48576  0.91587  0.76325  1.0000
  H   H182      1.0  0.24385  0.72455  0.51625  1.0000
  C   C105      1.0  0.48290  0.83324  0.71545  1.0000
  C   C106      1.0  0.29777  0.69993  0.54304  1.0000
  H   H183      1.0  0.29618  0.73970  0.64765  1.0000
  H   H184      1.0  0.38558  0.74613  0.53535  1.0000
  H   H185      1.0  0.39233  0.71603  0.70938  1.0000
  C   C107      1.0  0.27479  0.72878  0.51957  1.0000
  H   H186      1.0  0.47204  0.93444  0.66937  1.0000
  H   H187      1.0  0.48567  0.96672  0.75353  1.0000
  C   C108      1.0  0.50099  0.99146  0.99899  1.0000
  C   C109      1.0  0.33161  0.77101  0.50945  1.0000
  H   H188      1.0  0.68696  0.26492  0.50145  1.0000
  H   H189      1.0  0.52206  0.11360  0.40532  1.0000
  H   H190      1.0  0.57891  0.15428  0.26820  1.0000
  C   C110      1.0  0.54560  0.13702  0.19752  1.0000
  C   C111      1.0  0.51326  0.23016  0.27649  1.0000
  H   H191      1.0  0.55451  0.07857  0.43107  1.0000
  S   S32       1.0  0.57880  0.18978  0.43035  1.0000
  H   H192      1.0  0.51127  0.11395  0.07153  1.0000
  H   H193      1.0  0.57788  0.10887  0.07117  1.0000
  H   H194      1.0  0.54120  0.16823  0.18859  1.0000
  S   S33       1.0  0.51904  0.26027  0.46130  1.0000
  H   H195      1.0  0.60972  0.17106  0.06959  1.0000
  S   S34       1.0  0.61698  0.30299  0.45890  1.0000
  H   H196      1.0  0.53962  0.26757  0.21682  1.0000
  H   H197      1.0  0.53140  0.24025  0.30948  1.0000
  H   H198      1.0  0.58536  0.10464  0.25151  1.0000
  H   H199      1.0  0.59260  0.18443  0.13499  1.0000
  H   H200      1.0  0.57557  0.06503  0.18217  1.0000
  H   H201      1.0  0.57634  0.03893  0.09474  1.0000
  C   C112      1.0  0.58528  0.16743  0.09827  1.0000
  H   H202      1.0  0.60739  0.11319  0.12945  1.0000
  N   N9        1.0  0.54572  0.11374  0.14590  1.0000
  C   C113      1.0  0.53001  0.08253  0.40229  1.0000
  C   C114      1.0  0.58204  0.13395  0.23362  1.0000
  C   C115      1.0  0.57997  0.12392  0.11102  1.0000
  H   H203      1.0  0.55943  0.18016  0.07845  1.0000
  C   C116      1.0  0.54805  0.07139  0.16040  1.0000
  H   H204      1.0  0.60875  0.14247  0.21193  1.0000
  C   C117      1.0  0.50917  0.12299  0.11467  1.0000
  H   H205      1.0  0.53579  0.01436  0.12615  1.0000
  C   C118      1.0  0.51784  0.24557  0.22404  1.0000
  H   H206      1.0  0.52082  0.12858  0.22362  1.0000
  H   H207      1.0  0.50837  0.05219  0.28068  1.0000
  H   H208      1.0  0.52529  0.06279  0.18973  1.0000
  C   C119      1.0  0.54712  0.04290  0.11244  1.0000
  C   C120      1.0  0.66296  0.32040  0.48035  1.0000
  H   H209      1.0  0.52712  0.05223  0.08013  1.0000
  H   H210      1.0  0.50460  0.15485  0.11241  1.0000
  Fe  Fe17      1.0  0.58244  0.24719  0.47468  1.0000
  H   H211      1.0  0.69954  0.31332  0.32756  1.0000
  H   H212      1.0  0.54056  0.07806  0.36070  1.0000
  H   H213      1.0  0.55743  0.01022  0.44058  1.0000
  H   H214      1.0  0.53928  0.01752  0.33958  1.0000
  C   C121      1.0  0.69229  0.29576  0.49863  1.0000
  Fe  Fe18      1.0  0.51520  0.20174  0.42240  1.0000
  S   S35       1.0  0.50210  0.25180  0.11560  1.0000
  H   H215      1.0  0.66525  0.29796  0.68016  1.0000
  S   S36       1.0  0.57319  0.21946  0.55647  1.0000
  H   H216      1.0  0.57708  0.12749  0.69986  1.0000
  H   H217      1.0  0.50890  0.10747  0.85364  1.0000
  C   C122      1.0  0.52211  0.23606  0.68869  1.0000
  H   H218      1.0  0.53776  0.10183  0.77338  1.0000
  H   H219      1.0  0.60113  0.27574  0.64110  1.0000
  C   C123      1.0  0.53267  0.23071  0.74312  1.0000
  H   H220      1.0  0.54345  0.23264  0.65759  1.0000
  H   H221      1.0  0.56222  0.22329  0.75336  1.0000
  C   C124      1.0  0.61642  0.30048  0.62158  1.0000
  S   S37       1.0  0.51980  0.22510  0.85154  1.0000
  H   H222      1.0  0.50988  0.32738  0.56488  1.0000
  H   H223      1.0  0.61404  0.29506  0.57730  1.0000
  H   H224      1.0  0.75191  0.29156  0.52470  1.0000
  H   H225      1.0  0.52886  0.15182  0.76273  1.0000
  Fe  Fe19      1.0  0.56253  0.16373  0.51154  1.0000
  H   H226      1.0  0.54344  0.30735  0.64495  1.0000
  C   C125      1.0  0.52339  0.12260  0.74521  1.0000
  C   C126      1.0  0.54253  0.04324  0.96760  1.0000
  H   H227      1.0  0.66981  0.26756  0.62239  1.0000
  H   H228      1.0  0.60565  0.28994  0.73121  1.0000
  C   C127      1.0  0.54622  0.12060  0.69148  1.0000
  S   S38       1.0  0.58022  0.10418  0.54242  1.0000
  H   H229      1.0  0.57065  0.05328  0.95445  1.0000
  H   H230      1.0  0.58117  0.02082  0.54437  1.0000
  C   C128      1.0  0.55187  0.02994  0.55267  1.0000
  H   H231      1.0  0.53504  0.00314  0.79524  1.0000
  H   H232      1.0  0.54557  0.09130  0.67342  1.0000
  C   C129      1.0  0.65977  0.29649  0.63591  1.0000
  C   C130      1.0  0.54331  0.06961  0.55501  1.0000
  H   H233      1.0  0.53622  0.14219  0.66106  1.0000
  H   H234      1.0  0.59814  0.32859  0.77764  1.0000
  H   H235      1.0  0.55921  0.31395  0.73461  1.0000
  H   H236      1.0  0.57781  0.03261  0.72768  1.0000
  C   C131      1.0  0.51165  0.06966  0.97125  1.0000
  H   H237      1.0  0.67799  0.31805  0.61447  1.0000
  H   H238      1.0  0.51613  0.09978  0.96093  1.0000
  C   C132      1.0  0.53744  0.00409  0.98194  1.0000
  C   C133      1.0  0.59103  0.31821  0.73616  1.0000
  H   H239      1.0  0.53915  0.00738  0.69550  1.0000
  C   C134      1.0  0.50512  0.23399  0.78428  1.0000
  H   H240      1.0  0.55623  0.31106  0.54350  1.0000
  Fe  Fe20      1.0  0.51024  0.23015  0.54116  1.0000
  C   C135      1.0  0.54137  0.33391  0.56668  1.0000
  C   C136      1.0  0.72912  0.31095  0.51163  1.0000
  C   C137      1.0  0.55460  0.33455  0.62643  1.0000
  C   C138      1.0  0.50544  0.08090  0.56671  1.0000
  C   C139      1.0  0.56559  0.00328  0.72033  1.0000
  Fe  Fe21      1.0  0.82876  0.52586  0.06657  1.0000
  S   S39       1.0  0.84369  0.58899  0.07221  1.0000
  S   S40       1.0  0.83443  0.48224  0.13456  1.0000
  Fe  Fe22      1.0  0.81408  0.50223  0.44439  1.0000
  S   S41       1.0  0.84744  0.44658  0.44570  1.0000
  S   S42       1.0  0.79090  0.53421  0.37140  1.0000
  N   N10       1.0  0.94653  0.54714  0.18922  1.0000
  H   H241      1.0  0.92462  0.60915  0.10912  1.0000
  H   H242      1.0  0.94568  0.55236  0.49046  1.0000
  H   H243      1.0  0.75524  0.46091  0.28034  1.0000
  C   C140      1.0  0.94966  0.61326  0.13687  1.0000
  H   H244      1.0  0.91834  0.47052  0.15538  1.0000
  H   H245      1.0  0.94965  0.54456  0.10109  1.0000
  H   H246      1.0  0.72526  0.47232  0.40043  1.0000
  S   S43       1.0  0.73902  0.63339  0.02115  1.0000
  C   C141      1.0  0.82347  0.49778  0.20018  1.0000
  C   C142      1.0  0.83661  0.47607  0.24477  1.0000
  C   C143      1.0  0.82838  0.48802  0.29779  1.0000
  C   C144      1.0  0.80585  0.52099  0.30621  1.0000
  C   C145      1.0  0.79300  0.54280  0.26159  1.0000
  C   C146      1.0  0.80215  0.53147  0.20862  1.0000
  H   H247      1.0  0.85334  0.45009  0.23821  1.0000
  H   H248      1.0  0.83856  0.47120  0.33196  1.0000
  H   H249      1.0  0.77556  0.56833  0.26800  1.0000
  H   H250      1.0  0.79199  0.54833  0.17431  1.0000
  H   H251      1.0  0.67523  0.48139  0.38905  1.0000
  C   C147      1.0  0.75156  0.41759  0.21781  1.0000
  C   C148      1.0  0.73550  0.43674  0.26951  1.0000
  H   H252      1.0  0.92619  0.48008  0.08566  1.0000
  H   H253      1.0  0.70873  0.49108  0.33580  1.0000
  H   H254      1.0  0.97633  0.60508  0.11533  1.0000
  H   H255      1.0  0.70838  0.45122  0.25563  1.0000
  H   H256      1.0  0.75950  0.44063  0.18821  1.0000
  C   C149      1.0  0.93671  0.48731  0.12707  1.0000
  C   C150      1.0  0.91951  0.53108  0.23171  1.0000
  C   C151      1.0  0.94329  0.59094  0.19048  1.0000
  C   C152      1.0  0.92655  0.54503  0.29044  1.0000
  H   H257      1.0  0.75489  0.39693  0.39551  1.0000
  H   H258      1.0  0.95394  0.53350  0.30747  1.0000
  H   H259      1.0  0.91382  0.60000  0.20362  1.0000
  H   H260      1.0  0.99686  0.54752  0.24202  1.0000
  S   S44       1.0  0.77801  0.53527  0.01165  1.0000
  H   H261      1.0  0.72572  0.34001  0.37752  1.0000
  H   H262      1.0  0.71272  0.40641  0.48706  1.0000
  C   C153      1.0  0.71493  0.37133  0.30002  1.0000
  H   H263      1.0  0.82032  0.38564  0.36711  1.0000
  H   H264      1.0  0.72926  0.39931  0.19778  1.0000
  H   H265      1.0  0.68954  0.37397  0.27220  1.0000
  N   N11       1.0  0.72794  0.41097  0.31827  1.0000
  C   C154      1.0  0.69522  0.42875  0.34985  1.0000
  C   C155      1.0  0.76288  0.40918  0.35522  1.0000
  C   C156      1.0  0.70198  0.47074  0.36940  1.0000
  H   H266      1.0  0.92066  0.49895  0.23353  1.0000
  H   H267      1.0  0.66799  0.42847  0.32540  1.0000
  H   H268      1.0  0.68888  0.41165  0.38701  1.0000
  H   H269      1.0  0.77410  0.43877  0.36391  1.0000
  C   C157      1.0  0.93328  0.53152  0.13505  1.0000
  H   H270      1.0  0.99610  0.60397  0.49244  1.0000
  H   H271      1.0  0.88907  0.53858  0.22117  1.0000
  H   H272      1.0  0.96347  0.60347  0.22113  1.0000
  H   H273      1.0  0.90287  0.53373  0.31654  1.0000
  H   H274      1.0  0.92603  0.57701  0.29406  1.0000
  H   H275      1.0  0.90254  0.53951  0.12741  1.0000
  H   H276      1.0  0.73761  0.35675  0.27588  1.0000
  H   H277      1.0  0.77778  0.40016  0.22504  1.0000
  H   H278      1.0  0.98776  0.50246  0.20999  1.0000
  H   H279      1.0  0.96706  0.47720  0.12951  1.0000
  H   H280      1.0  0.81082  0.39890  0.29872  1.0000
  C   C158      1.0  0.98703  0.53436  0.20323  1.0000
  S   S45       1.0  0.85424  0.53279  0.50180  1.0000
  C   C159      1.0  0.79763  0.38566  0.33506  1.0000
  C   C160      1.0  0.70724  0.37562  0.49021  1.0000
  H   H281      1.0  0.64798  0.37971  0.46282  1.0000
  S   S46       1.0  0.77172  0.48403  0.50859  1.0000
  C   C161      1.0  0.97489  0.54546  0.50301  1.0000
  H   H282      1.0  0.67513  0.35034  0.36333  1.0000
  C   C162      1.0  0.67057  0.36040  0.47672  1.0000
  H   H283      1.0  0.99840  0.48298  0.37354  1.0000
  H   H284      1.0  0.79026  0.35487  0.32778  1.0000
  C   C163      1.0  0.73695  0.35086  0.50693  1.0000
  H   H285      1.0  0.95150  0.64478  0.14538  1.0000
  C   C164      1.0  0.70339  0.34261  0.34530  1.0000
  H   H286      1.0  0.66302  0.66561  0.01791  1.0000
  Fe  Fe23      1.0  0.79502  0.59850  0.01172  1.0000
  Fe  Fe24      1.0  0.81939  0.52955  0.94277  1.0000
  S   S47       1.0  0.83433  0.59287  0.93893  1.0000
  S   S48       1.0  0.80634  0.48889  0.87364  1.0000
  H   H287      1.0  0.70410  0.63840  0.90950  1.0000
  H   H288      1.0  0.61549  0.42704  0.63924  1.0000
  H   H289      1.0  0.54573  0.36231  0.54642  1.0000
  H   H290      1.0  0.71378  0.57072  0.93235  1.0000
  H   H291      1.0  0.93621  0.57149  0.63535  1.0000
  H   H292      1.0  0.79554  0.45046  0.77217  1.0000
  Fe  Fe25      1.0  0.81491  0.50982  0.56666  1.0000
  S   S49       1.0  0.84788  0.45449  0.57791  1.0000
  S   S50       1.0  0.80058  0.55229  0.63308  1.0000
  H   H293      1.0  0.79333  0.47471  0.67722  1.0000
  H   H294      1.0  0.81059  0.59079  0.73455  1.0000
  H   H295      1.0  0.98609  0.52384  0.63219  1.0000
  C   C165      1.0  0.96799  0.43852  0.68706  1.0000
  H   H296      1.0  0.92080  0.53028  0.59446  1.0000
  H   H297      1.0  0.56766  0.41112  0.62053  1.0000
  C   C166      1.0  0.61488  0.36975  0.60066  1.0000
  C   C167      1.0  0.80442  0.50691  0.80707  1.0000
  C   C168      1.0  0.80885  0.54641  0.79639  1.0000
  C   C169      1.0  0.80701  0.56020  0.74281  1.0000
  C   C170      1.0  0.80139  0.53438  0.69974  1.0000
  C   C171      1.0  0.79762  0.49477  0.71032  1.0000
  C   C172      1.0  0.79883  0.48112  0.76399  1.0000
  H   H298      1.0  0.81421  0.56607  0.82944  1.0000
  H   H299      1.0  0.74367  0.63825  0.71352  1.0000
  H   H300      1.0  0.89175  0.55148  0.70811  1.0000
  Fe  Fe26      1.0  0.80756  0.43003  0.51416  1.0000
  C   C173      1.0  0.90103  0.52848  0.67981  1.0000
  H   H301      1.0  0.94627  0.51086  0.97710  1.0000
  H   H302      1.0  0.88967  0.54039  0.79343  1.0000
  H   H303      1.0  0.53819  0.35779  0.64718  1.0000
  C   C174      1.0  0.91294  0.48624  0.75716  1.0000
  C   C175      1.0  0.71069  0.60775  0.77752  1.0000
  C   C176      1.0  0.99649  0.53133  0.67315  1.0000
  H   H304      1.0  0.96007  0.55224  0.73773  1.0000
  Fe  Fe27      1.0  0.88138  0.57715  0.99932  1.0000
  H   H305      1.0  0.58968  0.37611  0.70478  1.0000
  C   C177      1.0  0.98203  0.55928  0.99972  1.0000
  H   H306      1.0  0.94514  0.47725  0.62721  1.0000
  C   C178      1.0  0.96734  0.52367  0.71963  1.0000
  C   C179      1.0  0.97462  0.52008  0.98989  1.0000
  C   C180      1.0  0.59840  0.41089  0.60840  1.0000
  H   H307      1.0  0.90963  0.45163  0.66257  1.0000
  N   N12       1.0  0.93066  0.50208  0.70559  1.0000
  C   C181      1.0  0.91290  0.55008  0.62773  1.0000
  H   H308      1.0  0.88764  0.56693  0.61277  1.0000
  C   C182      1.0  0.93714  0.46804  0.66855  1.0000
  H   H309      1.0  0.95758  0.42011  0.72095  1.0000
  H   H310      1.0  0.87444  0.51171  0.66966  1.0000
  C   C183      1.0  0.71506  0.62440  0.71974  1.0000
  C   C184      1.0  0.90781  0.51521  0.80427  1.0000
  H   H311      1.0  0.88406  0.47295  0.74862  1.0000
  H   H312      1.0  0.75609  0.58577  0.89722  1.0000
  H   H313      1.0  0.64650  0.37251  0.60819  1.0000
  H   H314      1.0  0.97397  0.41861  0.65280  1.0000
  H   H315      1.0  0.63591  0.35478  0.70201  1.0000
  H   H316      1.0  0.61313  0.36213  0.55691  1.0000
  C   C185      1.0  0.64850  0.66696  0.80798  1.0000
  H   H317      1.0  0.71996  0.55647  0.86344  1.0000
  C   C186      1.0  0.72473  0.58060  0.89230  1.0000
  H   H318      1.0  0.59963  0.42685  0.56920  1.0000
  H   H319      1.0  0.77697  0.62137  0.82434  1.0000
  H   H320      1.0  0.93079  0.46257  0.77465  1.0000
  H   H321      1.0  0.89284  0.50016  0.83821  1.0000
  C   C187      1.0  0.60471  0.34867  0.69437  1.0000
  H   H322      1.0  0.93598  0.52541  0.82058  1.0000
  H   H323      1.0  0.64025  0.63950  0.78815  1.0000
  H   H324      1.0  0.98355  0.50761  0.75175  1.0000
  H   H325      1.0  0.00131  0.61033  0.82631  1.0000
  H   H326      1.0  0.99794  0.46224  0.98779  1.0000
  H   H327      1.0  0.99584  0.45227  0.69827  1.0000
  H   H328      1.0  0.67173  0.60915  0.87239  1.0000
  S   S51       1.0  0.86852  0.51392  0.99760  1.0000
  H   H329      1.0  0.71303  0.60027  0.69011  1.0000
  S   S52       1.0  0.94502  0.59475  0.99471  1.0000
  C   C188      1.0  0.70278  0.61755  0.87525  1.0000
  H   H330      1.0  0.73205  0.58380  0.78098  1.0000
  H   H331      1.0  0.68219  0.59281  0.77982  1.0000
  N   N13       1.0  0.71602  0.63626  0.82322  1.0000
  S   S53       1.0  0.95021  0.46892  0.51382  1.0000
  H   H332      1.0  0.76849  0.65388  0.91372  1.0000
  C   C189      1.0  0.75825  0.64736  0.82586  1.0000
  H   H333      1.0  0.63410  0.66830  0.84815  1.0000
  H   H334      1.0  0.69164  0.64511  0.70958  1.0000
  S   S54       1.0  0.78435  0.36816  0.52116  1.0000
  C   C190      1.0  0.98435  0.50733  0.51715  1.0000
  H   H335      1.0  0.76650  0.66487  0.78973  1.0000
  N   N14       1.0  0.59764  0.33845  0.63584  1.0000
  Fe  Fe28      1.0  0.88468  0.47593  0.50881  1.0000
  H   H336      1.0  0.65525  0.84379  0.15889  1.0000
  S   S55       1.0  0.60321  0.87186  0.05783  1.0000
  Fe  Fe29      1.0  0.54751  0.83845  0.06536  1.0000
  H   H337      1.0  0.51250  0.97444  0.34367  1.0000
  C   C191      1.0  0.64554  0.76520  0.22979  1.0000
  C   C192      1.0  0.53941  0.88628  0.26790  1.0000
  C   C193      1.0  0.59477  0.73567  0.17556  1.0000
  H   H338      1.0  0.55434  0.91334  0.27517  1.0000
  H   H339      1.0  0.55560  0.88398  0.18324  1.0000
  H   H340      1.0  0.59215  0.69008  0.11295  1.0000
  H   H341      1.0  0.60686  0.80217  0.13562  1.0000
  C   C194      1.0  0.57864  0.71834  0.12241  1.0000
  C   C195      1.0  0.63479  0.78628  0.13302  1.0000
  H   H342      1.0  0.69325  0.80796  0.16137  1.0000
  H   H343      1.0  0.59083  0.78268  0.26858  1.0000
  H   H344      1.0  0.66036  0.69611  0.18318  1.0000
  H   H345      1.0  0.67667  0.82673  0.09870  1.0000
  C   C196      1.0  0.61865  0.79574  0.25538  1.0000
  C   C197      1.0  0.54021  0.86971  0.21580  1.0000
  H   H346      1.0  0.61246  0.82032  0.22770  1.0000
  H   H347      1.0  0.59330  0.71248  0.20709  1.0000
  H   H348      1.0  0.63621  0.77537  0.09064  1.0000
  H   H349      1.0  0.57337  0.75778  0.18813  1.0000
  C   C198      1.0  0.66696  0.81732  0.13958  1.0000
  H   H350      1.0  0.64574  0.73960  0.25750  1.0000
  H   H351      1.0  0.57458  0.97384  0.39541  1.0000
  H   H352      1.0  0.72126  0.70572  0.13739  1.0000
  C   C199      1.0  0.70491  0.73217  0.14857  1.0000
  H   H353      1.0  0.71804  0.74320  0.18654  1.0000
  C   C200      1.0  0.66195  0.72131  0.15484  1.0000
  H   H354      1.0  0.70922  0.75296  0.11467  1.0000
  H   H355      1.0  0.63262  0.80779  0.29234  1.0000
  H   H356      1.0  0.65326  0.71011  0.11444  1.0000
  H   H357      1.0  0.67534  0.77679  0.23251  1.0000
  N   N15       1.0  0.63497  0.75295  0.17290  1.0000
  H   H358      1.0  0.58174  0.73837  0.08757  1.0000
  H   H359      1.0  0.54714  0.71284  0.12729  1.0000
  C   C201      1.0  0.51933  0.86813  0.31054  1.0000
  S   S56       1.0  0.51927  0.89032  0.37512  1.0000
  S   S57       1.0  0.52217  0.81198  0.14191  1.0000
  C   C202      1.0  0.54812  0.98642  0.41359  1.0000
  H   H360      1.0  0.53484  0.96290  0.43801  1.0000
  C   C203      1.0  0.52118  0.83461  0.20613  1.0000
  C   C204      1.0  0.52106  0.00048  0.36761  1.0000
  C   C205      1.0  0.68305  0.68913  0.01029  1.0000
  C   C206      1.0  0.72302  0.68156  0.00916  1.0000
  C   C207      1.0  0.50221  0.82367  0.80953  1.0000
  S   S58       1.0  0.59039  0.86856  0.92632  1.0000
  H   H361      1.0  0.55840  0.79836  0.82194  1.0000
  H   H362      1.0  0.55870  0.88621  0.74537  1.0000
  H   H363      1.0  0.57153  0.79137  0.72317  1.0000
  C   C208      1.0  0.53743  0.80832  0.79231  1.0000
  S   S59       1.0  0.57753  0.97231  0.97954  1.0000
  S   S60       1.0  0.51507  0.87715  0.00760  1.0000
  C   C209      1.0  0.54473  0.80426  0.73647  1.0000
  C   C210      1.0  0.55651  0.98412  0.77530  1.0000
  Fe  Fe30      1.0  0.53512  0.83676  0.94250  1.0000
  H   H364      1.0  0.58761  0.98714  0.69710  1.0000
  H   H365      1.0  0.51038  0.97964  0.87109  1.0000
  H   H366      1.0  0.62588  0.94227  0.77398  1.0000
  C   C211      1.0  0.57057  0.91625  0.74641  1.0000
  H   H367      1.0  0.77939  0.70689  0.99835  1.0000
  C   C212      1.0  0.53768  0.92912  0.83164  1.0000
  H   H368      1.0  0.58304  0.98632  0.80091  1.0000
  H   H369      1.0  0.57511  0.92436  0.70331  1.0000
  H   H370      1.0  0.63788  0.73219  0.00257  1.0000
  C   C213      1.0  0.51731  0.81648  0.69786  1.0000
  S   S61       1.0  0.51068  0.89359  0.52706  1.0000
  H   H371      1.0  0.80235  0.67825  0.87173  1.0000
  S   S62       1.0  0.52621  0.80959  0.62818  1.0000
  H   H372      1.0  0.75546  0.69864  0.87969  1.0000
  H   H373      1.0  0.53237  0.89730  0.83301  1.0000
  N   N16       1.0  0.54215  0.94284  0.77369  1.0000
  C   C214      1.0  0.50516  0.94831  0.86477  1.0000
  H   H374      1.0  0.51958  0.95359  0.66042  1.0000
  H   H375      1.0  0.62944  0.89458  0.74702  1.0000
  C   C215      1.0  0.61119  0.91374  0.77234  1.0000
  H   H376      1.0  0.63664  0.69027  0.78156  1.0000
  H   H377      1.0  0.52937  0.97162  0.55577  1.0000
  H   H378      1.0  0.61044  0.90032  0.81324  1.0000
  H   H379      1.0  0.56470  0.93417  0.85538  1.0000
  C   C216      1.0  0.52244  0.00196  0.55888  1.0000
  H   H380      1.0  0.69628  0.69262  0.84907  1.0000
  H   H381      1.0  0.51251  0.90304  0.67446  1.0000
  H   H382      1.0  0.50466  0.93474  0.90573  1.0000
  S   S63       1.0  0.67791  0.80586  0.98223  1.0000
  Fe  Fe31      1.0  0.57170  0.90730  0.99436  1.0000
  S   S64       1.0  0.56245  0.79478  0.00105  1.0000
  H   H383      1.0  0.75423  0.77352  0.98314  1.0000
  C   C217      1.0  0.73421  0.74995  0.99057  1.0000
  Fe  Fe32      1.0  0.61664  0.82988  0.99057  1.0000
  C   C218      1.0  0.69425  0.75759  0.99215  1.0000
  C   C219      1.0  0.66869  0.72687  0.00174  1.0000
  C   C220      1.0  0.50303  0.94019  0.74596  1.0000
  C   C221      1.0  0.74857  0.71218  0.99910  1.0000
  H   H384      1.0  0.70355  0.68979  0.77913  1.0000
  C   C222      1.0  0.50237  0.93266  0.68416  1.0000
  C   C223      1.0  0.77119  0.67090  0.87580  1.0000
  C   C224      1.0  0.69268  0.67253  0.81419  1.0000
