data_image0
_chemical_formula_structural       FeS2FeS2Fe2S3HC3H3CHCH3CH2CHC4H5NHC3NH5CH6NCHC2H2CH2C2HCS2HFeSFeS2FeSFeS3C6H5C2H4C2H3C5H4CFeH5C3HCHCH2CH3CHCH4CNH3CH3CH5CHCH5CH2CH5C2H4CH2SFeS3C6H5CHCNCHCH5SH2C2H4C2H2SFeSHFeH2CH2CSH7SFeCFeSH2C6H3CH2SH3C2H3CHSH3FeSH3FeS2H2CHNHCH2SC2NCH2CFeS2HSFeSFeSC7H4C4H2C2HNH11CSNHCFeHC3HCH10CH2C2HSHCH4C2HC3H3CH6CNCHC2H3CH5CHCH2CH3C2H2CH2CH2CH2FeS2FeS2CFeS3HCHC3H3C4H2C6H7NCHCH2CH5CH2CH2CH3C2FeHCH5CH3C2H3SH5CNH3C4HCHCSHCH2FeHSHFeSCSC5HSHC6SH3CHC2H5FeH4C2H3CHNH5CSCH3SHFeS2HCFeSFeSCSHSC2HC2HC6H4C3H3CH4CH5FeCH4FeH2C2H2C4H3NHC2HC2H4SHCHCH2NHCNH2C3H2SH3CNH4C2H2CHC2H6CHCH8CH3CH2CHCHC3HCH2CH4SH3CHC3H6SH3CNH3C2H4CHC2HCH5CHNHCH2C2H2CH7SFeS2FeS2FeSFeS3HFeS2HFeHNHC4H2C2H3C6H4C6H4C2SH2CH6FeCHSCH5C4H3C2NCHC2H2CH3CH6SHSHCH2C2H3FeC2HCNCHSHCH10CH2CHFeS2CHFeSHS2FeSHFeS2FeSFeS3HC7H7C6H4CFeC2H5C2H3CH2SH4C3H7NC6HCH11FeH2CHSH3SC2HCHCNCH4CHCH4CH2
_chemical_formula_sum              "Fe48 S96 H576 C336 N24"
_cell_length_a       33.5911
_cell_length_b       33.8883
_cell_length_c       43.0083
_cell_angle_alpha    90.0802
_cell_angle_beta     89.3942
_cell_angle_gamma    119.197

_space_group_name_H-M_alt    "P 1"
_space_group_IT_number       1

loop_
  _space_group_symop_operation_xyz
  'x, y, z'

loop_
  _atom_site_type_symbol
  _atom_site_label
  _atom_site_symmetry_multiplicity
  _atom_site_fract_x
  _atom_site_fract_y
  _atom_site_fract_z
  _atom_site_occupancy
  Fe  Fe1       1.0  0.14699  0.41754  0.18142  1.0000
  S   S1        1.0  0.12542  0.34446  0.17430  1.0000
  S   S2        1.0  0.17311  0.45276  0.22705  1.0000
  Fe  Fe2       1.0  0.12153  0.43066  0.11656  1.0000
  S   S3        1.0  0.09724  0.35761  0.10378  1.0000
  S   S4        1.0  0.12957  0.48541  0.08213  1.0000
  Fe  Fe3       1.0  0.06406  0.34111  0.15165  1.0000
  Fe  Fe4       1.0  0.16049  0.36620  0.12743  1.0000
  S   S5        1.0  0.20874  0.33877  0.11477  1.0000
  S   S6        1.0  0.08321  0.41332  0.16210  1.0000
  S   S7        1.0  0.18705  0.43988  0.13697  1.0000
  H   H1        1.0  0.20708  0.46116  0.28908  1.0000
  C   C1        1.0  0.36505  0.06097  0.05745  1.0000
  C   C2        1.0  0.23933  0.34728  0.07924  1.0000
  C   C3        1.0  0.22604  0.35920  0.05166  1.0000
  H   H2        1.0  0.19799  0.36640  0.05204  1.0000
  H   H3        1.0  0.15985  0.26480  0.23178  1.0000
  H   H4        1.0  0.08484  0.18801  0.06363  1.0000
  C   C4        1.0  0.21536  0.44247  0.24252  1.0000
  H   H5        1.0  0.23104  0.42123  0.19900  1.0000
  C   C5        1.0  0.24791  0.36001  0.02325  1.0000
  H   H6        1.0  0.26802  0.05163  0.12659  1.0000
  H   H7        1.0  0.49350  0.41328  0.05776  1.0000
  H   H8        1.0  0.44584  0.26925  0.22542  1.0000
  C   C6        1.0  0.29696  0.06042  0.07892  1.0000
  H   H9        1.0  0.13057  0.23330  0.04300  1.0000
  H   H10       1.0  0.07340  0.30238  0.24709  1.0000
  C   C7        1.0  0.35549  0.06526  0.11466  1.0000
  H   H11       1.0  0.06796  0.34345  0.28714  1.0000
  C   C8        1.0  0.11588  0.32096  0.30325  1.0000
  C   C9        1.0  0.18180  0.30113  0.23637  1.0000
  C   C10       1.0  0.49545  0.42622  0.03376  1.0000
  C   C11       1.0  0.26223  0.22859  0.08915  1.0000
  H   H12       1.0  0.20737  0.26416  0.03727  1.0000
  H   H13       1.0  0.15245  0.34514  0.24171  1.0000
  H   H14       1.0  0.47968  0.31789  0.24903  1.0000
  H   H15       1.0  0.09232  0.23281  0.30546  1.0000
  H   H16       1.0  0.37261  0.12761  0.04569  1.0000
  N   N1        1.0  0.11974  0.29320  0.27698  1.0000
  H   H17       1.0  0.28526  0.24930  0.07002  1.0000
  C   C12       1.0  0.12371  0.25487  0.29163  1.0000
  C   C13       1.0  0.07635  0.27452  0.25854  1.0000
  C   C14       1.0  0.16061  0.32371  0.25707  1.0000
  N   N2        1.0  0.19290  0.19753  0.05253  1.0000
  H   H18       1.0  0.09508  0.25842  0.21290  1.0000
  H   H19       1.0  0.26517  0.19762  0.09206  1.0000
  H   H20       1.0  0.48676  0.32077  0.20783  1.0000
  H   H21       1.0  0.12584  0.23202  0.27414  1.0000
  H   H22       1.0  0.36621  0.10185  0.11608  1.0000
  C   C15       1.0  0.39768  0.06009  0.12157  1.0000
  H   H23       1.0  0.18878  0.34787  0.27208  1.0000
  H   H24       1.0  0.27377  0.24074  0.34060  1.0000
  H   H25       1.0  0.38870  0.04680  0.05907  1.0000
  H   H26       1.0  0.13508  0.22565  0.08420  1.0000
  H   H27       1.0  0.31327  0.09786  0.07977  1.0000
  H   H28       1.0  0.12803  0.14905  0.07280  1.0000
  N   N3        1.0  0.33177  0.04534  0.08440  1.0000
  C   C16       1.0  0.14170  0.17567  0.05441  1.0000
  H   H29       1.0  0.21057  0.24843  0.08832  1.0000
  C   C17       1.0  0.12260  0.20796  0.06172  1.0000
  C   C18       1.0  0.16480  0.26919  0.31324  1.0000
  H   H30       1.0  0.38903  0.02416  0.12348  1.0000
  H   H31       1.0  0.18719  0.12926  0.08917  1.0000
  C   C19       1.0  0.10424  0.35809  0.29385  1.0000
  H   H32       1.0  0.08950  0.29882  0.32061  1.0000
  H   H33       1.0  0.47327  0.02966  0.20410  1.0000
  C   C20       1.0  0.21230  0.21691  0.08397  1.0000
  C   C21       1.0  0.39391  0.11267  0.05311  1.0000
  H   H34       1.0  0.06522  0.49474  0.12398  1.0000
  C   C22       1.0  0.36653  0.22618  0.34736  1.0000
  S   S8        1.0  0.31854  0.40697  0.28421  1.0000
  S   S9        1.0  0.33276  0.18818  0.05248  1.0000
  H   H35       1.0  0.26331  0.44236  0.31198  1.0000
  Fe  Fe5       1.0  0.36569  0.05207  0.21399  1.0000
  S   S10       1.0  0.44132  0.09877  0.20871  1.0000
  Fe  Fe6       1.0  0.35492  0.11980  0.25652  1.0000
  S   S11       1.0  0.42956  0.17049  0.25440  1.0000
  S   S12       1.0  0.30199  0.13523  0.27818  1.0000
  Fe  Fe7       1.0  0.42293  0.15383  0.20350  1.0000
  S   S13       1.0  0.45689  0.20877  0.16724  1.0000
  Fe  Fe8       1.0  0.44121  0.11073  0.25986  1.0000
  S   S14       1.0  0.49062  0.10631  0.29381  1.0000
  S   S15       1.0  0.34762  0.10640  0.20494  1.0000
  S   S16       1.0  0.36627  0.06061  0.26599  1.0000
  C   C23       1.0  0.36788  0.19859  0.08476  1.0000
  C   C24       1.0  0.34772  0.17881  0.11330  1.0000
  C   C25       1.0  0.37491  0.18308  0.13890  1.0000
  C   C26       1.0  0.42241  0.20646  0.13602  1.0000
  C   C27       1.0  0.44263  0.22765  0.10772  1.0000
  C   C28       1.0  0.41537  0.22380  0.08206  1.0000
  H   H36       1.0  0.31098  0.15974  0.11560  1.0000
  H   H37       1.0  0.35897  0.16833  0.16080  1.0000
  H   H38       1.0  0.47941  0.24621  0.10544  1.0000
  H   H39       1.0  0.43111  0.23921  0.06003  1.0000
  H   H40       1.0  0.33530  0.26884  0.20724  1.0000
  C   C29       1.0  0.31637  0.17710  0.30712  1.0000
  C   C30       1.0  0.28654  0.19430  0.31327  1.0000
  H   H41       1.0  0.21713  0.11095  0.06423  1.0000
  H   H42       1.0  0.25521  0.18160  0.30039  1.0000
  H   H43       1.0  0.07131  0.21093  0.24022  1.0000
  H   H44       1.0  0.04606  0.25699  0.27430  1.0000
  C   C31       1.0  0.29760  0.33874  0.04992  1.0000
  C   C32       1.0  0.27592  0.33814  0.07827  1.0000
  H   H45       1.0  0.32489  0.33047  0.04947  1.0000
  H   H46       1.0  0.28680  0.32943  0.09953  1.0000
  H   H47       1.0  0.37482  0.35788  0.19960  1.0000
  C   C33       1.0  0.23831  0.42630  0.22359  1.0000
  C   C34       1.0  0.27076  0.41653  0.23648  1.0000
  C   C35       1.0  0.27964  0.42191  0.26843  1.0000
  C   C36       1.0  0.25658  0.43801  0.28736  1.0000
  C   C37       1.0  0.22487  0.44877  0.27435  1.0000
  H   H48       1.0  0.28836  0.40402  0.22171  1.0000
  H   H49       1.0  0.19095  0.31830  0.21331  1.0000
  H   H50       1.0  0.34852  0.38069  0.22475  1.0000
  H   H51       1.0  0.41310  0.13028  0.07418  1.0000
  C   C38       1.0  0.19071  0.12169  0.06460  1.0000
  Fe  Fe9       1.0  0.31470  0.39745  0.33625  1.0000
  H   H52       1.0  0.37947  0.23106  0.20119  1.0000
  H   H53       1.0  0.44559  0.36055  0.22618  1.0000
  H   H54       1.0  0.31622  0.32333  0.21297  1.0000
  H   H55       1.0  0.40773  0.34625  0.30728  1.0000
  H   H56       1.0  0.41564  0.31827  0.19819  1.0000
  C   C39       1.0  0.36734  0.33595  0.24893  1.0000
  C   C40       1.0  0.42591  0.32320  0.22306  1.0000
  C   C41       1.0  0.35664  0.19348  0.32407  1.0000
  H   H57       1.0  0.32377  0.19182  0.21484  1.0000
  C   C42       1.0  0.46093  0.30636  0.22688  1.0000
  H   H58       1.0  0.27473  0.24832  0.11093  1.0000
  C   C43       1.0  0.07030  0.24141  0.23212  1.0000
  H   H59       1.0  0.37970  0.18026  0.31972  1.0000
  H   H60       1.0  0.39457  0.36809  0.25887  1.0000
  C   C44       1.0  0.39381  0.28999  0.27572  1.0000
  H   H61       1.0  0.19150  0.19399  0.10322  1.0000
  H   H62       1.0  0.33876  0.32290  0.26631  1.0000
  H   H63       1.0  0.36149  0.27135  0.28915  1.0000
  C   C45       1.0  0.34597  0.26065  0.22959  1.0000
  H   H64       1.0  0.45621  0.35581  0.28323  1.0000
  C   C46       1.0  0.35096  0.34980  0.21958  1.0000
  H   H65       1.0  0.36950  0.21185  0.24145  1.0000
  H   H66       1.0  0.40771  0.26630  0.27424  1.0000
  H   H67       1.0  0.50284  0.03502  0.25883  1.0000
  H   H68       1.0  0.31518  0.24620  0.24510  1.0000
  C   C47       1.0  0.42618  0.33001  0.29630  1.0000
  N   N4        1.0  0.38423  0.30236  0.24409  1.0000
  H   H69       1.0  0.43851  0.31716  0.31562  1.0000
  H   H70       1.0  0.21456  0.30670  0.24630  1.0000
  H   H71       1.0  0.41135  0.07574  0.14444  1.0000
  C   C48       1.0  0.25661  0.04236  0.10228  1.0000
  H   H72       1.0  0.33182  0.04951  0.13480  1.0000
  H   H73       1.0  0.19727  0.29418  0.30202  1.0000
  H   H74       1.0  0.47884  0.47684  0.04899  1.0000
  C   C49       1.0  0.35607  0.22216  0.22155  1.0000
  H   H75       1.0  0.10943  0.38041  0.31411  1.0000
  H   H76       1.0  0.34687  0.04796  0.03515  1.0000
  H   H77       1.0  0.15767  0.09293  0.05718  1.0000
  H   H78       1.0  0.43101  0.42325  0.04085  1.0000
  H   H79       1.0  0.12584  0.15744  0.03253  1.0000
  C   C50       1.0  0.20567  0.16254  0.04247  1.0000
  H   H80       1.0  0.23486  0.05768  0.09682  1.0000
  C   C51       1.0  0.46517  0.44877  0.03177  1.0000
  H   H81       1.0  0.14843  0.33864  0.31632  1.0000
  H   H82       1.0  0.12647  0.37979  0.27477  1.0000
  H   H83       1.0  0.24971  0.24989  0.02667  1.0000
  H   H84       1.0  0.50431  0.01574  0.30831  1.0000
  H   H85       1.0  0.42566  0.07800  0.10440  1.0000
  C   C52       1.0  0.29704  0.22789  0.33599  1.0000
  H   H86       1.0  0.19024  0.14792  0.01965  1.0000
  H   H87       1.0  0.24298  0.17794  0.03776  1.0000
  C   C53       1.0  0.21220  0.23563  0.02915  1.0000
  H   H88       1.0  0.38495  0.45266  0.03985  1.0000
  H   H89       1.0  0.28268  0.05133  0.05512  1.0000
  H   H90       1.0  0.42806  0.01829  0.26912  1.0000
  H   H91       1.0  0.16006  0.28308  0.33553  1.0000
  H   H92       1.0  0.41946  0.12004  0.03425  1.0000
  C   C54       1.0  0.28290  0.34856  0.02214  1.0000
  C   C55       1.0  0.49813  0.01872  0.21084  1.0000
  H   H93       1.0  0.03604  0.22921  0.22186  1.0000
  H   H94       1.0  0.16821  0.23910  0.31926  1.0000
  H   H95       1.0  0.37396  0.49089  0.01808  1.0000
  H   H96       1.0  0.48368  0.39686  0.01811  1.0000
  C   C56       1.0  0.38800  0.46730  0.01634  1.0000
  H   H97       1.0  0.10114  0.50726  0.17746  1.0000
  H   H98       1.0  0.28807  0.44849  0.43866  1.0000
  S   S17       1.0  0.37524  0.40331  0.36191  1.0000
  Fe  Fe10      1.0  0.25147  0.36300  0.39316  1.0000
  S   S18       1.0  0.17833  0.34664  0.40468  1.0000
  S   S19       1.0  0.29637  0.43265  0.37331  1.0000
  S   S20       1.0  0.07554  0.30108  0.53633  1.0000
  C   C57       1.0  0.15145  0.33492  0.44186  1.0000
  C   C58       1.0  0.16487  0.31678  0.46618  1.0000
  C   C59       1.0  0.14124  0.30640  0.49495  1.0000
  C   C60       1.0  0.10398  0.31397  0.49967  1.0000
  C   C61       1.0  0.09056  0.33203  0.47530  1.0000
  C   C62       1.0  0.11427  0.34251  0.44662  1.0000
  H   H99       1.0  0.19298  0.31011  0.46268  1.0000
  H   H100      1.0  0.15183  0.29235  0.51362  1.0000
  H   H101      1.0  0.06213  0.33829  0.47865  1.0000
  H   H102      1.0  0.10394  0.35689  0.42803  1.0000
  H   H103      1.0  0.29583  0.39015  0.51778  1.0000
  C   C63       1.0  0.26055  0.45045  0.45207  1.0000
  H   H104      1.0  0.49271  0.46626  0.44093  1.0000
  C   C64       1.0  0.23983  0.47199  0.43060  1.0000
  N   N5        1.0  0.27900  0.47446  0.48243  1.0000
  C   C65       1.0  0.19509  0.43362  0.50338  1.0000
  H   H105      1.0  0.18006  0.42893  0.52715  1.0000
  C   C66       1.0  0.27336  0.40193  0.50727  1.0000
  H   H106      1.0  0.31640  0.46943  0.52172  1.0000
  H   H107      1.0  0.17133  0.43830  0.48800  1.0000
  H   H108      1.0  0.07860  0.21746  0.58061  1.0000
  H   H109      1.0  0.05591  0.28530  0.38938  1.0000
  H   H110      1.0  0.23414  0.41482  0.45541  1.0000
  S   S21       1.0  0.39647  0.48923  0.43441  1.0000
  H   H111      1.0  0.24684  0.39599  0.52502  1.0000
  H   H112      1.0  0.39729  0.23799  0.36080  1.0000
  C   C67       1.0  0.24294  0.47608  0.50288  1.0000
  C   C68       1.0  0.04996  0.25150  0.39642  1.0000
  H   H113      1.0  0.25830  0.38057  0.48654  1.0000
  H   H114      1.0  0.04833  0.23205  0.37530  1.0000
  H   H115      1.0  0.49042  0.49902  0.47240  1.0000
  H   H116      1.0  0.22075  0.44787  0.41173  1.0000
  C   C69       1.0  0.30243  0.45245  0.49917  1.0000
  C   C70       1.0  0.51175  0.48581  0.46163  1.0000
  H   H117      1.0  0.19438  0.40170  0.49747  1.0000
  H   H118      1.0  0.25477  0.48361  0.52736  1.0000
  S   S22       1.0  0.35050  0.28448  0.38302  1.0000
  Fe  Fe11      1.0  0.35286  0.43237  0.40091  1.0000
  S   S23       1.0  0.30672  0.36450  0.42311  1.0000
  H   H119      1.0  0.08067  0.25664  0.40924  1.0000
  Fe  Fe12      1.0  0.32511  0.33538  0.38153  1.0000
  H   H120      1.0  0.04292  0.26021  0.60759  1.0000
  H   H121      1.0  0.33219  0.45612  0.48520  1.0000
  C   C71       1.0  0.06836  0.18098  0.58021  1.0000
  H   H122      1.0  0.07419  0.16973  0.60303  1.0000
  H   H123      1.0  0.09196  0.17774  0.56341  1.0000
  C   C72       1.0  0.33697  0.24375  0.35332  1.0000
  S   S24       1.0  0.26596  0.32791  0.35363  1.0000
  H   H124      1.0  0.26689  0.50293  0.41910  1.0000
  H   H125      1.0  0.23725  0.50441  0.49542  1.0000
  H   H126      1.0  0.21556  0.47986  0.44306  1.0000
  H   H127      1.0  0.51443  0.46182  0.47765  1.0000
  H   H128      1.0  0.04227  0.21495  0.62853  1.0000
  H   H129      1.0  0.50377  0.09348  0.83901  1.0000
  H   H130      1.0  0.38641  0.40291  0.94166  1.0000
  S   S25       1.0  0.38571  0.30847  0.93729  1.0000
  Fe  Fe13      1.0  0.34415  0.30493  0.97997  1.0000
  C   C73       1.0  0.41925  0.43314  0.94767  1.0000
  Fe  Fe14      1.0  0.35412  0.23230  0.94143  1.0000
  S   S26       1.0  0.31663  0.17829  0.90464  1.0000
  H   H131      1.0  0.29053  0.04455  0.98637  1.0000
  H   H132      1.0  0.44439  0.43802  0.92909  1.0000
  C   C74       1.0  0.36126  0.08488  0.85551  1.0000
  C   C75       1.0  0.39129  0.11891  0.87567  1.0000
  C   C76       1.0  0.37795  0.14724  0.89138  1.0000
  C   C77       1.0  0.33461  0.14231  0.88665  1.0000
  C   C78       1.0  0.30445  0.10797  0.86670  1.0000
  C   C79       1.0  0.31751  0.07916  0.85140  1.0000
  H   H133      1.0  0.40157  0.17363  0.90653  1.0000
  H   H134      1.0  0.27096  0.10406  0.86275  1.0000
  H   H135      1.0  0.29422  0.05345  0.83572  1.0000
  C   C80       1.0  0.46884  0.05587  0.78226  1.0000
  H   H136      1.0  0.24187  0.02446  0.94559  1.0000
  H   H137      1.0  0.28610  0.04712  0.91712  1.0000
  S   S27       1.0  0.51385  0.35948  0.97035  1.0000
  H   H138      1.0  0.23650  0.36798  0.00191  1.0000
  H   H139      1.0  0.45517  0.40786  0.97452  1.0000
  H   H140      1.0  0.52042  0.08391  0.89802  1.0000
  C   C81       1.0  0.50934  0.49505  0.98747  1.0000
  C   C82       1.0  0.50064  0.06249  0.85016  1.0000
  H   H141      1.0  0.42528  0.12378  0.87890  1.0000
  H   H142      1.0  0.49381  0.51141  0.94070  1.0000
  H   H143      1.0  0.48877  0.40131  0.92009  1.0000
  C   C83       1.0  0.30828  0.04658  0.96401  1.0000
  H   H144      1.0  0.40424  0.39878  0.99188  1.0000
  S   S28       1.0  0.38038  0.05131  0.83537  1.0000
  H   H145      1.0  0.46621  0.08244  0.79570  1.0000
  H   H146      1.0  0.46571  0.04646  0.86068  1.0000
  H   H147      1.0  0.36087  0.03511  0.91895  1.0000
  Fe  Fe15      1.0  0.43694  0.31079  0.97163  1.0000
  S   S29       1.0  0.30781  0.22943  0.98047  1.0000
  H   H148      1.0  0.15580  0.21190  0.99532  1.0000
  H   H149      1.0  0.43722  0.51084  0.98289  1.0000
  H   H150      1.0  0.20963  0.25537  0.98161  1.0000
  Fe  Fe16      1.0  0.36318  0.23596  0.01189  1.0000
  S   S30       1.0  0.30562  0.34431  0.98564  1.0000
  S   S31       1.0  0.40788  0.23464  0.97317  1.0000
  H   H151      1.0  0.32911  0.08334  0.95878  1.0000
  H   H152      1.0  0.41180  0.46141  0.94707  1.0000
  C   C84       1.0  0.43499  0.42520  0.97954  1.0000
  H   H153      1.0  0.33264  0.03392  0.96718  1.0000
  N   N6        1.0  0.46149  0.46578  1.00000  1.0000
  H   H154      1.0  0.36599  0.44032  0.99997  1.0000
  C   C85       1.0  0.19294  0.22401  0.99595  1.0000
  H   H155      1.0  0.20093  0.19941  0.98441  1.0000
  H   H156      1.0  0.43907  0.04102  0.76658  1.0000
  S   S32       1.0  0.39691  0.31153  0.01403  1.0000
  C   C86       1.0  0.43787  0.49355  0.00454  1.0000
  C   C87       1.0  0.52405  0.42358  0.92584  1.0000
  N   N7        1.0  0.50532  0.03242  0.82625  1.0000
  C   C88       1.0  0.27335  0.02404  0.93763  1.0000
  H   H157      1.0  0.49953  0.07128  0.76704  1.0000
  H   H158      1.0  0.52414  0.47377  0.97920  1.0000
  C   C89       1.0  0.46700  0.01813  0.80338  1.0000
  Fe  Fe17      1.0  0.11343  0.71112  0.07516  1.0000
  S   S33       1.0  0.07343  0.74871  0.07733  1.0000
  S   S34       1.0  0.08227  0.64472  0.10248  1.0000
  H   H159      1.0  0.14971  0.63548  0.19310  1.0000
  S   S35       1.0  0.14914  0.82352  0.03044  1.0000
  Fe  Fe18      1.0  0.14228  0.81163  0.08206  1.0000
  S   S36       1.0  0.15654  0.87153  0.11333  1.0000
  Fe  Fe19      1.0  0.08434  0.75721  0.02545  1.0000
  S   S37       1.0  0.18130  0.77348  0.08333  1.0000
  C   C90       1.0  0.19229  0.54649  0.15558  1.0000
  C   C91       1.0  0.20741  0.90197  0.13491  1.0000
  C   C92       1.0  0.21372  0.93950  0.15265  1.0000
  C   C93       1.0  0.25425  0.96527  0.16939  1.0000
  C   C94       1.0  0.28876  0.95344  0.16871  1.0000
  C   C95       1.0  0.28230  0.91572  0.15121  1.0000
  C   C96       1.0  0.24199  0.89024  0.13429  1.0000
  H   H160      1.0  0.18711  0.94875  0.15339  1.0000
  H   H161      1.0  0.22352  0.53337  0.11516  1.0000
  H   H162      1.0  0.30878  0.90630  0.15050  1.0000
  H   H163      1.0  0.23768  0.86152  0.12076  1.0000
  C   C97       1.0  0.13755  0.56857  0.06987  1.0000
  C   C98       1.0  0.12775  0.60426  0.07395  1.0000
  C   C99       1.0  0.09538  0.60056  0.09613  1.0000
  C   C100      1.0  0.07279  0.56077  0.11406  1.0000
  H   H164      1.0  0.35588  0.91810  0.26799  1.0000
  H   H165      1.0  0.14526  0.63458  0.05991  1.0000
  C   C101      1.0  0.18595  0.61535  0.15869  1.0000
  C   C102      1.0  0.22813  0.56296  0.12899  1.0000
  H   H166      1.0  0.26729  0.63015  0.17420  1.0000
  N   N8        1.0  0.19471  0.58261  0.17717  1.0000
  H   H167      1.0  0.33952  0.95867  0.25756  1.0000
  H   H168      1.0  0.17513  0.67344  0.16128  1.0000
  H   H169      1.0  0.36456  0.96217  0.29515  1.0000
  H   H170      1.0  0.22337  0.58539  0.11248  1.0000
  H   H171      1.0  0.41777  0.95551  0.19138  1.0000
  H   H172      1.0  0.19454  0.51942  0.16874  1.0000
  H   H173      1.0  0.26357  0.57975  0.13759  1.0000
  H   H174      1.0  0.51890  0.99365  0.24965  1.0000
  H   H175      1.0  0.24136  0.63173  0.20978  1.0000
  H   H176      1.0  0.49608  0.99187  0.19510  1.0000
  H   H177      1.0  0.16255  0.57169  0.05256  1.0000
  C   C103      1.0  0.27943  0.96768  0.05917  1.0000
  S   S38       1.0  0.12032  0.71603  0.02322  1.0000
  N   N9        1.0  0.44590  0.96737  0.25533  1.0000
  H   H178      1.0  0.21427  0.63469  0.14185  1.0000
  C   C104      1.0  0.42985  0.92638  0.23456  1.0000
  Fe  Fe20      1.0  0.18399  0.78167  0.03126  1.0000
  H   H179      1.0  0.21081  0.67262  0.19156  1.0000
  C   C105      1.0  0.18022  0.65096  0.17768  1.0000
  C   C106      1.0  0.15964  0.56036  0.20275  1.0000
  C   C107      1.0  0.25895  0.57903  0.20765  1.0000
  H   H180      1.0  0.29290  0.60168  0.21774  1.0000
  C   C108      1.0  0.24116  0.60817  0.19167  1.0000
  H   H181      1.0  0.08714  0.52312  0.21361  1.0000
  H   H182      1.0  0.33538  0.98347  0.08941  1.0000
  H   H183      1.0  0.15520  0.59701  0.14414  1.0000
  H   H184      1.0  0.39792  0.89617  0.19047  1.0000
  H   H185      1.0  0.41760  0.92459  0.29632  1.0000
  H   H186      1.0  0.09966  0.55975  0.18091  1.0000
  H   H187      1.0  0.36697  0.91717  0.21234  1.0000
  H   H188      1.0  0.47414  0.93796  0.28691  1.0000
  H   H189      1.0  0.23650  0.55856  0.22712  1.0000
  H   H190      1.0  0.04748  0.55749  0.13115  1.0000
  C   C109      1.0  0.36582  0.95430  0.27019  1.0000
  H   H191      1.0  0.16382  0.58506  0.22124  1.0000
  H   H192      1.0  0.40763  0.89454  0.24760  1.0000
  C   C110      1.0  0.45067  0.95253  0.28756  1.0000
  C   C111      1.0  0.40189  0.92437  0.20566  1.0000
  H   H193      1.0  0.28791  0.98236  0.10803  1.0000
  S   S39       1.0  0.34115  0.98533  0.18827  1.0000
  H   H194      1.0  0.45933  0.92232  0.22660  1.0000
  C   C112      1.0  0.10931  0.53662  0.19262  1.0000
  H   H195      1.0  0.40883  0.99683  0.23267  1.0000
  H   H196      1.0  0.26377  0.55654  0.19111  1.0000
  H   H197      1.0  0.29973  0.97347  0.03751  1.0000
  H   H198      1.0  0.16444  0.53389  0.21466  1.0000
  C   C113      1.0  0.46855  0.98937  0.31290  1.0000
  C   C114      1.0  0.08296  0.52527  0.11020  1.0000
  H   H199      1.0  0.15863  0.52887  0.14412  1.0000
  C   C115      1.0  0.49257  0.00389  0.24510  1.0000
  C   C116      1.0  0.41342  0.98602  0.25603  1.0000
  C   C117      1.0  0.30944  0.99459  0.08677  1.0000
  H   H200      1.0  0.25869  0.99413  0.18284  1.0000
  H   H201      1.0  0.25090  0.97462  0.05520  1.0000
  H   H202      1.0  0.26361  0.93097  0.06463  1.0000
  C   C118      1.0  0.11554  0.52907  0.08810  1.0000
  H   H203      1.0  0.46843  0.97365  0.33556  1.0000
  H   H204      1.0  0.45727  0.52162  0.02115  1.0000
  H   H205      1.0  0.44680  0.00537  0.31598  1.0000
  H   H206      1.0  0.23457  0.00520  0.10069  1.0000
  H   H207      1.0  0.45577  0.56649  0.47055  1.0000
  H   H208      1.0  0.15127  0.79770  0.61291  1.0000
  C   C119      1.0  0.47167  0.57045  0.44792  1.0000
  N   N10       1.0  0.12541  0.69455  0.64862  1.0000
  C   C120      1.0  0.15680  0.67720  0.65885  1.0000
  H   H209      1.0  0.17950  0.67878  0.63926  1.0000
  C   C121      1.0  0.51438  0.60868  0.44177  1.0000
  C   C122      1.0  0.31486  0.52237  0.47449  1.0000
  H   H210      1.0  0.12536  0.63096  0.59575  1.0000
  H   H211      1.0  0.15103  0.69078  0.58851  1.0000
  H   H212      1.0  0.16929  0.76638  0.65654  1.0000
  C   C123      1.0  0.11858  0.65985  0.59395  1.0000
  H   H213      1.0  0.18363  0.74649  0.62276  1.0000
  H   H214      1.0  0.07078  0.70462  0.66697  1.0000
  H   H215      1.0  0.32235  0.55072  0.52188  1.0000
  H   H216      1.0  0.52900  0.58506  0.36708  1.0000
  H   H217      1.0  0.16809  0.85918  0.67172  1.0000
  C   C124      1.0  0.47032  0.54292  0.39585  1.0000
  H   H218      1.0  0.09765  0.75740  0.62930  1.0000
  C   C125      1.0  0.15384  0.74244  0.63681  1.0000
  H   H219      1.0  0.09609  0.65419  0.57371  1.0000
  H   H220      1.0  0.07438  0.62846  0.63267  1.0000
  C   C126      1.0  0.09464  0.66366  0.62377  1.0000
  H   H221      1.0  0.29913  0.54135  0.46387  1.0000
  H   H222      1.0  0.36379  0.58727  0.49391  1.0000
  H   H223      1.0  0.45363  0.51767  0.37805  1.0000
  C   C127      1.0  0.12844  0.76102  0.61720  1.0000
  C   C128      1.0  0.51303  0.58120  0.38968  1.0000
  H   H224      1.0  0.06801  0.67256  0.61716  1.0000
  H   H225      1.0  0.11881  0.74440  0.59416  1.0000
  C   C129      1.0  0.44947  0.53734  0.42504  1.0000
  H   H226      1.0  0.08725  0.79767  0.67046  1.0000
  H   H227      1.0  0.13723  0.64070  0.66518  1.0000
  C   C130      1.0  0.34369  0.55154  0.50180  1.0000
  H   H228      1.0  0.33919  0.52266  0.45656  1.0000
  H   H229      1.0  0.36887  0.54123  0.50922  1.0000
  C   C131      1.0  0.09616  0.69506  0.67530  1.0000
  H   H230      1.0  0.21158  0.73897  0.68034  1.0000
  H   H231      1.0  0.04386  0.62271  0.67871  1.0000
  Fe  Fe21      1.0  0.26354  0.88677  0.83260  1.0000
  S   S40       1.0  0.25924  0.94150  0.80628  1.0000
  S   S41       1.0  0.20613  0.85105  0.86693  1.0000
  Fe  Fe22      1.0  0.35108  0.90275  0.79831  1.0000
  S   S42       1.0  0.35170  0.95773  0.76906  1.0000
  S   S43       1.0  0.40834  0.88503  0.80117  1.0000
  C   C132      1.0  0.49887  0.93956  0.72857  1.0000
  Fe  Fe23      1.0  0.27549  0.91076  0.76499  1.0000
  S   S44       1.0  0.23480  0.89391  0.72027  1.0000
  S   S45       1.0  0.33738  0.92903  0.84287  1.0000
  S   S46       1.0  0.27623  0.85397  0.79123  1.0000
  H   H232      1.0  0.11727  0.67313  0.91186  1.0000
  C   C133      1.0  0.17750  0.84932  0.72001  1.0000
  H   H233      1.0  0.04012  0.79906  0.88272  1.0000
  C   C134      1.0  0.08582  0.77865  0.71828  1.0000
  C   C135      1.0  0.11094  0.78867  0.74587  1.0000
  C   C136      1.0  0.15654  0.82376  0.74676  1.0000
  H   H234      1.0  0.22836  0.92235  0.00087  1.0000
  H   H235      1.0  0.09510  0.76922  0.76668  1.0000
  H   H236      1.0  0.17546  0.83125  0.76817  1.0000
  C   C137      1.0  0.45543  0.90159  0.77525  1.0000
  C   C138      1.0  0.50213  0.99050  0.84093  1.0000
  C   C139      1.0  0.45993  0.92554  0.74776  1.0000
  C   C140      1.0  0.04122  0.76846  0.89075  1.0000
  H   H237      1.0  0.18920  0.95379  0.92936  1.0000
  H   H238      1.0  0.29712  0.99722  0.88366  1.0000
  C   C141      1.0  0.21919  0.83900  0.90382  1.0000
  C   C142      1.0  0.18492  0.82273  0.92664  1.0000
  C   C143      1.0  0.19308  0.81107  0.95611  1.0000
  C   C144      1.0  0.23623  0.81746  0.96349  1.0000
  C   C145      1.0  0.27101  0.83462  0.94082  1.0000
  C   C146      1.0  0.26241  0.84510  0.91084  1.0000
  H   H239      1.0  0.15182  0.81903  0.92159  1.0000
  H   H240      1.0  0.16569  0.79680  0.97301  1.0000
  H   H241      1.0  0.30440  0.83933  0.94636  1.0000
  H   H242      1.0  0.28900  0.85745  0.89323  1.0000
  H   H243      1.0  0.42981  0.95715  0.85482  1.0000
  H   H244      1.0  0.28496  0.94256  0.89623  1.0000
  H   H245      1.0  0.16902  0.70062  0.70775  1.0000
  N   N11       1.0  0.07819  0.71906  0.87495  1.0000
  C   C147      1.0  0.22245  0.93822  0.98010  1.0000
  H   H246      1.0  0.49734  0.96511  0.82285  1.0000
  C   C148      1.0  0.12349  0.72741  0.86159  1.0000
  H   H247      1.0  0.06596  0.76393  0.84537  1.0000
  H   H248      1.0  0.04927  0.65167  0.85480  1.0000
  C   C149      1.0  0.08297  0.66828  0.91790  1.0000
  H   H249      1.0  0.03856  0.68929  0.83360  1.0000
  H   H250      1.0  0.46483  0.99088  0.78795  1.0000
  H   H251      1.0  0.12663  0.69625  0.86247  1.0000
  H   H252      1.0  0.16740  0.74827  0.82048  1.0000
  H   H253      1.0  0.36606  0.99460  0.89584  1.0000
  C   C150      1.0  0.34569  0.99824  0.91501  1.0000
  H   H254      1.0  0.29238  0.96122  0.96789  1.0000
  H   H255      1.0  0.48701  0.87315  0.80435  1.0000
  C   C151      1.0  0.29580  0.97748  0.90460  1.0000
  H   H256      1.0  0.50195  0.95792  0.70732  1.0000
  H   H257      1.0  0.43338  0.93316  0.74127  1.0000
  C   C152      1.0  0.21555  0.95409  0.91332  1.0000
  H   H258      1.0  0.22429  0.01257  0.88502  1.0000
  H   H259      1.0  0.21021  0.68757  0.69138  1.0000
  H   H260      1.0  0.20436  0.91793  0.90830  1.0000
  C   C153      1.0  0.13352  0.74392  0.82744  1.0000
  C   C154      1.0  0.07841  0.71003  0.90929  1.0000
  Fe  Fe24      1.0  0.33487  0.98233  0.81362  1.0000
  H   H261      1.0  0.07918  0.66345  0.94352  1.0000
  C   C155      1.0  0.18837  0.70291  0.68616  1.0000
  H   H262      1.0  0.04745  0.70606  0.92139  1.0000
  H   H263      1.0  0.09140  0.63931  0.70487  1.0000
  H   H264      1.0  0.25366  0.91388  0.94705  1.0000
  H   H265      1.0  0.22255  0.96955  0.98760  1.0000
  H   H266      1.0  0.46171  0.93357  0.87162  1.0000
  C   C156      1.0  0.49015  0.89168  0.78316  1.0000
  H   H267      1.0  0.10673  0.73964  0.92084  1.0000
  H   H268      1.0  0.05274  0.77498  0.91527  1.0000
  H   H269      1.0  0.52150  0.67897  0.82705  1.0000
  C   C157      1.0  0.25969  0.94742  0.95545  1.0000
  C   C158      1.0  0.10661  0.80424  0.69156  1.0000
  H   H270      1.0  0.51089  0.55646  0.96897  1.0000
  H   H271      1.0  0.10818  0.71926  0.81120  1.0000
  H   H272      1.0  0.13591  0.77752  0.82435  1.0000
  S   S47       1.0  0.24675  0.80499  0.00116  1.0000
  H   H273      1.0  0.15220  0.75282  0.87574  1.0000
  H   H274      1.0  0.10861  0.79209  0.87364  1.0000
  H   H275      1.0  0.18812  0.91345  0.97153  1.0000
  H   H276      1.0  0.17465  0.96000  0.87660  1.0000
  H   H277      1.0  0.46867  0.98598  0.88629  1.0000
  C   C159      1.0  0.46322  0.96591  0.86482  1.0000
  N   N12       1.0  0.26196  0.97668  0.92830  1.0000
  H   H278      1.0  0.22852  0.96886  0.86317  1.0000
  H   H279      1.0  0.05614  0.63695  0.90712  1.0000
  H   H280      1.0  0.04918  0.65550  0.71231  1.0000
  C   C160      1.0  0.07487  0.76152  0.86990  1.0000
  C   C161      1.0  0.21124  0.97569  0.88286  1.0000
  C   C162      1.0  0.04093  0.67950  0.85791  1.0000
  C   C163      1.0  0.52906  0.90567  0.76397  1.0000
  H   H281      1.0  0.43349  0.00282  0.81575  1.0000
  C   C164      1.0  0.15231  0.83928  0.69241  1.0000
  H   H282      1.0  0.34987  0.98087  0.93546  1.0000
  C   C165      1.0  0.06898  0.65026  0.69345  1.0000
  S   S48       1.0  0.03822  0.74150  0.98320  1.0000
  H   H283      1.0  0.11695  0.72150  0.69254  1.0000
  C   C166      1.0  0.51585  0.52808  0.96078  1.0000
  H   H284      1.0  0.03956  0.61739  0.00825  1.0000
  H   H285      1.0  0.01589  0.31943  0.22245  1.0000
  Fe  Fe25      1.0  0.83365  0.14958  0.30497  1.0000
  H   H286      1.0  0.54672  0.13501  0.23694  1.0000
  S   S49       1.0  0.90763  0.20245  0.29409  1.0000
  H   H287      1.0  0.83219  0.18816  0.21066  1.0000
  Fe  Fe26      1.0  0.73270  0.12128  0.29626  1.0000
  S   S50       1.0  0.68953  0.13590  0.26251  1.0000
  C   C167      1.0  0.85366  0.26819  0.26333  1.0000
  S   S51       1.0  0.77859  0.09674  0.27523  1.0000
  C   C168      1.0  0.57200  0.11029  0.30813  1.0000
  C   C169      1.0  0.63466  0.12843  0.27180  1.0000
  C   C170      1.0  0.60956  0.13548  0.24858  1.0000
  C   C171      1.0  0.56579  0.12977  0.25505  1.0000
  C   C172      1.0  0.61563  0.11575  0.30163  1.0000
  H   H288      1.0  0.62399  0.14534  0.22544  1.0000
  S   S52       1.0  0.78898  0.17678  0.32363  1.0000
  H   H289      1.0  0.63460  0.11037  0.31974  1.0000
  C   C173      1.0  0.97013  0.25937  0.19762  1.0000
  C   C174      1.0  0.98752  0.28541  0.22442  1.0000
  C   C175      1.0  0.96788  0.26756  0.25376  1.0000
  C   C176      1.0  0.93044  0.22373  0.25661  1.0000
  C   C177      1.0  0.91308  0.19769  0.22984  1.0000
  C   C178      1.0  0.93265  0.21555  0.20049  1.0000
  S   S53       1.0  0.70942  0.07164  0.33586  1.0000
  H   H290      1.0  0.98147  0.28800  0.27434  1.0000
  H   H291      1.0  0.88490  0.16356  0.23179  1.0000
  H   H292      1.0  0.91904  0.19512  0.17989  1.0000
  C   C179      1.0  0.77114  0.24243  0.22594  1.0000
  H   H293      1.0  0.88728  0.27354  0.16761  1.0000
  C   C180      1.0  0.77488  0.28970  0.22511  1.0000
  C   C181      1.0  0.76269  0.15480  0.19573  1.0000
  H   H294      1.0  0.86809  0.30587  0.22041  1.0000
  H   H295      1.0  0.84240  0.23355  0.27192  1.0000
  H   H296      1.0  0.82212  0.28754  0.17535  1.0000
  H   H297      1.0  0.88869  0.28991  0.27218  1.0000
  H   H298      1.0  0.75623  0.29324  0.24548  1.0000
  Fe  Fe27      1.0  0.75925  0.05101  0.31740  1.0000
  H   H299      1.0  0.75708  0.12091  0.20278  1.0000
  H   H300      1.0  0.75978  0.29430  0.20347  1.0000
  H   H301      1.0  0.79216  0.17986  0.24034  1.0000
  H   H302      1.0  0.84919  0.21425  0.16048  1.0000
  C   C182      1.0  0.80120  0.19093  0.21571  1.0000
  C   C183      1.0  0.85277  0.24850  0.15950  1.0000
  H   H303      1.0  0.77176  0.15885  0.17065  1.0000
  H   H304      1.0  0.76387  0.22947  0.25031  1.0000
  H   H305      1.0  0.85104  0.25626  0.13462  1.0000
  C   C184      1.0  0.85482  0.27006  0.22755  1.0000
  H   H306      1.0  0.78192  0.23147  0.16571  1.0000
  N   N13       1.0  0.81051  0.23893  0.21173  1.0000
  H   H307      1.0  0.73883  0.21967  0.21388  1.0000
  H   H308      1.0  0.81023  0.31778  0.22695  1.0000
  H   H309      1.0  0.83172  0.28108  0.27344  1.0000
  H   H310      1.0  0.72971  0.15422  0.19922  1.0000
  H   H311      1.0  0.88211  0.26241  0.22006  1.0000
  C   C185      1.0  0.81480  0.25192  0.17790  1.0000
  S   S54       1.0  0.99328  0.28054  0.16017  1.0000
  C   C186      1.0  0.54679  0.11711  0.28491  1.0000
  H   H312      1.0  0.55760  0.10048  0.33130  1.0000
  H   H313      1.0  0.53263  0.04841  0.20741  1.0000
  H   H314      1.0  0.96699  0.17787  0.33222  1.0000
  S   S55       1.0  0.81840  0.10135  0.34516  1.0000
  H   H315      1.0  0.53192  0.45025  0.02879  1.0000
  Fe  Fe28      1.0  0.91241  0.24635  0.56719  1.0000
  S   S56       1.0  0.89259  0.29972  0.55739  1.0000
  S   S57       1.0  0.86173  0.17206  0.57731  1.0000
  H   H316      1.0  0.88672  0.46458  0.60528  1.0000
  C   C187      1.0  0.94301  0.12054  0.64310  1.0000
  Fe  Fe29      1.0  0.96014  0.34924  0.57821  1.0000
  S   S58       1.0  0.96453  0.39932  0.61548  1.0000
  Fe  Fe30      1.0  0.93360  0.31265  0.51338  1.0000
  S   S59       1.0  0.90986  0.32048  0.46634  1.0000
  C   C188      1.0  0.79416  0.04371  0.43590  1.0000
  S   S60       1.0  0.94813  0.25579  0.52102  1.0000
  H   H317      1.0  0.77833  0.03575  0.64164  1.0000
  S   S61       1.0  0.76606  0.13081  0.41324  1.0000
  C   C189      1.0  0.97108  0.45376  0.60832  1.0000
  C   C190      1.0  0.97204  0.48047  0.63370  1.0000
  H   H318      1.0  0.98230  0.16413  0.36894  1.0000
  C   C191      1.0  0.97464  0.47071  0.57818  1.0000
  C   C192      1.0  0.95515  0.25804  0.41579  1.0000
  H   H319      1.0  0.81262  0.02458  0.43977  1.0000
  C   C193      1.0  0.86590  0.26894  0.45261  1.0000
  C   C194      1.0  0.85265  0.26521  0.42150  1.0000
  C   C195      1.0  0.82189  0.22285  0.40918  1.0000
  C   C196      1.0  0.80308  0.18447  0.42827  1.0000
  C   C197      1.0  0.81462  0.18861  0.45976  1.0000
  C   C198      1.0  0.84622  0.23075  0.47188  1.0000
  H   H320      1.0  0.86754  0.29479  0.40661  1.0000
  H   H321      1.0  0.81257  0.22001  0.38501  1.0000
  H   H322      1.0  0.79979  0.15910  0.47470  1.0000
  H   H323      1.0  0.85566  0.23353  0.49606  1.0000
  C   C199      1.0  0.84583  0.14315  0.61350  1.0000
  C   C200      1.0  0.81557  0.09630  0.61369  1.0000
  C   C201      1.0  0.80165  0.07177  0.64183  1.0000
  H   H324      1.0  0.80260  0.07887  0.59193  1.0000
  H   H325      1.0  0.78711  0.41885  0.65874  1.0000
  H   H326      1.0  0.92683  0.21446  0.36315  1.0000
  C   C202      1.0  0.84875  0.14064  0.66991  1.0000
  H   H327      1.0  0.01581  0.24335  0.44058  1.0000
  H   H328      1.0  0.61478  0.13111  0.67528  1.0000
  H   H329      1.0  0.97403  0.45058  0.55844  1.0000
  H   H330      1.0  0.88589  0.20126  0.64196  1.0000
  C   C203      1.0  0.01921  0.15225  0.56857  1.0000
  H   H331      1.0  0.81927  0.08018  0.43833  1.0000
  H   H332      1.0  0.65747  0.04902  0.60008  1.0000
  H   H333      1.0  0.90850  0.09501  0.63537  1.0000
  H   H334      1.0  0.87061  0.49363  0.56111  1.0000
  H   H335      1.0  0.90756  0.11733  0.58702  1.0000
  Fe  Fe31      1.0  0.76982  0.12471  0.36133  1.0000
  C   C204      1.0  0.73492  0.13342  0.62493  1.0000
  H   H336      1.0  0.87097  0.39191  0.62366  1.0000
  H   H337      1.0  0.94871  0.10798  0.66556  1.0000
  H   H338      1.0  0.97757  0.32934  0.41075  1.0000
  H   H339      1.0  0.02306  0.31781  0.41660  1.0000
  Fe  Fe32      1.0  0.01151  0.30725  0.54415  1.0000
  H   H340      1.0  0.73417  0.10503  0.61166  1.0000
  H   H341      1.0  0.94004  0.16854  0.53852  1.0000
  C   C205      1.0  0.93668  0.11905  0.57343  1.0000
  C   C206      1.0  0.98055  0.12632  0.61955  1.0000
  H   H342      1.0  0.56709  0.48412  0.51973  1.0000
  H   H343      1.0  0.93036  0.08358  0.57225  1.0000
  C   C207      1.0  0.99028  0.30557  0.40440  1.0000
  C   C208      1.0  0.01993  0.22675  0.61838  1.0000
  C   C209      1.0  0.81849  0.48903  0.59532  1.0000
  C   C210      1.0  0.86037  0.50743  0.64402  1.0000
  H   H344      1.0  0.98657  0.24472  0.35897  1.0000
  H   H345      1.0  0.00548  0.19237  0.42246  1.0000
  H   H346      1.0  0.61859  0.48263  0.51962  1.0000
  N   N14       1.0  0.67210  0.08249  0.66406  1.0000
  H   H347      1.0  0.90590  0.19672  0.46420  1.0000
  C   C211      1.0  0.78355  0.43831  0.63935  1.0000
  C   C212      1.0  0.81814  0.09386  0.67012  1.0000
  H   H348      1.0  0.71997  0.01461  0.52211  1.0000
  C   C213      1.0  0.91997  0.17517  0.45562  1.0000
  C   C214      1.0  0.87010  0.49560  0.67672  1.0000
  H   H349      1.0  0.57967  0.45683  0.48790  1.0000
  H   H350      1.0  0.89052  0.17042  0.41044  1.0000
  H   H351      1.0  0.69261  0.15180  0.65192  1.0000
  H   H352      1.0  0.66302  0.11276  0.62218  1.0000
  S   S62       1.0  0.97713  0.29450  0.59132  1.0000
  H   H353      1.0  0.00160  0.23323  0.63767  1.0000
  C   C215      1.0  0.00757  0.22565  0.41773  1.0000
  H   H354      1.0  0.89541  0.14017  0.46318  1.0000
  C   C216      1.0  0.86255  0.16524  0.64175  1.0000
  H   H355      1.0  0.83353  0.42273  0.59075  1.0000
  H   H356      1.0  0.96951  0.46769  0.65710  1.0000
  N   N15       1.0  0.98136  0.14933  0.58931  1.0000
  H   H357      1.0  0.81588  0.37732  0.63825  1.0000
  C   C217      1.0  0.92405  0.17672  0.41979  1.0000
  N   N16       1.0  0.96263  0.21943  0.40589  1.0000
  H   H358      1.0  0.95181  0.12537  0.52298  1.0000
  H   H359      1.0  0.78210  0.03920  0.41157  1.0000
  C   C218      1.0  0.59423  0.48604  0.50405  1.0000
  C   C219      1.0  0.98548  0.19535  0.59384  1.0000
  C   C220      1.0  0.85061  0.44178  0.61219  1.0000
  H   H360      1.0  0.99465  0.21438  0.57143  1.0000
  H   H361      1.0  0.95472  0.26085  0.44154  1.0000
  S   S63       1.0  0.00004  0.36584  0.53313  1.0000
  H   H362      1.0  0.92738  0.14669  0.41326  1.0000
  H   H363      1.0  0.74076  0.05431  0.45526  1.0000
  H   H364      1.0  0.97611  0.09200  0.61499  1.0000
  C   C221      1.0  0.75811  0.46195  0.65315  1.0000
  N   N17       1.0  0.82860  0.46891  0.62354  1.0000
  H   H365      1.0  0.92125  0.25182  0.40782  1.0000
  H   H366      1.0  0.95178  0.19185  0.60057  1.0000
  H   H367      1.0  0.79052  0.46215  0.58145  1.0000
  H   H368      1.0  0.95285  0.18497  0.46713  1.0000
  C   C222      1.0  0.95869  0.21501  0.37098  1.0000
  C   C223      1.0  0.68865  0.12047  0.64071  1.0000
  H   H369      1.0  0.74838  0.47900  0.63521  1.0000
  H   H370      1.0  0.77138  0.04177  0.48292  1.0000
  C   C224      1.0  0.85066  0.40624  0.63453  1.0000
  H   H371      1.0  0.74355  0.16132  0.60805  1.0000
  C   C225      1.0  0.66862  0.04026  0.64976  1.0000
  C   C226      1.0  0.95800  0.17246  0.35738  1.0000
  H   H372      1.0  0.86681  0.42057  0.65701  1.0000
  H   H373      1.0  0.01918  0.16752  0.54569  1.0000
  H   H374      1.0  0.76017  0.41200  0.62283  1.0000
  H   H375      1.0  0.99532  0.30789  0.37886  1.0000
  H   H376      1.0  0.70300  0.04396  0.64532  1.0000
  H   H377      1.0  0.94338  0.15282  0.64799  1.0000
  C   C227      1.0  0.75510  0.03138  0.45977  1.0000
  H   H378      1.0  0.89508  0.11230  0.53325  1.0000
  C   C228      1.0  0.93137  0.13265  0.54012  1.0000
  H   H379      1.0  0.90181  0.49303  0.67654  1.0000
  H   H380      1.0  0.76300  0.14604  0.64198  1.0000
  H   H381      1.0  0.72597  0.43619  0.66444  1.0000
  H   H382      1.0  0.60545  0.01509  0.62240  1.0000
  H   H383      1.0  0.70688  0.02929  0.40790  1.0000
  H   H384      1.0  0.92318  0.14287  0.35914  1.0000
  H   H385      1.0  0.77826  0.48645  0.67148  1.0000
  H   H386      1.0  0.01393  0.11772  0.56362  1.0000
  C   C229      1.0  0.62539  0.07201  0.67550  1.0000
  H   H387      1.0  0.01325  0.14380  0.63197  1.0000
  H   H388      1.0  0.60127  0.06222  0.65581  1.0000
  H   H389      1.0  0.57371  0.50966  0.43476  1.0000
  C   C230      1.0  0.64169  0.02412  0.61923  1.0000
  H   H390      1.0  0.80627  0.51299  0.60228  1.0000
  H   H391      1.0  0.66203  0.07109  0.73234  1.0000
  C   C231      1.0  0.61653  0.48066  0.93914  1.0000
  H   H392      1.0  0.60754  0.42924  0.97250  1.0000
  C   C232      1.0  0.59111  0.43914  0.95503  1.0000
  H   H393      1.0  0.57907  0.06707  0.82733  1.0000
  C   C233      1.0  0.54925  0.46540  0.91027  1.0000
  C   C234      1.0  0.53624  0.07957  0.87638  1.0000
  C   C235      1.0  0.70573  0.09674  0.69034  1.0000
  H   H394      1.0  0.59460  0.05571  0.77338  1.0000
  C   C236      1.0  0.56007  0.03353  0.78332  1.0000
  H   H395      1.0  0.65211  0.50240  0.94448  1.0000
  H   H396      1.0  0.67616  0.03110  0.71453  1.0000
  C   C237      1.0  0.68894  0.06719  0.71987  1.0000
  H   H397      1.0  0.71797  0.07768  0.73604  1.0000
  H   H398      1.0  0.65370  0.13404  0.70476  1.0000
  H   H399      1.0  0.84210  0.46452  0.68700  1.0000
  H   H400      1.0  0.71776  0.13236  0.69735  1.0000
  S   S64       1.0  0.80077  0.06474  0.70622  1.0000
  H   H401      1.0  0.53549  0.02533  0.76417  1.0000
  H   H402      1.0  0.86168  0.15801  0.69170  1.0000
  H   H403      1.0  0.56616  0.11254  0.86991  1.0000
  C   C238      1.0  0.54469  0.41047  0.94864  1.0000
  H   H404      1.0  0.55670  0.09155  0.80159  1.0000
  C   C239      1.0  0.59564  0.49420  0.91678  1.0000
  C   C240      1.0  0.55117  0.05836  0.81039  1.0000
  C   C241      1.0  0.62236  0.11092  0.69215  1.0000
  H   H405      1.0  0.59476  0.09654  0.71005  1.0000
  H   H406      1.0  0.54856  0.05570  0.88239  1.0000
  H   H407      1.0  0.60963  0.04147  0.69077  1.0000
  H   H408      1.0  0.53278  0.47532  0.89288  1.0000
  H   H409      1.0  0.73738  0.09656  0.68273  1.0000
  H   H410      1.0  0.91774  0.64452  0.03026  1.0000
  S   S65       1.0  0.73243  0.97517  0.31749  1.0000
  H   H411      1.0  0.68557  0.75320  0.28199  1.0000
  H   H412      1.0  0.97534  0.69593  0.06852  1.0000
  H   H413      1.0  0.91635  0.66509  0.08096  1.0000
  C   C242      1.0  0.73261  0.84974  0.28343  1.0000
  N   N18       1.0  0.95047  0.60788  0.04846  1.0000
  H   H414      1.0  0.77690  0.78086  0.29159  1.0000
  H   H415      1.0  0.70246  0.85478  0.28572  1.0000
  H   H416      1.0  0.67859  0.71789  0.31343  1.0000
  C   C243      1.0  0.70288  0.75160  0.30352  1.0000
  C   C244      1.0  0.66433  0.78759  0.32961  1.0000
  H   H417      1.0  0.77849  0.83881  0.31157  1.0000
  H   H418      1.0  0.98193  0.62864  0.09388  1.0000
  H   H419      1.0  0.61904  0.71404  0.33804  1.0000
  H   H420      1.0  0.97357  0.75046  0.02563  1.0000
  C   C245      1.0  0.74531  0.74805  0.29370  1.0000
  H   H421      1.0  0.73998  0.73320  0.27004  1.0000
  C   C246      1.0  0.95101  0.66961  0.08466  1.0000
  C   C247      1.0  0.95118  0.62429  0.08132  1.0000
  H   H422      1.0  0.92139  0.59886  0.09511  1.0000
  C   C248      1.0  0.94094  0.55961  0.05093  1.0000
  H   H423      1.0  0.64972  0.78772  0.30651  1.0000
  H   H424      1.0  0.74849  0.86082  0.33204  1.0000
  H   H425      1.0  0.72771  0.82581  0.26436  1.0000
  H   H426      1.0  0.76165  0.88312  0.27658  1.0000
  H   H427      1.0  0.75083  0.72570  0.30991  1.0000
  C   C249      1.0  0.74395  0.83488  0.31444  1.0000
  H   H428      1.0  0.59449  0.74902  0.34700  1.0000
  N   N19       1.0  0.70959  0.78841  0.32607  1.0000
  H   H429      1.0  0.96099  0.68255  0.10869  1.0000
  C   C250      1.0  0.97752  0.55293  0.06790  1.0000
  H   H430      1.0  0.87928  0.58945  0.04467  1.0000
  H   H431      1.0  0.99810  0.67153  0.02725  1.0000
  C   C251      1.0  0.99593  0.63871  0.03327  1.0000
  C   C252      1.0  0.91200  0.60935  0.03160  1.0000
  H   H432      1.0  0.97919  0.56123  0.09297  1.0000
  H   H433      1.0  0.89248  0.73099  0.01841  1.0000
  C   C253      1.0  0.62660  0.74718  0.34785  1.0000
  H   H434      1.0  0.66875  0.81857  0.34149  1.0000
  H   H435      1.0  0.78889  0.78163  0.34586  1.0000
  H   H436      1.0  0.01182  0.57297  0.05717  1.0000
  H   H437      1.0  0.90778  0.53847  0.06322  1.0000
  H   H438      1.0  0.93632  0.54329  0.02800  1.0000
  H   H439      1.0  0.02408  0.64760  0.05006  1.0000
  H   H440      1.0  0.96869  0.51683  0.06647  1.0000
  S   S66       1.0  0.70505  0.84602  0.65730  1.0000
  Fe  Fe33      1.0  0.64663  0.77573  0.49434  1.0000
  S   S67       1.0  0.72181  0.80104  0.49744  1.0000
  S   S68       1.0  0.61513  0.80757  0.52450  1.0000
  Fe  Fe34      1.0  0.63371  0.71161  0.44094  1.0000
  S   S69       1.0  0.70874  0.73366  0.43938  1.0000
  S   S70       1.0  0.59023  0.66027  0.40442  1.0000
  Fe  Fe35      1.0  0.70374  0.72827  0.49162  1.0000
  S   S71       1.0  0.72535  0.68418  0.51891  1.0000
  Fe  Fe36      1.0  0.71969  0.80442  0.44531  1.0000
  S   S72       1.0  0.77385  0.86835  0.42162  1.0000
  S   S73       1.0  0.62778  0.70244  0.49273  1.0000
  S   S74       1.0  0.64541  0.78286  0.44255  1.0000
  H   H441      1.0  0.75792  0.80152  0.65134  1.0000
  Fe  Fe37      1.0  0.92686  0.70120  0.62106  1.0000
  S   S75       1.0  0.89136  0.62594  0.61585  1.0000
  S   S76       1.0  0.91079  0.74835  0.59273  1.0000
  H   H442      1.0  0.63542  0.52342  0.46548  1.0000
  Fe  Fe38      1.0  0.96022  0.63162  0.62350  1.0000
  H   H443      1.0  0.53106  0.63390  0.45956  1.0000
  N   N20       1.0  0.71799  0.98256  0.46041  1.0000
  H   H444      1.0  0.62438  0.62231  0.52345  1.0000
  C   C254      1.0  0.68867  0.98292  0.51614  1.0000
  C   C255      1.0  0.55848  0.52463  0.45082  1.0000
  C   C256      1.0  0.76037  0.90042  0.39566  1.0000
  C   C257      1.0  0.79551  0.94179  0.38432  1.0000
  H   H445      1.0  0.85703  0.80054  0.66187  1.0000
  H   H446      1.0  0.66987  0.58139  0.43311  1.0000
  C   C258      1.0  0.62476  0.59817  0.46155  1.0000
  C   C259      1.0  0.71598  0.88467  0.38498  1.0000
  H   H447      1.0  0.82993  0.95429  0.39252  1.0000
  H   H448      1.0  0.55034  0.57978  0.49407  1.0000
  H   H449      1.0  0.68849  0.85330  0.39390  1.0000
  C   C260      1.0  0.77766  0.70290  0.53863  1.0000
  C   C261      1.0  0.81132  0.74842  0.53922  1.0000
  C   C262      1.0  0.85214  0.76171  0.55553  1.0000
  C   C263      1.0  0.85968  0.72975  0.57147  1.0000
  C   C264      1.0  0.82588  0.68429  0.57101  1.0000
  C   C265      1.0  0.78517  0.67098  0.55464  1.0000
  H   H450      1.0  0.80600  0.77336  0.52706  1.0000
  H   H451      1.0  0.87804  0.79697  0.55578  1.0000
  H   H452      1.0  0.83109  0.65938  0.58326  1.0000
  H   H453      1.0  0.75932  0.63573  0.55440  1.0000
  C   C266      1.0  0.67896  0.83582  0.62082  1.0000
  C   C267      1.0  0.65268  0.85559  0.61195  1.0000
  C   C268      1.0  0.63259  0.84658  0.58239  1.0000
  C   C269      1.0  0.63894  0.81795  0.56178  1.0000
  C   C270      1.0  0.66486  0.79798  0.57088  1.0000
  C   C271      1.0  0.68486  0.80699  0.60026  1.0000
  H   H454      1.0  0.64771  0.87759  0.62785  1.0000
  H   H455      1.0  0.61228  0.86182  0.57548  1.0000
  H   H456      1.0  0.66914  0.77515  0.55541  1.0000
  H   H457      1.0  0.70493  0.79157  0.60707  1.0000
  C   C272      1.0  0.56790  0.56114  0.50238  1.0000
  C   C273      1.0  0.74286  0.94939  0.34970  1.0000
  S   S77       1.0  0.95202  0.62381  0.67529  1.0000
  H   H458      1.0  0.72682  0.96581  0.41330  1.0000
  H   H459      1.0  0.70366  0.67602  0.64296  1.0000
  C   C274      1.0  0.59811  0.58762  0.53002  1.0000
  H   H460      1.0  0.66832  0.89521  0.48205  1.0000
  H   H461      1.0  0.64993  0.55480  0.49972  1.0000
  H   H462      1.0  0.78021  0.67001  0.63471  1.0000
  H   H463      1.0  0.75596  0.96747  0.49486  1.0000
  H   H464      1.0  0.57639  0.59126  0.54820  1.0000
  H   H465      1.0  0.71410  0.88963  0.49675  1.0000
  Fe  Fe39      1.0  0.98412  0.69981  0.67644  1.0000
  C   C275      1.0  0.70370  0.90308  0.47672  1.0000
  H   H466      1.0  0.68686  0.71448  0.62596  1.0000
  S   S78       1.0  0.98564  0.59457  0.59180  1.0000
  C   C276      1.0  0.53535  0.61413  0.41262  1.0000
  H   H467      1.0  0.84982  0.77151  0.62627  1.0000
  H   H468      1.0  0.67338  0.89542  0.35258  1.0000
  H   H469      1.0  0.88093  0.85227  0.61808  1.0000
  H   H470      1.0  0.65965  0.98331  0.52851  1.0000
  H   H471      1.0  0.70027  0.67844  0.60232  1.0000
  C   C277      1.0  0.61975  0.53097  0.48592  1.0000
  C   C278      1.0  0.68097  0.99329  0.41118  1.0000
  C   C279      1.0  0.76818  0.78269  0.66764  1.0000
  C   C280      1.0  0.78650  0.72002  0.67018  1.0000
  H   H472      1.0  0.67068  0.00558  0.47476  1.0000
  H   H473      1.0  0.65052  0.99093  0.42320  1.0000
  H   H474      1.0  0.81433  0.99762  0.35244  1.0000
  C   C281      1.0  0.83524  0.78848  0.64082  1.0000
  C   C282      1.0  0.73765  0.95408  0.47260  1.0000
  N   N21       1.0  0.78627  0.75615  0.64978  1.0000
  C   C283      1.0  0.77441  0.79591  0.36268  1.0000
  H   H475      1.0  0.62343  0.58128  0.41160  1.0000
  C   C284      1.0  0.85875  0.51552  0.57248  1.0000
  C   C285      1.0  0.75996  0.73715  0.62027  1.0000
  H   H476      1.0  0.77865  0.78493  0.38617  1.0000
  H   H477      1.0  0.61462  0.56970  0.54088  1.0000
  C   C286      1.0  0.70988  0.69972  0.62358  1.0000
  H   H478      1.0  0.54020  0.52938  0.51241  1.0000
  H   H479      1.0  0.60694  0.61796  0.45715  1.0000
  H   H480      1.0  0.83833  0.70779  0.64632  1.0000
  C   C287      1.0  0.67953  0.97887  0.48087  1.0000
  H   H481      1.0  0.71413  0.79733  0.37606  1.0000
  H   H482      1.0  0.75893  0.76425  0.60635  1.0000
  H   H483      1.0  0.77775  0.72476  0.60442  1.0000
  H   H484      1.0  0.67210  0.93040  0.42911  1.0000
  H   H485      1.0  0.69083  0.95342  0.52533  1.0000
  H   H486      1.0  0.67024  0.97890  0.38754  1.0000
  S   S79       1.0  0.99708  0.70800  0.62475  1.0000
  H   H487      1.0  0.70316  0.88415  0.45553  1.0000
  S   S80       1.0  0.69048  0.95490  0.67785  1.0000
  H   H488      1.0  0.76467  0.95577  0.45655  1.0000
  C   C288      1.0  0.78673  0.96647  0.36169  1.0000
  H   H489      1.0  0.67113  0.63293  0.42307  1.0000
  H   H490      1.0  0.97732  0.54384  0.64877  1.0000
  C   C289      1.0  0.69998  0.96620  0.42834  1.0000
  C   C290      1.0  0.97965  0.54038  0.59888  1.0000
  H   H491      1.0  0.65282  0.61891  0.47780  1.0000
  H   H492      1.0  0.64744  0.94662  0.47689  1.0000
  H   H493      1.0  0.82788  0.82205  0.59884  1.0000
  Fe  Fe40      1.0  0.88655  0.62469  0.66791  1.0000
  C   C291      1.0  0.84364  0.83086  0.62215  1.0000
  C   C292      1.0  0.70745  0.90864  0.36165  1.0000
  H   H494      1.0  0.64176  0.99278  0.61163  1.0000
  C   C293      1.0  0.64823  0.59749  0.43061  1.0000
  N   N22       1.0  0.59214  0.55265  0.47561  1.0000
  C   C294      1.0  0.80238  0.68905  0.65438  1.0000
  H   H495      1.0  0.88784  0.54431  0.58379  1.0000
  S   S81       1.0  0.91728  0.69947  0.67287  1.0000
  H   H496      1.0  0.83189  0.85195  0.63477  1.0000
  C   C295      1.0  0.97624  0.52354  0.62904  1.0000
  H   H497      1.0  0.55016  0.54634  0.43591  1.0000
  H   H498      1.0  0.63509  0.74836  0.37280  1.0000
  H   H499      1.0  0.80034  0.66360  0.67154  1.0000
  H   H500      1.0  0.70409  0.74324  0.36375  1.0000
  H   H501      1.0  0.84839  0.53260  0.64705  1.0000
  H   H502      1.0  0.75231  0.69698  0.68011  1.0000
  H   H503      1.0  0.79496  0.83337  0.36253  1.0000
  H   H504      1.0  0.79536  0.80911  0.68228  1.0000
  H   H505      1.0  0.69813  0.72790  0.67884  1.0000
  H   H506      1.0  0.98227  0.52683  0.55012  1.0000
  C   C296      1.0  0.72332  0.77990  0.35767  1.0000
  H   H507      1.0  0.89418  0.52739  0.63247  1.0000
  H   H508      1.0  0.84742  0.53002  0.55361  1.0000
  C   C297      1.0  0.97927  0.51395  0.57354  1.0000
  H   H509      1.0  0.65156  0.01142  0.66625  1.0000
  Fe  Fe41      1.0  0.70199  0.90997  0.75860  1.0000
  S   S82       1.0  0.64284  0.86941  0.72705  1.0000
  S   S83       1.0  0.70626  0.88145  0.80566  1.0000
  C   C298      1.0  0.91023  0.72340  0.00025  1.0000
  H   H510      1.0  0.94889  0.79684  0.71042  1.0000
  Fe  Fe42      1.0  0.64150  0.93450  0.71876  1.0000
  S   S84       1.0  0.58241  0.94910  0.71196  1.0000
  H   H511      1.0  0.67096  0.67035  0.80151  1.0000
  S   S85       1.0  0.69647  0.97347  0.75340  1.0000
  S   S86       1.0  0.75627  0.93163  0.72161  1.0000
  Fe  Fe43      1.0  0.70221  0.59535  0.89359  1.0000
  S   S87       1.0  0.73131  0.66879  0.90689  1.0000
  H   H512      1.0  0.61833  0.63948  0.78192  1.0000
  Fe  Fe44      1.0  0.79297  0.61338  0.86351  1.0000
  S   S88       1.0  0.82797  0.68711  0.87498  1.0000
  S   S89       1.0  0.83813  0.59121  0.83833  1.0000
  Fe  Fe45      1.0  0.79354  0.66398  0.92152  1.0000
  S   S90       1.0  0.83054  0.69241  0.96717  1.0000
  Fe  Fe46      1.0  0.76369  0.68571  0.85911  1.0000
  S   S91       1.0  0.76711  0.73102  0.81866  1.0000
  S   S92       1.0  0.76223  0.58963  0.91125  1.0000
  S   S93       1.0  0.73082  0.61287  0.84483  1.0000
  H   H513      1.0  0.98224  0.58899  0.99426  1.0000
  C   C299      1.0  0.95611  0.73427  0.00447  1.0000
  C   C300      1.0  0.83121  0.58501  0.79780  1.0000
  C   C301      1.0  0.86700  0.58778  0.77917  1.0000
  C   C302      1.0  0.86398  0.58734  0.74661  1.0000
  C   C303      1.0  0.82421  0.58187  0.73260  1.0000
  C   C304      1.0  0.78765  0.57706  0.75122  1.0000
  C   C305      1.0  0.79137  0.57922  0.78374  1.0000
  H   H514      1.0  0.89766  0.59166  0.78992  1.0000
  H   H515      1.0  0.89217  0.59061  0.73244  1.0000
  H   H516      1.0  0.75665  0.57238  0.74051  1.0000
  H   H517      1.0  0.76320  0.57590  0.79790  1.0000
  H   H518      1.0  0.67585  0.69582  0.85309  1.0000
  H   H519      1.0  0.87329  0.59437  0.98911  1.0000
  H   H520      1.0  0.97246  0.62254  0.86366  1.0000
  C   C306      1.0  0.75229  0.77448  0.81621  1.0000
  C   C307      1.0  0.75317  0.79311  0.78684  1.0000
  C   C308      1.0  0.73931  0.82594  0.78328  1.0000
  C   C309      1.0  0.72488  0.84087  0.80918  1.0000
  C   C310      1.0  0.72479  0.82281  0.83864  1.0000
  C   C311      1.0  0.73853  0.78984  0.84220  1.0000
  H   H521      1.0  0.76399  0.78165  0.76664  1.0000
  H   H522      1.0  0.73964  0.83964  0.76050  1.0000
  H   H523      1.0  0.71407  0.83449  0.85882  1.0000
  H   H524      1.0  0.73842  0.77637  0.86501  1.0000
  C   C312      1.0  0.88754  0.70392  0.97233  1.0000
  Fe  Fe47      1.0  0.74534  0.99114  0.71277  1.0000
  C   C313      1.0  0.95642  0.70505  0.95328  1.0000
  C   C314      1.0  0.91077  0.69427  0.94903  1.0000
  H   H525      1.0  0.97381  0.69735  0.93514  1.0000
  H   H526      1.0  0.89358  0.67879  0.92762  1.0000
  H   H527      1.0  0.97780  0.71214  0.77836  1.0000
  H   H528      1.0  0.55164  0.54337  0.95206  1.0000
  H   H529      1.0  0.73791  0.74396  0.71079  1.0000
  C   C315      1.0  0.95866  0.70527  0.80065  1.0000
  C   C316      1.0  0.63992  0.68920  0.85393  1.0000
  H   H530      1.0  0.65550  0.73923  0.79934  1.0000
  H   H531      1.0  0.80853  0.73571  0.69077  1.0000
  H   H532      1.0  0.00609  0.74006  0.88971  1.0000
  C   C317      1.0  0.62375  0.67758  0.88810  1.0000
  H   H533      1.0  0.71558  0.77954  0.69903  1.0000
  H   H534      1.0  0.53226  0.51649  0.00632  1.0000
  S   S94       1.0  0.81959  0.58087  0.69191  1.0000
  H   H535      1.0  0.64221  0.72226  0.84859  1.0000
  H   H536      1.0  0.98008  0.73013  0.81837  1.0000
  H   H537      1.0  0.63388  0.65350  0.89792  1.0000
  H   H538      1.0  0.58636  0.66296  0.89083  1.0000
  C   C318      1.0  0.64122  0.70957  0.78379  1.0000
  C   C319      1.0  0.56370  0.64651  0.82791  1.0000
  C   C320      1.0  0.90364  0.59285  0.99770  1.0000
  H   H539      1.0  0.66523  0.71850  0.76372  1.0000
  H   H540      1.0  0.89282  0.77683  0.72600  1.0000
  H   H541      1.0  0.64062  0.70881  0.90231  1.0000
  H   H542      1.0  0.64402  0.61517  0.84560  1.0000
  H   H543      1.0  0.56246  0.69966  0.85724  1.0000
  H   H544      1.0  0.57955  0.71736  0.81772  1.0000
  H   H545      1.0  0.58979  0.59783  0.86302  1.0000
  N   N23       1.0  0.91523  0.74696  0.78444  1.0000
  C   C321      1.0  0.94510  0.78694  0.80450  1.0000
  C   C322      1.0  0.93568  0.75590  0.75207  1.0000
  C   C323      1.0  0.91258  0.70413  0.79661  1.0000
  C   C324      1.0  0.86772  0.74087  0.78465  1.0000
  C   C325      1.0  0.93290  0.78207  0.83952  1.0000
  C   C326      1.0  0.92903  0.79027  0.73247  1.0000
  H   H546      1.0  0.55551  0.89784  0.77039  1.0000
  C   C327      1.0  0.83256  0.70218  0.76421  1.0000
  H   H547      1.0  0.98154  0.79559  0.80234  1.0000
  H   H548      1.0  0.94422  0.81767  0.79640  1.0000
  H   H549      1.0  0.92254  0.72417  0.73842  1.0000
  H   H550      1.0  0.97315  0.76871  0.75290  1.0000
  H   H551      1.0  0.89344  0.69345  0.81909  1.0000
  H   H552      1.0  0.89243  0.67582  0.78053  1.0000
  H   H553      1.0  0.85306  0.73309  0.80858  1.0000
  H   H554      1.0  0.86759  0.77281  0.77875  1.0000
  H   H555      1.0  0.93398  0.75301  0.85044  1.0000
  H   H556      1.0  0.95838  0.81289  0.85172  1.0000
  H   H557      1.0  0.89919  0.77964  0.84398  1.0000
  Fe  Fe48      1.0  0.69703  0.89396  0.68971  1.0000
  H   H558      1.0  0.57957  0.53829  0.83070  1.0000
  H   H559      1.0  0.60951  0.57332  0.79842  1.0000
  C   C328      1.0  0.63616  0.66648  0.79939  1.0000
  H   H560      1.0  0.97379  0.67605  0.86322  1.0000
  S   S95       1.0  0.02881  0.73359  0.71844  1.0000
  H   H561      1.0  0.81221  0.67140  0.77859  1.0000
  H   H562      1.0  0.84783  0.69290  0.74455  1.0000
  H   H563      1.0  0.80885  0.71256  0.75395  1.0000
  S   S96       1.0  0.62500  0.54761  0.89766  1.0000
  C   C329      1.0  0.97959  0.72566  0.98072  1.0000
  C   C330      1.0  0.58641  0.56972  0.81817  1.0000
  H   H564      1.0  0.94161  0.82310  0.74448  1.0000
  C   C331      1.0  0.99199  0.65826  0.87144  1.0000
  H   H565      1.0  0.95192  0.67141  0.80865  1.0000
  C   C332      1.0  0.60925  0.60995  0.84075  1.0000
  N   N24       1.0  0.61164  0.65366  0.83043  1.0000
  C   C333      1.0  0.00906  0.62115  0.00373  1.0000
  H   H566      1.0  0.99009  0.65582  0.89703  1.0000
  H   H567      1.0  0.93228  0.61564  0.98222  1.0000
  H   H568      1.0  0.60830  0.70381  0.77419  1.0000
  H   H569      1.0  0.55950  0.00211  0.79125  1.0000
  C   C334      1.0  0.72756  0.75625  0.69013  1.0000
  H   H570      1.0  0.54917  0.63198  0.80482  1.0000
  C   C335      1.0  0.55722  0.68829  0.83272  1.0000
  H   H571      1.0  0.89597  0.55733  0.99513  1.0000
  H   H572      1.0  0.54041  0.62092  0.84516  1.0000
  H   H573      1.0  0.87480  0.52288  0.69313  1.0000
  H   H574      1.0  0.55338  0.56484  0.80949  1.0000
  C   C336      1.0  0.53361  0.92968  0.73654  1.0000
  H   H575      1.0  0.53451  0.99764  0.85237  1.0000
  H   H576      1.0  0.01903  0.64667  0.98485  1.0000
