data_image0
_chemical_formula_structural       S2CSFeSFeS2FeS2FeSFeHS2HSHFeHSFeSNCHSCS2NFeSCSFeHSC6H4C6H4C6H4C6H7CH2CH5CNSCNFeSCHC2H3C2H8CH2CHCH5C2HSH3CH7CHFeHCFeH2CNC8H20C2H3CH3CNH4C3HCHCHCH3CHCH4CHC2H3C2H2CHCHSH5CH3CHSHCHCHCH5C2H2CHCNH4S2CSFeSFeS2FeS2FeSFeS3HSHFeHSFeSHCS2HSHCHS2H4C6H4C6H4C6H4C6H6CHNHCH5CNC8H20CH4CH5CH2FeCHCFeH3CFeCHCH4CHNHC2FeCH5CHCHC2FeSCH2C3H6SHC2HC2NH2CH4CSH2CH3CH2CH2FeCHCH2C2H4C2H3SCH2C3HCHCHFeS2FeS2FeSFeS3HS2FeCSC2FeS2H4S2HFeSHS2CHCSCH2C2H2C6H6CSHC6H4FeH4C6H4C6H5CH2FeHCH4CH2SCNC8H22CHNCH2CH2CH4CH3NC6H6CH8NCH4C4H2FeCH2CHFeHCH3CSHCH7CH4CH2CH4CSCH2FeNC4HC2H2C2H5FeS2FeS2FeSFeS3HSCFeCSHCFeS2CH2FeS2CFeSH2SH4CH2CH3C6H4SCFeHC7H9C6H4C6H6C2H2C3HCH2NCH2FeH2NH4SHNC8H22CNHCHNH3CHCH2CHCH6C2H5CH4C2H2CH4C2H2CH2CSH2C2HCSCNH4C3H4CH3C2H2CH5CHCHSH3SCH2FeHCHCH3CHCSH2C2H2NHC3H7NHSH4CSFeSHS2HC2FeSCSCSFeSHSFeSHSC2H4C3H2CH2CH2CH2FeH3C3H2CHCH5SH2C2H2FeHNCSCH2CNH7CHCHCH4FeHCHCHSCH2CH6CH2CHCHCHNCHCHC2NH2CHCHC2HC4H6CH2FeHC3H2CH2CHC2H3C2H3FeS4CH2FeSHSHSFeSHSFeSHSC2HCH4CH3C3H4SH4CHSC3H4CHCH3NCHCNHC2H4C2H2CSHCHC2H2SC4H2CH6C2HCH3C2H5CFeCHCH2CHCH13CHCH3C2HCHFeHCHCFeCSCHCH2CH2CH3CHC2H3FeHNH9CH2S2CFeSHCH2FeS2HFeSCHSHFeSH3SC2H3CHCH3CHCHC4H2CSCH6SC2H2C2H4SH2CNH2C4H3CHC2HSHC2H2C3H2FeHCH4C4HNH5CSH2CHCH2FeSH4CHFeCSH4SH4C3HCHCH4FeC2H4SHSCH3CHCNHC2HCNH2CHCH2SHCSCSCHFeS2HFeS4FeHSC2HSCHCFeCH6C2H3C2H2CH2CHSH2FeH2C3HC2H4C3HCHCFeH2C2H3C2H3CHSHCSH8CH2CH2C3H4C2HFeCHCHCHCH7SCHNFeC2HNH3CHCHCH9C2HC3H4C3HCNHCHCH6C2H2C2FeS2FeS2FeSFeS3CS2FeHSFeS3HS2CFeSHSFeSCHFeSH3CHCHC2H2C6H4C6H5CHC6H4C6H4C2H5C3HC2H4CH5NC8H20C2HC3SHCH2C2SH3FeH11C2H4C2HCHNH4CNH3CH5C2HCHCHCHCHSC4H13CHCHFeCH3CNHSH2NH5C2SH2C2H2CHFeHCH4CH3C2FeS2FeS2FeSFeS3CSCFeHSFeSH3S2CFeSHSFeSH3SHCH3C2H2CHC6H4C6H6C7H4C6H4CHSNCH2CHC3H2NC8H20C2H4C2H8C2H2CH4CH5CH4FeHCHCHCNCH4CH4SNH2CHCNCHC3SHFeCH6CH4FeCHSCNHSH2CH2C5H11CH3CH2CH5CH5NHCHC2SCNHSHFeHS2CFeS2HFeS2FeS2FeSFeS3HNFeSHSHSFeSHSHCH2CHSCHC6H4C6H4C6H4C6H4C2H3C2H4NC5HSC2HC2H7C2H2CH4C2H5C2H3NC8H22NH11C2H3NCH2NH3CHNH2C2FeNCH7CHC3HFeHCH2CHCHCH2FeH6C3H3CHCSC2H2C2H2CSHCH8CSHCH2CH2CFeH5CH3CHCH5S2HFeS2CHFeS2HFeS2FeS2FeSFeS3H2FeSHSNSFeSHSCFeH2CH4C6H4C6H4C6H4C6H6C2SHCH7CH4CH3CH7CHSHFeNC4HC2H3CHFeCH3CH4CH2SH3SH4CSHCH12CH4CH4CHNC8H20NC7H4C3HSC2NHC2FeHC2FeH2CHC3H2C2
_chemical_formula_sum              "S256 C896 Fe128 H1536 N64"
_cell_length_a       53.8225
_cell_length_b       53.7872
_cell_length_c       41.5016
_cell_angle_alpha    90.1527
_cell_angle_beta     90.1555
_cell_angle_gamma    89.6757

_space_group_name_H-M_alt    "P 1"
_space_group_IT_number       1

loop_
  _space_group_symop_operation_xyz
  'x, y, z'

loop_
  _atom_site_type_symbol
  _atom_site_label
  _atom_site_symmetry_multiplicity
  _atom_site_fract_x
  _atom_site_fract_y
  _atom_site_fract_z
  _atom_site_occupancy
  S   S1        1.0  0.05669  0.02687  0.35199  1.0000
  S   S2        1.0  0.10428  0.01936  0.39943  1.0000
  C   C1        1.0  0.32288  0.39717  0.44926  1.0000
  S   S3        1.0  0.04493  0.02089  0.44873  1.0000
  Fe  Fe1       1.0  0.09817  0.03334  0.34917  1.0000
  S   S4        1.0  0.11128  0.07145  0.33092  1.0000
  Fe  Fe2       1.0  0.24493  0.18492  0.20308  1.0000
  S   S5        1.0  0.28294  0.19181  0.22364  1.0000
  S   S6        1.0  0.22877  0.20556  0.15926  1.0000
  Fe  Fe3       1.0  0.23480  0.14116  0.24934  1.0000
  S   S7        1.0  0.27267  0.14554  0.27190  1.0000
  S   S8        1.0  0.21385  0.10683  0.26792  1.0000
  Fe  Fe4       1.0  0.26478  0.18670  0.27219  1.0000
  S   S9        1.0  0.27748  0.20599  0.31884  1.0000
  Fe  Fe5       1.0  0.28757  0.15003  0.22196  1.0000
  H   H1        1.0  0.26107  0.34965  0.35523  1.0000
  S   S10       1.0  0.22606  0.18225  0.25197  1.0000
  S   S11       1.0  0.25043  0.14327  0.19886  1.0000
  H   H2        1.0  0.18132  0.35822  0.09751  1.0000
  S   S12       1.0  0.27297  0.35067  0.01855  1.0000
  H   H3        1.0  0.06804  0.45356  0.02453  1.0000
  Fe  Fe6       1.0  0.24440  0.31197  0.45451  1.0000
  H   H4        1.0  0.11894  0.07763  0.20988  1.0000
  S   S13       1.0  0.23360  0.29408  0.40619  1.0000
  Fe  Fe7       1.0  0.26272  0.31010  0.02320  1.0000
  S   S14       1.0  0.27454  0.29131  0.07064  1.0000
  N   N1        1.0  0.30868  0.32874  0.37528  1.0000
  C   C2        1.0  0.06634  0.07891  0.19465  1.0000
  H   H5        1.0  0.16972  0.33995  0.12917  1.0000
  S   S15       1.0  0.24039  0.35382  0.45703  1.0000
  C   C3        1.0  0.32010  0.35939  0.32892  1.0000
  S   S16       1.0  0.06033  0.46337  0.10432  1.0000
  S   S17       1.0  0.22369  0.31572  0.00432  1.0000
  N   N2        1.0  0.08189  0.42601  0.99073  1.0000
  Fe  Fe8       1.0  0.10195  0.45932  0.10074  1.0000
  S   S18       1.0  0.11653  0.42065  0.08691  1.0000
  C   C4        1.0  0.08369  0.40365  0.01262  1.0000
  S   S19       1.0  0.31103  0.37751  0.48011  1.0000
  Fe  Fe9       1.0  0.27651  0.35289  0.48450  1.0000
  H   H6        1.0  0.01241  0.46848  0.39004  1.0000
  S   S20       1.0  0.04441  0.47162  0.19476  1.0000
  C   C5        1.0  0.18708  0.39961  0.02981  1.0000
  C   C6        1.0  0.17054  0.38135  0.04016  1.0000
  C   C7        1.0  0.14917  0.38812  0.05785  1.0000
  C   C8        1.0  0.14406  0.41318  0.06533  1.0000
  C   C9        1.0  0.16049  0.43145  0.05479  1.0000
  C   C10       1.0  0.18183  0.42467  0.03709  1.0000
  H   H7        1.0  0.17419  0.36204  0.03441  1.0000
  H   H8        1.0  0.13647  0.37387  0.06571  1.0000
  H   H9        1.0  0.15681  0.45080  0.06030  1.0000
  H   H10       1.0  0.04536  0.39738  0.02997  1.0000
  C   C11       1.0  0.24217  0.22903  0.13459  1.0000
  C   C12       1.0  0.26362  0.24185  0.14371  1.0000
  C   C13       1.0  0.27349  0.26041  0.12349  1.0000
  C   C14       1.0  0.26196  0.26663  0.09405  1.0000
  C   C15       1.0  0.24049  0.25383  0.08493  1.0000
  C   C16       1.0  0.23068  0.23519  0.10511  1.0000
  H   H11       1.0  0.27241  0.23770  0.16655  1.0000
  H   H12       1.0  0.28999  0.27030  0.13097  1.0000
  H   H13       1.0  0.23136  0.25837  0.06244  1.0000
  H   H14       1.0  0.21402  0.22549  0.09786  1.0000
  C   C17       1.0  0.24576  0.26895  0.38296  1.0000
  C   C18       1.0  0.26695  0.25556  0.39227  1.0000
  C   C19       1.0  0.27641  0.23650  0.37222  1.0000
  C   C20       1.0  0.26478  0.23044  0.34279  1.0000
  C   C21       1.0  0.24353  0.24373  0.33360  1.0000
  C   C22       1.0  0.23415  0.26289  0.35354  1.0000
  H   H15       1.0  0.27610  0.25997  0.41479  1.0000
  H   H16       1.0  0.29283  0.22629  0.37961  1.0000
  H   H17       1.0  0.23440  0.23940  0.31103  1.0000
  H   H18       1.0  0.21781  0.27319  0.34604  1.0000
  C   C23       1.0  0.14008  0.08096  0.31389  1.0000
  C   C24       1.0  0.14265  0.10570  0.30333  1.0000
  C   C25       1.0  0.16484  0.11394  0.28880  1.0000
  C   C26       1.0  0.18490  0.09755  0.28486  1.0000
  C   C27       1.0  0.18231  0.07284  0.29545  1.0000
  C   C28       1.0  0.16009  0.06456  0.30981  1.0000
  H   H19       1.0  0.12725  0.11853  0.30616  1.0000
  H   H20       1.0  0.16633  0.13290  0.28046  1.0000
  H   H21       1.0  0.19768  0.05996  0.29260  1.0000
  H   H22       1.0  0.15847  0.04548  0.31772  1.0000
  H   H23       1.0  0.25653  0.36639  0.39153  1.0000
  H   H24       1.0  0.31462  0.00734  0.11467  1.0000
  H   H25       1.0  0.19979  0.38828  0.13915  1.0000
  C   C29       1.0  0.06404  0.40192  0.03958  1.0000
  H   H26       1.0  0.11733  0.03501  0.22803  1.0000
  H   H27       1.0  0.21464  0.34041  0.17410  1.0000
  C   C30       1.0  0.30908  0.40336  0.42180  1.0000
  H   H28       1.0  0.29015  0.39704  0.41953  1.0000
  H   H29       1.0  0.28740  0.99553  0.09609  1.0000
  H   H30       1.0  0.31678  0.13309  0.13763  1.0000
  H   H31       1.0  0.08089  0.09221  0.20194  1.0000
  H   H32       1.0  0.13302  0.43733  0.99443  1.0000
  C   C31       1.0  0.29980  0.99494  0.17258  1.0000
  N   N3        1.0  0.07940  0.04659  0.23844  1.0000
  S   S21       1.0  0.10857  0.47699  0.14915  1.0000
  C   C32       1.0  0.06647  0.06375  0.26189  1.0000
  N   N4        1.0  0.31370  0.16972  0.11623  1.0000
  Fe  Fe10      1.0  0.23477  0.35571  0.99695  1.0000
  S   S22       1.0  0.32564  0.13472  0.20685  1.0000
  C   C33       1.0  0.03797  0.06093  0.26380  1.0000
  H   H33       1.0  0.30989  0.05483  0.15141  1.0000
  C   C34       1.0  0.08541  0.99939  0.22812  1.0000
  C   C35       1.0  0.32040  0.14241  0.11425  1.0000
  H   H34       1.0  0.28916  0.16416  0.15662  1.0000
  H   H35       1.0  0.07046  0.08357  0.25685  1.0000
  H   H36       1.0  0.07366  0.06065  0.28673  1.0000
  C   C36       1.0  0.08525  0.44925  0.01074  1.0000
  C   C37       1.0  0.28831  0.34152  0.39405  1.0000
  H   H37       1.0  0.11223  0.47832  0.99889  1.0000
  H   H38       1.0  0.28169  0.19070  0.13422  1.0000
  H   H39       1.0  0.26701  0.16126  0.08768  1.0000
  H   H40       1.0  0.19608  0.31510  0.16306  1.0000
  H   H41       1.0  0.13889  0.07302  0.24333  1.0000
  H   H42       1.0  0.02972  0.07789  0.27486  1.0000
  H   H43       1.0  0.02918  0.05803  0.23991  1.0000
  H   H44       1.0  0.03314  0.04511  0.27965  1.0000
  C   C38       1.0  0.01939  0.00870  0.47079  1.0000
  H   H45       1.0  0.00430  0.43213  0.36126  1.0000
  H   H46       1.0  0.07464  0.01674  0.27296  1.0000
  C   C39       1.0  0.27108  0.35914  0.37504  1.0000
  H   H47       1.0  0.14295  0.00474  0.49008  1.0000
  C   C40       1.0  0.23173  0.35287  0.11556  1.0000
  H   H48       1.0  0.11047  0.08928  0.24980  1.0000
  H   H49       1.0  0.19447  0.43896  0.02914  1.0000
  H   H50       1.0  0.28616  0.32311  0.33202  1.0000
  H   H51       1.0  0.21537  0.38300  0.08602  1.0000
  H   H52       1.0  0.30737  0.16667  0.06490  1.0000
  C   C41       1.0  0.29898  0.20448  0.07664  1.0000
  C   C42       1.0  0.01001  0.44802  0.34595  1.0000
  H   H53       1.0  0.08747  0.04520  0.18729  1.0000
  S   S23       1.0  0.21436  0.39233  0.00758  1.0000
  H   H54       1.0  0.06318  0.41899  0.05455  1.0000
  H   H55       1.0  0.28305  0.29989  0.36106  1.0000
  H   H56       1.0  0.29672  0.09352  0.17960  1.0000
  C   C43       1.0  0.10712  0.04848  0.24350  1.0000
  H   H57       1.0  0.27626  0.32749  0.40590  1.0000
  H   H58       1.0  0.04164  0.45972  0.37378  1.0000
  H   H59       1.0  0.29611  0.35291  0.41393  1.0000
  H   H60       1.0  0.09984  0.44610  0.02941  1.0000
  H   H61       1.0  0.20041  0.32512  0.07384  1.0000
  H   H62       1.0  0.24929  0.16256  0.12401  1.0000
  H   H63       1.0  0.19920  0.28286  0.12372  1.0000
  C   C44       1.0  0.00700  0.47114  0.23979  1.0000
  H   H64       1.0  0.05578  0.04077  0.19638  1.0000
  Fe  Fe11      1.0  0.06712  0.48400  0.15092  1.0000
  H   H65       1.0  0.24398  0.30215  0.13692  1.0000
  C   C45       1.0  0.31964  0.41825  0.39749  1.0000
  Fe  Fe12      1.0  0.06358  0.00971  0.40096  1.0000
  H   H66       1.0  0.26943  0.13671  0.11750  1.0000
  H   H67       1.0  0.04836  0.08512  0.20496  1.0000
  C   C46       1.0  0.00480  0.00078  0.27718  1.0000
  N   N5        1.0  0.21542  0.14777  0.36252  1.0000
  C   C47       1.0  0.20525  0.12178  0.36626  1.0000
  C   C48       1.0  0.24008  0.14519  0.34565  1.0000
  C   C49       1.0  0.19778  0.16208  0.34106  1.0000
  C   C50       1.0  0.21742  0.15968  0.39542  1.0000
  C   C51       1.0  0.17869  0.11969  0.37993  1.0000
  C   C52       1.0  0.25991  0.12948  0.36329  1.0000
  C   C53       1.0  0.20424  0.18942  0.33437  1.0000
  C   C54       1.0  0.23611  0.18134  0.39922  1.0000
  H   H68       1.0  0.20545  0.11172  0.34276  1.0000
  H   H69       1.0  0.21724  0.11053  0.38260  1.0000
  H   H70       1.0  0.24864  0.16335  0.34036  1.0000
  H   H71       1.0  0.23733  0.13652  0.32150  1.0000
  H   H72       1.0  0.19600  0.15256  0.31728  1.0000
  H   H73       1.0  0.17882  0.16279  0.35152  1.0000
  H   H74       1.0  0.19889  0.16665  0.40337  1.0000
  H   H75       1.0  0.22309  0.14550  0.41358  1.0000
  H   H76       1.0  0.17629  0.13030  0.40264  1.0000
  H   H77       1.0  0.16446  0.12547  0.36205  1.0000
  H   H78       1.0  0.17483  0.09984  0.38529  1.0000
  H   H79       1.0  0.25597  0.10932  0.36093  1.0000
  H   H80       1.0  0.27825  0.13262  0.35175  1.0000
  H   H81       1.0  0.26172  0.13452  0.38906  1.0000
  H   H82       1.0  0.20259  0.20103  0.35640  1.0000
  H   H83       1.0  0.19065  0.19706  0.31673  1.0000
  H   H84       1.0  0.22280  0.19165  0.32342  1.0000
  H   H85       1.0  0.22789  0.19588  0.41507  1.0000
  H   H86       1.0  0.24134  0.19083  0.37675  1.0000
  H   H87       1.0  0.25326  0.17496  0.41173  1.0000
  C   C55       1.0  0.07243  0.05168  0.20373  1.0000
  C   C56       1.0  0.20764  0.31705  0.09672  1.0000
  H   H88       1.0  0.18545  0.36962  0.17032  1.0000
  H   H89       1.0  0.31011  0.21320  0.15780  1.0000
  H   H90       1.0  0.30887  0.42274  0.37623  1.0000
  C   C57       1.0  0.18575  0.35174  0.12225  1.0000
  H   H91       1.0  0.06936  0.38653  0.05610  1.0000
  H   H92       1.0  0.22669  0.35669  0.06297  1.0000
  H   H93       1.0  0.05179  0.01757  0.24208  1.0000
  C   C58       1.0  0.23599  0.30867  0.15987  1.0000
  N   N6        1.0  0.20955  0.33680  0.12257  1.0000
  H   H94       1.0  0.30844  0.13259  0.09644  1.0000
  H   H95       1.0  0.24786  0.37818  0.08064  1.0000
  H   H96       1.0  0.32258  0.33294  0.44439  1.0000
  H   H97       1.0  0.23097  0.29174  0.17365  1.0000
  C   C59       1.0  0.01395  0.47720  0.01102  1.0000
  C   C60       1.0  0.31627  0.08926  0.17682  1.0000
  C   C61       1.0  0.29701  0.31235  0.34988  1.0000
  H   H98       1.0  0.16698  0.38473  0.14043  1.0000
  C   C62       1.0  0.28833  0.17135  0.13148  1.0000
  H   H99       1.0  0.23564  0.36578  0.13594  1.0000
  C   C63       1.0  0.22997  0.36844  0.08451  1.0000
  H   H100      1.0  0.10193  0.40307  0.02509  1.0000
  C   C64       1.0  0.02007  0.48572  0.21748  1.0000
  H   H101      1.0  0.29501  0.21584  0.09814  1.0000
  H   H102      1.0  0.02334  0.46490  0.02769  1.0000
  H   H103      1.0  0.17190  0.30053  0.11165  1.0000
  C   C65       1.0  0.07193  0.02037  0.24674  1.0000
  H   H104      1.0  0.18919  0.28280  0.08279  1.0000
  C   C66       1.0  0.31441  0.18053  0.08267  1.0000
  H   H105      1.0  0.22619  0.30950  0.09005  1.0000
  H   H106      1.0  0.08110  0.48903  0.00167  1.0000
  H   H107      1.0  0.24889  0.34129  0.11325  1.0000
  H   H108      1.0  0.11820  0.02593  0.48170  1.0000
  C   C67       1.0  0.11900  0.07376  0.23609  1.0000
  H   H109      1.0  0.25088  0.31864  0.17316  1.0000
  C   C68       1.0  0.26756  0.15707  0.11377  1.0000
  C   C69       1.0  0.01155  0.02121  0.00202  1.0000
  H   H110      1.0  0.06441  0.08022  0.16804  1.0000
  H   H111      1.0  0.00786  0.00875  0.30082  1.0000
  H   H112      1.0  0.01207  0.45179  0.24286  1.0000
  C   C70       1.0  0.21289  0.32558  0.15553  1.0000
  C   C71       1.0  0.18489  0.37478  0.14448  1.0000
  H   H113      1.0  0.02276  0.44048  0.32729  1.0000
  H   H114      1.0  0.02701  0.47846  0.30400  1.0000
  C   C72       1.0  0.19090  0.29471  0.10461  1.0000
  H   H115      1.0  0.28121  0.37565  0.36624  1.0000
  C   C73       1.0  0.03829  0.49026  0.32037  1.0000
  H   H116      1.0  0.11206  0.04352  0.26883  1.0000
  S   S24       1.0  0.28152  0.31137  0.47951  1.0000
  H   H117      1.0  0.08621  0.00299  0.20187  1.0000
  H   H118      1.0  0.02145  0.03775  0.00932  1.0000
  H   H119      1.0  0.28119  0.20007  0.06429  1.0000
  H   H120      1.0  0.06425  0.99785  0.01632  1.0000
  H   H121      1.0  0.32002  0.99587  0.17753  1.0000
  C   C74       1.0  0.02313  0.46762  0.36714  1.0000
  H   H122      1.0  0.30018  0.35975  0.32264  1.0000
  H   H123      1.0  0.30923  0.21670  0.05978  1.0000
  H   H124      1.0  0.05648  0.48046  0.32319  1.0000
  C   C75       1.0  0.09276  0.47331  0.99282  1.0000
  H   H125      1.0  0.30961  0.29778  0.40879  1.0000
  S   S25       1.0  0.10637  0.99608  0.32690  1.0000
  H   H126      1.0  0.08273  0.38603  0.99844  1.0000
  C   C76       1.0  0.99741  0.48318  0.13059  1.0000
  H   H127      1.0  0.30542  0.28839  0.30892  1.0000
  C   C77       1.0  0.32382  0.06729  0.16084  1.0000
  H   H128      1.0  0.04168  0.42744  0.99362  1.0000
  C   C78       1.0  0.99677  0.45450  0.12925  1.0000
  H   H129      1.0  0.01397  0.44712  0.14071  1.0000
  H   H130      1.0  0.29369  0.01264  0.16131  1.0000
  H   H131      1.0  0.99657  0.44748  0.10412  1.0000
  H   H132      1.0  0.00253  0.45449  0.47070  1.0000
  H   H133      1.0  0.32145  0.00892  0.05874  1.0000
  C   C79       1.0  0.31509  0.29566  0.33067  1.0000
  C   C80       1.0  0.32674  0.34739  0.36173  1.0000
  H   H134      1.0  0.01409  0.48886  0.11682  1.0000
  H   H135      1.0  0.00147  0.48867  0.15579  1.0000
  C   C81       1.0  0.00096  0.47402  0.47669  1.0000
  H   H136      1.0  0.32628  0.37910  0.32928  1.0000
  C   C82       1.0  0.32243  0.31191  0.39846  1.0000
  N   N7        1.0  0.02580  0.49326  0.35267  1.0000
  H   H137      1.0  0.03536  0.49296  0.42348  1.0000
  H   H138      1.0  0.32076  0.27914  0.34496  1.0000
  H   H139      1.0  0.08915  0.99486  0.47028  1.0000
  H   H140      1.0  0.10439  0.99619  0.23787  1.0000
  S   S26       1.0  0.07025  0.03630  0.86403  1.0000
  S   S27       1.0  0.18324  0.36351  0.51888  1.0000
  C   C83       1.0  0.29283  0.28562  0.83655  1.0000
  S   S28       1.0  0.04259  0.02164  0.94937  1.0000
  Fe  Fe13      1.0  0.11003  0.02326  0.86441  1.0000
  S   S29       1.0  0.14502  0.04745  0.86668  1.0000
  Fe  Fe14      1.0  0.24354  0.18337  0.70723  1.0000
  S   S30       1.0  0.28014  0.18612  0.73322  1.0000
  S   S31       1.0  0.22966  0.20356  0.66194  1.0000
  Fe  Fe15      1.0  0.22528  0.14128  0.75174  1.0000
  S   S32       1.0  0.26107  0.14062  0.77985  1.0000
  S   S33       1.0  0.18984  0.11833  0.75778  1.0000
  Fe  Fe16      1.0  0.25809  0.18254  0.77919  1.0000
  S   S34       1.0  0.26910  0.20138  0.82675  1.0000
  Fe  Fe17      1.0  0.28057  0.14410  0.73196  1.0000
  S   S35       1.0  0.10360  0.99818  0.90718  1.0000
  S   S36       1.0  0.22131  0.18306  0.75332  1.0000
  S   S37       1.0  0.24495  0.14155  0.70377  1.0000
  H   H141      1.0  0.09842  0.40535  0.95131  1.0000
  S   S38       1.0  0.25745  0.34991  0.53279  1.0000
  H   H142      1.0  0.20811  0.30486  0.67204  1.0000
  Fe  Fe18      1.0  0.24086  0.30863  0.95519  1.0000
  H   H143      1.0  0.20948  0.33297  0.56928  1.0000
  S   S39       1.0  0.22191  0.28752  0.91398  1.0000
  Fe  Fe19      1.0  0.25994  0.30837  0.52595  1.0000
  S   S40       1.0  0.27531  0.28589  0.56863  1.0000
  H   H144      1.0  0.99487  0.44759  0.98599  1.0000
  C   C84       1.0  0.02367  0.46782  0.85173  1.0000
  S   S41       1.0  0.27908  0.30071  0.97454  1.0000
  S   S42       1.0  0.24861  0.34918  0.94638  1.0000
  H   H145      1.0  0.31421  0.17412  0.57014  1.0000
  S   S43       1.0  0.06633  0.47253  0.60335  1.0000
  H   H146      1.0  0.28493  0.20670  0.58748  1.0000
  C   C85       1.0  0.01543  0.00392  0.76044  1.0000
  H   H147      1.0  0.00108  0.45111  0.59929  1.0000
  S   S44       1.0  0.14374  0.46040  0.59382  1.0000
  S   S45       1.0  0.04139  0.01458  0.78345  1.0000
  H   H148      1.0  0.22195  0.30383  0.58107  1.0000
  H   H149      1.0  0.28287  0.27165  0.85117  1.0000
  H   H150      1.0  0.31541  0.11900  0.57496  1.0000
  H   H151      1.0  0.16619  0.27165  0.57210  1.0000
  C   C86       1.0  0.17282  0.39124  0.53846  1.0000
  C   C87       1.0  0.18919  0.40792  0.55320  1.0000
  C   C88       1.0  0.17988  0.42888  0.56996  1.0000
  C   C89       1.0  0.15415  0.43372  0.57187  1.0000
  C   C90       1.0  0.13780  0.41717  0.55687  1.0000
  C   C91       1.0  0.14710  0.39602  0.54048  1.0000
  H   H152      1.0  0.20899  0.40450  0.55203  1.0000
  H   H153      1.0  0.19275  0.44144  0.58157  1.0000
  H   H154      1.0  0.11799  0.42052  0.55814  1.0000
  H   H155      1.0  0.25191  0.32757  0.60392  1.0000
  C   C92       1.0  0.24275  0.22659  0.63657  1.0000
  C   C93       1.0  0.23000  0.23332  0.60821  1.0000
  C   C94       1.0  0.23960  0.25142  0.58715  1.0000
  C   C95       1.0  0.26213  0.26306  0.59426  1.0000
  C   C96       1.0  0.27495  0.25623  0.62255  1.0000
  C   C97       1.0  0.26531  0.23818  0.64367  1.0000
  H   H156      1.0  0.21260  0.22435  0.60241  1.0000
  H   H157      1.0  0.22970  0.25619  0.56528  1.0000
  H   H158      1.0  0.29243  0.26509  0.62823  1.0000
  H   H159      1.0  0.27527  0.23331  0.66544  1.0000
  C   C98       1.0  0.23511  0.26338  0.89010  1.0000
  C   C99       1.0  0.22507  0.25838  0.85942  1.0000
  C   C100      1.0  0.23517  0.23952  0.83959  1.0000
  C   C101      1.0  0.25525  0.22517  0.85052  1.0000
  C   C102      1.0  0.26499  0.22989  0.88143  1.0000
  C   C103      1.0  0.25508  0.24893  0.90106  1.0000
  H   H160      1.0  0.20951  0.26934  0.85080  1.0000
  H   H161      1.0  0.22745  0.23609  0.81591  1.0000
  H   H162      1.0  0.28042  0.21880  0.89019  1.0000
  H   H163      1.0  0.26275  0.25230  0.92479  1.0000
  C   C104      1.0  0.15779  0.06586  0.83522  1.0000
  C   C105      1.0  0.14416  0.07201  0.80760  1.0000
  C   C106      1.0  0.15447  0.08777  0.78407  1.0000
  C   C107      1.0  0.17858  0.09742  0.78757  1.0000
  C   C108      1.0  0.19244  0.09089  0.81491  1.0000
  C   C109      1.0  0.18199  0.07540  0.83871  1.0000
  H   H164      1.0  0.12555  0.06487  0.80453  1.0000
  H   H165      1.0  0.14359  0.09260  0.76301  1.0000
  H   H166      1.0  0.21111  0.09789  0.81781  1.0000
  H   H167      1.0  0.19273  0.07069  0.85991  1.0000
  H   H168      1.0  0.29165  0.14367  0.66125  1.0000
  H   H169      1.0  0.26979  0.12757  0.59981  1.0000
  C   C110      1.0  0.00245  0.04245  0.83962  1.0000
  H   H170      1.0  0.19117  0.28685  0.55091  1.0000
  N   N8        1.0  0.30575  0.16125  0.61823  1.0000
  H   H171      1.0  0.23196  0.33332  0.63694  1.0000
  C   C111      1.0  0.21324  0.32110  0.59074  1.0000
  H   H172      1.0  0.01148  0.01367  0.89347  1.0000
  H   H173      1.0  0.27374  0.16929  0.64812  1.0000
  H   H174      1.0  0.30065  0.40334  0.94530  1.0000
  H   H175      1.0  0.02734  0.07481  0.84003  1.0000
  H   H176      1.0  0.29020  0.09061  0.68234  1.0000
  C   C112      1.0  0.00449  0.47526  0.73727  1.0000
  N   N9        1.0  0.18960  0.16388  0.86474  1.0000
  C   C113      1.0  0.19606  0.19024  0.87375  1.0000
  C   C114      1.0  0.19010  0.16190  0.82849  1.0000
  C   C115      1.0  0.20806  0.14560  0.87852  1.0000
  C   C116      1.0  0.16431  0.15790  0.87803  1.0000
  C   C117      1.0  0.19960  0.19560  0.91000  1.0000
  C   C118      1.0  0.16826  0.17437  0.81047  1.0000
  C   C119      1.0  0.23552  0.15042  0.87010  1.0000
  C   C120      1.0  0.15397  0.13195  0.86933  1.0000
  H   H177      1.0  0.21333  0.19614  0.86140  1.0000
  H   H178      1.0  0.18149  0.20340  0.86510  1.0000
  H   H179      1.0  0.19105  0.14226  0.82048  1.0000
  H   H180      1.0  0.20739  0.17024  0.81876  1.0000
  H   H181      1.0  0.20653  0.14461  0.90522  1.0000
  H   H182      1.0  0.20387  0.12641  0.86996  1.0000
  H   H183      1.0  0.16464  0.15849  0.90481  1.0000
  H   H184      1.0  0.15024  0.17231  0.87154  1.0000
  H   H185      1.0  0.20481  0.21546  0.91302  1.0000
  H   H186      1.0  0.18224  0.19286  0.92381  1.0000
  H   H187      1.0  0.21489  0.18448  0.92072  1.0000
  H   H188      1.0  0.16701  0.19456  0.81560  1.0000
  H   H189      1.0  0.17124  0.17219  0.78412  1.0000
  H   H190      1.0  0.15030  0.16528  0.81574  1.0000
  H   H191      1.0  0.24723  0.13548  0.88078  1.0000
  H   H192      1.0  0.24232  0.16831  0.87997  1.0000
  H   H193      1.0  0.23871  0.14992  0.84377  1.0000
  H   H194      1.0  0.16089  0.11750  0.88628  1.0000
  H   H195      1.0  0.15847  0.12601  0.84451  1.0000
  H   H196      1.0  0.13335  0.13245  0.87014  1.0000
  C   C121      1.0  0.32610  0.14184  0.61739  1.0000
  H   H197      1.0  0.01491  0.45210  0.63827  1.0000
  H   H198      1.0  0.23001  0.29111  0.64346  1.0000
  H   H199      1.0  0.31682  0.17258  0.68364  1.0000
  H   H200      1.0  0.11780  0.00885  0.51863  1.0000
  C   C122      1.0  0.31157  0.32698  0.83603  1.0000
  H   H201      1.0  0.30325  0.25624  0.80317  1.0000
  H   H202      1.0  0.05340  0.40711  0.96324  1.0000
  H   H203      1.0  0.04964  0.46427  0.96147  1.0000
  H   H204      1.0  0.00746  0.45536  0.73629  1.0000
  H   H205      1.0  0.19373  0.33916  0.64980  1.0000
  C   C123      1.0  0.17198  0.28904  0.55997  1.0000
  H   H206      1.0  0.14169  0.42315  0.95714  1.0000
  H   H207      1.0  0.01954  0.03079  0.84130  1.0000
  Fe  Fe20      1.0  0.06436  0.49393  0.65047  1.0000
  C   C124      1.0  0.16904  0.31172  0.58255  1.0000
  H   H208      1.0  0.13423  0.38324  0.52926  1.0000
  C   C125      1.0  0.05652  0.42544  0.97518  1.0000
  Fe  Fe21      1.0  0.22162  0.34791  0.50495  1.0000
  H   H209      1.0  0.28803  0.32898  0.89698  1.0000
  H   H210      1.0  0.01819  0.06452  0.80105  1.0000
  H   H211      1.0  0.16296  0.33040  0.64208  1.0000
  C   C126      1.0  0.23331  0.33502  0.61054  1.0000
  Fe  Fe22      1.0  0.06311  0.00870  0.90377  1.0000
  C   C127      1.0  0.10165  0.42278  0.96528  1.0000
  H   H212      1.0  0.02101  0.05543  0.89878  1.0000
  C   C128      1.0  0.29874  0.47335  0.85697  1.0000
  H   H213      1.0  0.02857  0.47201  0.51477  1.0000
  H   H214      1.0  0.30237  0.47358  0.88326  1.0000
  H   H215      1.0  0.30527  0.10676  0.61367  1.0000
  H   H216      1.0  0.30460  0.35982  0.86744  1.0000
  C   C129      1.0  0.32326  0.29793  0.87894  1.0000
  H   H217      1.0  0.31510  0.46556  0.84416  1.0000
  N   N10       1.0  0.18916  0.31519  0.60767  1.0000
  H   H218      1.0  0.26257  0.11877  0.63976  1.0000
  C   C130      1.0  0.31855  0.40431  0.93355  1.0000
  C   C131      1.0  0.99887  0.45899  0.62387  1.0000
  Fe  Fe23      1.0  0.28602  0.34188  0.96833  1.0000
  C   C132      1.0  0.31814  0.27462  0.89944  1.0000
  H   H219      1.0  0.01207  0.45181  0.84406  1.0000
  H   H220      1.0  0.23375  0.35498  0.60379  1.0000
  H   H221      1.0  0.09071  0.47297  0.96640  1.0000
  H   H222      1.0  0.13295  0.40386  0.98983  1.0000
  H   H223      1.0  0.30196  0.19913  0.63593  1.0000
  C   C133      1.0  0.21093  0.29034  0.65344  1.0000
  H   H224      1.0  0.00396  0.49386  0.64789  1.0000
  C   C134      1.0  0.18054  0.33578  0.62982  1.0000
  H   H225      1.0  0.27877  0.29251  0.81901  1.0000
  C   C135      1.0  0.26515  0.13510  0.62377  1.0000
  C   C136      1.0  0.17572  0.36111  0.61349  1.0000
  Fe  Fe24      1.0  0.10732  0.48190  0.60336  1.0000
  S   S46       1.0  0.22307  0.30599  0.50056  1.0000
  C   C137      1.0  0.27758  0.18801  0.58150  1.0000
  H   H226      1.0  0.24671  0.14448  0.62224  1.0000
  H   H227      1.0  0.10103  0.43763  0.94696  1.0000
  C   C138      1.0  0.31659  0.18463  0.63278  1.0000
  C   C139      1.0  0.00126  0.06089  0.89449  1.0000
  C   C140      1.0  0.01402  0.01858  0.50150  1.0000
  H   H228      1.0  0.16774  0.32823  0.56652  1.0000
  H   H229      1.0  0.03996  0.46825  0.83566  1.0000
  H   H230      1.0  0.25028  0.31505  0.84322  1.0000
  H   H231      1.0  0.26122  0.18407  0.59678  1.0000
  H   H232      1.0  0.03190  0.44213  0.93982  1.0000
  H   H233      1.0  0.19139  0.36690  0.59808  1.0000
  S   S47       1.0  0.31871  0.12680  0.72052  1.0000
  H   H234      1.0  0.27093  0.18897  0.55617  1.0000
  C   C141      1.0  0.28124  0.31558  0.87853  1.0000
  C   C142      1.0  0.19126  0.29130  0.62648  1.0000
  H   H235      1.0  0.17314  0.37570  0.63221  1.0000
  C   C143      1.0  0.30980  0.08669  0.67937  1.0000
  C   C144      1.0  0.25912  0.32783  0.86074  1.0000
  N   N11       1.0  0.30224  0.30651  0.85750  1.0000
  H   H236      1.0  0.17966  0.48298  0.54914  1.0000
  H   H237      1.0  0.00237  0.07985  0.88429  1.0000
  C   C145      1.0  0.05067  0.44565  0.95006  1.0000
  H   H238      1.0  0.29108  0.15144  0.57071  1.0000
  H   H239      1.0  0.20959  0.27210  0.66586  1.0000
  H   H240      1.0  0.27335  0.30002  0.89264  1.0000
  H   H241      1.0  0.15043  0.31018  0.59409  1.0000
  C   C146      1.0  0.31765  0.06683  0.65946  1.0000
  S   S48       1.0  0.04183  0.47730  0.69205  1.0000
  H   H242      1.0  0.19612  0.27549  0.61039  1.0000
  H   H243      1.0  0.30277  0.27774  0.91666  1.0000
  C   C147      1.0  0.31253  0.27168  0.81632  1.0000
  H   H244      1.0  0.06369  0.44555  0.92947  1.0000
  H   H245      1.0  0.15965  0.29149  0.53866  1.0000
  H   H246      1.0  0.32564  0.36484  0.83506  1.0000
  C   C148      1.0  0.00889  0.01673  0.73205  1.0000
  H   H247      1.0  0.26445  0.34534  0.84867  1.0000
  H   H248      1.0  0.24454  0.33271  0.87858  1.0000
  C   C149      1.0  0.28445  0.15289  0.63910  1.0000
  H   H249      1.0  0.17300  0.28653  0.63741  1.0000
  H   H250      1.0  0.15842  0.36090  0.59885  1.0000
  Fe  Fe25      1.0  0.06280  0.00436  0.82974  1.0000
  C   C150      1.0  0.29789  0.16772  0.58432  1.0000
  H   H251      1.0  0.28314  0.46027  0.85292  1.0000
  C   C151      1.0  0.01133  0.06754  0.82602  1.0000
  H   H252      1.0  0.01562  0.49323  0.60853  1.0000
  H   H253      1.0  0.30393  0.05564  0.64712  1.0000
  C   C152      1.0  0.01802  0.00921  0.97301  1.0000
  C   C153      1.0  0.31976  0.35103  0.85333  1.0000
  H   H254      1.0  0.31627  0.44386  0.92545  1.0000
  H   H255      1.0  0.29738  0.33212  0.81761  1.0000
  H   H256      1.0  0.02568  0.03310  0.51128  1.0000
  H   H257      1.0  0.02998  0.46383  0.87665  1.0000
  C   C154      1.0  0.01582  0.48392  0.50169  1.0000
  C   C155      1.0  0.12869  0.42179  0.97781  1.0000
  H   H258      1.0  0.07891  0.99745  0.54279  1.0000
  H   H259      1.0  0.01987  0.03248  0.72460  1.0000
  H   H260      1.0  0.32098  0.28387  0.79791  1.0000
  S   S49       1.0  0.32255  0.35307  0.94368  1.0000
  C   C156      1.0  0.99929  0.48767  0.62324  1.0000
  H   H261      1.0  0.31418  0.25794  0.88462  1.0000
  H   H262      1.0  0.99650  0.08174  0.82466  1.0000
  C   C157      1.0  0.12262  0.00762  0.49276  1.0000
  C   C158      1.0  0.01876  0.49085  0.71747  1.0000
  C   C159      1.0  0.32003  0.11694  0.60082  1.0000
  H   H263      1.0  0.99934  0.07765  0.94211  1.0000
  C   C160      1.0  0.00754  0.49166  0.85052  1.0000
  H   H264      1.0  0.99679  0.49154  0.82754  1.0000
  C   C161      1.0  0.99768  0.46746  0.98747  1.0000
  H   H265      1.0  0.03343  0.49325  0.79253  1.0000
  Fe  Fe26      1.0  0.21465  0.64812  0.22424  1.0000
  S   S50       1.0  0.24977  0.64226  0.19612  1.0000
  S   S51       1.0  0.17709  0.62878  0.21775  1.0000
  Fe  Fe27      1.0  0.24051  0.68400  0.27248  1.0000
  S   S52       1.0  0.27764  0.67964  0.24779  1.0000
  S   S53       1.0  0.22840  0.70730  0.31634  1.0000
  Fe  Fe28      1.0  0.25552  0.68363  0.20142  1.0000
  S   S54       1.0  0.27212  0.70814  0.16171  1.0000
  Fe  Fe29      1.0  0.26893  0.63854  0.24445  1.0000
  S   S55       1.0  0.29051  0.60177  0.25032  1.0000
  S   S56       1.0  0.21893  0.68986  0.22631  1.0000
  S   S57       1.0  0.23334  0.64278  0.27224  1.0000
  H   H266      1.0  0.28684  0.80477  0.29951  1.0000
  S   S58       1.0  0.25281  0.84924  0.44917  1.0000
  S   S59       1.0  0.17878  0.85691  0.45709  1.0000
  Fe  Fe30      1.0  0.23508  0.81446  0.02758  1.0000
  C   C162      1.0  0.01320  0.51067  0.21363  1.0000
  S   S60       1.0  0.22195  0.78862  0.06806  1.0000
  C   C163      1.0  0.04252  0.50786  0.37491  1.0000
  C   C164      1.0  0.00503  0.51855  0.99150  1.0000
  Fe  Fe31      1.0  0.25962  0.80823  0.45674  1.0000
  S   S61       1.0  0.27615  0.78565  0.41479  1.0000
  S   S62       1.0  0.23314  0.85631  0.03031  1.0000
  H   H267      1.0  0.21946  0.51411  0.19409  1.0000
  H   H268      1.0  0.02793  0.95673  0.22662  1.0000
  H   H269      1.0  0.01359  0.51677  0.41104  1.0000
  H   H270      1.0  0.05306  0.50912  0.27856  1.0000
  S   S63       1.0  0.14513  0.96128  0.39633  1.0000
  S   S64       1.0  0.06974  0.97089  0.38170  1.0000
  H   H271      1.0  0.25949  0.70786  0.06406  1.0000
  Fe  Fe32      1.0  0.11068  0.51330  0.12217  1.0000
  S   S65       1.0  0.14489  0.53853  0.12589  1.0000
  H   H272      1.0  0.26291  0.51562  0.25959  1.0000
  S   S66       1.0  0.03886  0.51624  0.04134  1.0000
  S   S67       1.0  0.06961  0.52155  0.12713  1.0000
  C   C165      1.0  0.27178  0.73821  0.01157  1.0000
  H   H273      1.0  0.23949  0.78532  0.20563  1.0000
  C   C166      1.0  0.06568  0.94926  0.46421  1.0000
  S   S68       1.0  0.04554  0.97011  0.28973  1.0000
  C   C167      1.0  0.99610  0.98003  0.21599  1.0000
  H   H274      1.0  0.02316  0.52218  0.19674  1.0000
  H   H275      1.0  0.19688  0.60257  0.28222  1.0000
  C   C168      1.0  0.27449  0.78989  0.29016  1.0000
  C   C169      1.0  0.29813  0.92090  0.11928  1.0000
  H   H276      1.0  0.14341  0.95446  0.46975  1.0000
  H   H277      1.0  0.18790  0.51855  0.18514  1.0000
  C   C170      1.0  0.17003  0.88581  0.43934  1.0000
  C   C171      1.0  0.14571  0.88878  0.42722  1.0000
  C   C172      1.0  0.13779  0.91149  0.41340  1.0000
  C   C173      1.0  0.15416  0.93158  0.41160  1.0000
  C   C174      1.0  0.17854  0.92845  0.42336  1.0000
  C   C175      1.0  0.18647  0.90575  0.43709  1.0000
  H   H278      1.0  0.13284  0.87346  0.42873  1.0000
  H   H279      1.0  0.11906  0.91345  0.40423  1.0000
  H   H280      1.0  0.19140  0.94382  0.42211  1.0000
  H   H281      1.0  0.20523  0.90381  0.44622  1.0000
  H   H282      1.0  0.31912  0.86519  0.05763  1.0000
  H   H283      1.0  0.06530  0.92492  0.03310  1.0000
  C   C176      1.0  0.30804  0.74546  0.25652  1.0000
  S   S69       1.0  0.10606  0.49498  0.07331  1.0000
  H   H284      1.0  0.31722  0.91373  0.12350  1.0000
  C   C177      1.0  0.16841  0.60395  0.19165  1.0000
  C   C178      1.0  0.18324  0.59630  0.16578  1.0000
  C   C179      1.0  0.17564  0.57636  0.14591  1.0000
  C   C180      1.0  0.15314  0.56383  0.15154  1.0000
  C   C181      1.0  0.13832  0.57149  0.17740  1.0000
  C   C182      1.0  0.14590  0.59146  0.19724  1.0000
  H   H285      1.0  0.20047  0.60583  0.16097  1.0000
  H   H286      1.0  0.18723  0.57065  0.12593  1.0000
  H   H287      1.0  0.12098  0.56211  0.18206  1.0000
  H   H288      1.0  0.13423  0.59729  0.21708  1.0000
  Fe  Fe33      1.0  0.26847  0.85666  0.00166  1.0000
  H   H289      1.0  0.13281  0.91244  0.48809  1.0000
  H   H290      1.0  0.24290  0.50154  0.28826  1.0000
  H   H291      1.0  0.30648  0.75640  0.00009  1.0000
  H   H292      1.0  0.23084  0.69179  0.06503  1.0000
  C   C183      1.0  0.24283  0.72750  0.34482  1.0000
  C   C184      1.0  0.26765  0.73479  0.34232  1.0000
  C   C185      1.0  0.27757  0.75240  0.36409  1.0000
  C   C186      1.0  0.26306  0.76244  0.38918  1.0000
  C   C187      1.0  0.23864  0.75412  0.39270  1.0000
  C   C188      1.0  0.22850  0.73711  0.37035  1.0000
  H   H293      1.0  0.27919  0.72691  0.32362  1.0000
  H   H294      1.0  0.29668  0.75820  0.36159  1.0000
  H   H295      1.0  0.22768  0.76061  0.41283  1.0000
  H   H296      1.0  0.20949  0.73106  0.37309  1.0000
  C   C189      1.0  0.25773  0.72996  0.13527  1.0000
  C   C190      1.0  0.23197  0.73347  0.13423  1.0000
  C   C191      1.0  0.22149  0.75164  0.11373  1.0000
  C   C192      1.0  0.23653  0.76656  0.09402  1.0000
  C   C193      1.0  0.26231  0.76315  0.09518  1.0000
  C   C194      1.0  0.27279  0.74485  0.11553  1.0000
  H   H297      1.0  0.22011  0.72222  0.14927  1.0000
  H   H298      1.0  0.20152  0.75408  0.11306  1.0000
  H   H299      1.0  0.27419  0.77471  0.08061  1.0000
  H   H300      1.0  0.29276  0.74244  0.11631  1.0000
  H   H301      1.0  0.01972  0.91559  0.00971  1.0000
  C   C195      1.0  0.22874  0.53676  0.27002  1.0000
  H   H302      1.0  0.21118  0.53216  0.28279  1.0000
  H   H303      1.0  0.00803  0.98209  0.43501  1.0000
  Fe  Fe34      1.0  0.06525  0.98874  0.33245  1.0000
  H   H304      1.0  0.18464  0.54140  0.24093  1.0000
  C   C196      1.0  0.07287  0.97911  0.01883  1.0000
  H   H305      1.0  0.31215  0.97765  0.05152  1.0000
  H   H306      1.0  0.10449  0.94200  0.02477  1.0000
  H   H307      1.0  0.28714  0.92075  0.14178  1.0000
  H   H308      1.0  0.21414  0.75871  0.23283  1.0000
  C   C197      1.0  0.00419  0.98990  0.45853  1.0000
  H   H309      1.0  0.13143  0.90781  0.01388  1.0000
  H   H310      1.0  0.25698  0.80516  0.24843  1.0000
  S   S70       1.0  0.29370  0.89091  0.00431  1.0000
  C   C198      1.0  0.29329  0.75541  0.22745  1.0000
  N   N12       1.0  0.18753  0.81750  0.37018  1.0000
  C   C199      1.0  0.21177  0.81971  0.38837  1.0000
  C   C200      1.0  0.16841  0.80710  0.39292  1.0000
  C   C201      1.0  0.17987  0.84354  0.36074  1.0000
  C   C202      1.0  0.19169  0.80121  0.34089  1.0000
  C   C203      1.0  0.23333  0.83203  0.36992  1.0000
  C   C204      1.0  0.17561  0.78250  0.40960  1.0000
  C   C205      1.0  0.15460  0.84658  0.34376  1.0000
  C   C206      1.0  0.16916  0.78659  0.32783  1.0000
  H   H311      1.0  0.20906  0.83026  0.41123  1.0000
  H   H312      1.0  0.21884  0.80120  0.39576  1.0000
  H   H313      1.0  0.15038  0.80393  0.38068  1.0000
  H   H314      1.0  0.16409  0.82074  0.41235  1.0000
  H   H315      1.0  0.17950  0.85584  0.38245  1.0000
  H   H316      1.0  0.19363  0.85194  0.34413  1.0000
  H   H317      1.0  0.19902  0.81240  0.32052  1.0000
  H   H318      1.0  0.20634  0.78689  0.34569  1.0000
  H   H319      1.0  0.23576  0.82434  0.34536  1.0000
  H   H320      1.0  0.23096  0.85253  0.36894  1.0000
  H   H321      1.0  0.25102  0.82847  0.38301  1.0000
  H   H322      1.0  0.18409  0.76892  0.39278  1.0000
  H   H323      1.0  0.18863  0.78593  0.42985  1.0000
  H   H324      1.0  0.15877  0.77391  0.42015  1.0000
  H   H325      1.0  0.15516  0.83901  0.31892  1.0000
  H   H326      1.0  0.15053  0.86679  0.34138  1.0000
  H   H327      1.0  0.13899  0.83868  0.35762  1.0000
  H   H328      1.0  0.16388  0.77125  0.34419  1.0000
  H   H329      1.0  0.17436  0.77772  0.30457  1.0000
  H   H330      1.0  0.15269  0.79840  0.32325  1.0000
  H   H331      1.0  0.29200  0.95609  0.16761  1.0000
  H   H332      1.0  0.25282  0.68390  0.03430  1.0000
  C   C207      1.0  0.29261  0.97239  0.15146  1.0000
  H   H333      1.0  0.02524  0.52285  0.29312  1.0000
  N   N13       1.0  0.30886  0.96788  0.12244  1.0000
  C   C208      1.0  0.27273  0.79209  0.25304  1.0000
  H   H334      1.0  0.06130  0.49903  0.37610  1.0000
  H   H335      1.0  0.32642  0.62896  0.29066  1.0000
  C   C209      1.0  0.99865  0.53350  0.34801  1.0000
  H   H336      1.0  0.00781  0.53844  0.99294  1.0000
  H   H337      1.0  0.01651  0.52946  0.11043  1.0000
  C   C210      1.0  0.24495  0.69957  0.04841  1.0000
  H   H338      1.0  0.25865  0.74492  0.27514  1.0000
  H   H339      1.0  0.99845  0.55714  0.11342  1.0000
  H   H340      1.0  0.05471  0.52768  0.31410  1.0000
  H   H341      1.0  0.31561  0.76080  0.27143  1.0000
  C   C211      1.0  0.01595  0.97147  0.23542  1.0000
  H   H342      1.0  0.23481  0.50008  0.24657  1.0000
  H   H343      1.0  0.21467  0.71098  0.01850  1.0000
  H   H344      1.0  0.28812  0.77861  0.16822  1.0000
  N   N14       1.0  0.22340  0.55207  0.24028  1.0000
  C   C212      1.0  0.21901  0.57856  0.25113  1.0000
  C   C213      1.0  0.24577  0.55220  0.21844  1.0000
  C   C214      1.0  0.20017  0.54322  0.22347  1.0000
  C   C215      1.0  0.19782  0.58254  0.27572  1.0000
  C   C216      1.0  0.24284  0.56694  0.18682  1.0000
  C   C217      1.0  0.20139  0.51811  0.20551  1.0000
  H   H345      1.0  0.23626  0.58647  0.26193  1.0000
  H   H346      1.0  0.21437  0.59076  0.23040  1.0000
  H   H347      1.0  0.25162  0.53322  0.21128  1.0000
  H   H348      1.0  0.26215  0.55979  0.23154  1.0000
  H   H349      1.0  0.24006  0.54764  0.28764  1.0000
  H   H350      1.0  0.19301  0.55736  0.20632  1.0000
  C   C218      1.0  0.25171  0.75040  0.25110  1.0000
  H   H351      1.0  0.20097  0.57222  0.29845  1.0000
  H   H352      1.0  0.24122  0.58719  0.19123  1.0000
  H   H353      1.0  0.25983  0.56426  0.17204  1.0000
  H   H354      1.0  0.22688  0.56041  0.17221  1.0000
  H   H355      1.0  0.10249  0.94347  0.44530  1.0000
  H   H356      1.0  0.02742  0.94414  0.02817  1.0000
  H   H357      1.0  0.21509  0.74721  0.27293  1.0000
  H   H358      1.0  0.26825  0.75327  0.02946  1.0000
  N   N15       1.0  0.26886  0.76828  0.23435  1.0000
  C   C219      1.0  0.01804  0.50282  0.01284  1.0000
  H   H359      1.0  0.30957  0.94357  0.08075  1.0000
  H   H360      1.0  0.22389  0.77874  0.26574  1.0000
  H   H361      1.0  0.04610  0.52683  0.36592  1.0000
  H   H362      1.0  0.31031  0.55341  0.26488  1.0000
  C   C220      1.0  0.04296  0.51414  0.30102  1.0000
  C   C221      1.0  0.22475  0.75965  0.25578  1.0000
  C   C222      1.0  0.02043  0.98177  0.26611  1.0000
  C   C223      1.0  0.27288  0.78995  0.17880  1.0000
  H   H363      1.0  0.17941  0.57796  0.26531  1.0000
  H   H364      1.0  0.01553  0.54309  0.33979  1.0000
  Fe  Fe35      1.0  0.21694  0.84343  0.47540  1.0000
  C   C224      1.0  0.24308  0.51211  0.26528  1.0000
  H   H365      1.0  0.22692  0.73512  0.04279  1.0000
  H   H366      1.0  0.06263  0.96917  0.03792  1.0000
  C   C225      1.0  0.25702  0.77455  0.20229  1.0000
  H   H367      1.0  0.05988  0.90363  0.00094  1.0000
  Fe  Fe36      1.0  0.11011  0.98132  0.37768  1.0000
  H   H368      1.0  0.99423  0.53730  0.07941  1.0000
  C   C226      1.0  0.11312  0.90779  0.00138  1.0000
  H   H369      1.0  0.27927  0.95083  0.09481  1.0000
  H   H370      1.0  0.25081  0.73259  0.23740  1.0000
  H   H371      1.0  0.29032  0.73937  0.21090  1.0000
  C   C227      1.0  0.31575  0.59228  0.27547  1.0000
  S   S71       1.0  0.22281  0.80194  0.48080  1.0000
  H   H372      1.0  0.05845  0.93558  0.44645  1.0000
  C   C228      1.0  0.29857  0.94654  0.10298  1.0000
  H   H373      1.0  0.25149  0.75728  0.18943  1.0000
  H   H374      1.0  0.30628  0.76806  0.21482  1.0000
  H   H375      1.0  0.09237  0.98213  0.02659  1.0000
  H   H376      1.0  0.32604  0.93518  0.16941  1.0000
  H   H377      1.0  0.19627  0.50258  0.22172  1.0000
  H   H378      1.0  0.06184  0.96787  0.45401  1.0000
  H   H379      1.0  0.26101  0.79596  0.15823  1.0000
  C   C229      1.0  0.00024  0.50473  0.34904  1.0000
  H   H380      1.0  0.23136  0.76533  0.00177  1.0000
  H   H381      1.0  0.25615  0.79337  0.30155  1.0000
  H   H382      1.0  0.10077  0.89540  0.01526  1.0000
  H   H383      1.0  0.29728  0.73227  0.27131  1.0000
  C   C230      1.0  0.32157  0.56676  0.27773  1.0000
  H   H384      1.0  0.04455  0.52472  0.42275  1.0000
  H   H385      1.0  0.11627  0.98543  0.45044  1.0000
  C   C231      1.0  0.10793  0.98725  0.47487  1.0000
  H   H386      1.0  0.28050  0.80692  0.19024  1.0000
  H   H387      1.0  0.19360  0.74207  0.99279  1.0000
  H   H388      1.0  0.28226  0.77221  0.29906  1.0000
  H   H389      1.0  0.28921  0.90744  0.10253  1.0000
  C   C232      1.0  0.05931  0.92375  0.00741  1.0000
  S   S72       1.0  0.27210  0.81464  0.00231  1.0000
  C   C233      1.0  0.23243  0.71936  0.02682  1.0000
  H   H390      1.0  0.05491  0.94653  0.48666  1.0000
  H   H391      1.0  0.28221  0.72341  0.02454  1.0000
  Fe  Fe37      1.0  0.06485  0.50030  0.08029  1.0000
  N   N16       1.0  0.24746  0.72857  0.99854  1.0000
  C   C234      1.0  0.03174  0.93218  0.00702  1.0000
  C   C235      1.0  0.99783  0.53735  0.10572  1.0000
  C   C236      1.0  0.09359  0.94422  0.46951  1.0000
  C   C237      1.0  0.31918  0.89881  0.02970  1.0000
  H   H392      1.0  0.28974  0.80174  0.24453  1.0000
  C   C238      1.0  0.32132  0.98998  0.06936  1.0000
  C   C239      1.0  0.30716  0.99089  0.10168  1.0000
  H   H393      1.0  0.27292  0.97518  0.14382  1.0000
  H   H394      1.0  0.32436  0.73483  0.24742  1.0000
  C   C240      1.0  0.10315  0.93478  0.99970  1.0000
  C   C241      1.0  0.03322  0.51060  0.40990  1.0000
  H   H395      1.0  0.09447  0.92503  0.47925  1.0000
  H   H396      1.0  0.23808  0.93579  0.00721  1.0000
  H   H397      1.0  0.32449  0.93418  0.00643  1.0000
  H   H398      1.0  0.07518  0.98171  0.23150  1.0000
  H   H399      1.0  0.29015  0.99374  0.19616  1.0000
  Fe  Fe38      1.0  0.22523  0.64486  0.73596  1.0000
  S   S73       1.0  0.26469  0.64451  0.71786  1.0000
  S   S74       1.0  0.19852  0.61191  0.73236  1.0000
  Fe  Fe39      1.0  0.23399  0.69245  0.77657  1.0000
  S   S75       1.0  0.27374  0.69535  0.76080  1.0000
  S   S76       1.0  0.21297  0.71709  0.81250  1.0000
  Fe  Fe40      1.0  0.25914  0.68613  0.71102  1.0000
  S   S77       1.0  0.27519  0.70445  0.66562  1.0000
  Fe  Fe41      1.0  0.27608  0.65377  0.76872  1.0000
  S   S78       1.0  0.30580  0.63734  0.80241  1.0000
  S   S79       1.0  0.21901  0.68568  0.72625  1.0000
  S   S80       1.0  0.23707  0.65175  0.78729  1.0000
  H   H400      1.0  0.02556  0.94160  0.98485  1.0000
  S   S81       1.0  0.24850  0.85633  0.95392  1.0000
  C   C242      1.0  0.23309  0.74990  0.98394  1.0000
  Fe  Fe42      1.0  0.24297  0.81043  0.52741  1.0000
  C   C243      1.0  0.16517  0.55781  0.58004  1.0000
  S   S82       1.0  0.23384  0.79350  0.57692  1.0000
  H   H401      1.0  0.11668  0.94581  0.98537  1.0000
  C   C244      1.0  0.28572  0.54268  0.80223  1.0000
  Fe  Fe43      1.0  0.24889  0.81460  0.95675  1.0000
  S   S83       1.0  0.26348  0.78990  0.91578  1.0000
  S   S84       1.0  0.23384  0.85142  0.52385  1.0000
  C   C245      1.0  0.07341  0.98039  0.52951  1.0000
  H   H402      1.0  0.01464  0.57057  0.85163  1.0000
  H   H403      1.0  0.99573  0.54378  0.49835  1.0000
  Fe  Fe44      1.0  0.09460  0.96875  0.87080  1.0000
  S   S85       1.0  0.10917  0.92886  0.87449  1.0000
  S   S86       1.0  0.05331  0.97759  0.86966  1.0000
  C   C246      1.0  0.30460  0.86437  0.63064  1.0000
  Fe  Fe45      1.0  0.09790  0.53581  0.62578  1.0000
  S   S87       1.0  0.11668  0.57376  0.63197  1.0000
  H   H404      1.0  0.28264  0.84427  0.68820  1.0000
  H   H405      1.0  0.23592  0.55456  0.61068  1.0000
  S   S88       1.0  0.05635  0.53067  0.62705  1.0000
  H   H406      1.0  0.09069  0.94396  0.53202  1.0000
  H   H407      1.0  0.00253  0.53414  0.65238  1.0000
  H   H408      1.0  0.26545  0.73251  0.93583  1.0000
  H   H409      1.0  0.21391  0.89175  0.91938  1.0000
  C   C247      1.0  0.24512  0.91377  0.90029  1.0000
  H   H410      1.0  0.02565  0.52882  0.70427  1.0000
  H   H411      1.0  0.01230  0.53235  0.80819  1.0000
  C   C248      1.0  0.25155  0.70730  0.97526  1.0000
  H   H412      1.0  0.26991  0.70025  0.92929  1.0000
  H   H413      1.0  0.29793  0.73340  0.97130  1.0000
  H   H414      1.0  0.99554  0.99347  0.84294  1.0000
  C   C249      1.0  0.16632  0.89861  0.94769  1.0000
  C   C250      1.0  0.15929  0.92384  0.94839  1.0000
  C   C251      1.0  0.14277  0.93368  0.92522  1.0000
  C   C252      1.0  0.13263  0.91822  0.90147  1.0000
  C   C253      1.0  0.14024  0.89316  0.90024  1.0000
  C   C254      1.0  0.15716  0.88343  0.92303  1.0000
  H   H415      1.0  0.05332  0.96983  0.97556  1.0000
  H   H416      1.0  0.13731  0.95304  0.92630  1.0000
  H   H417      1.0  0.13257  0.88105  0.88192  1.0000
  H   H418      1.0  0.16226  0.86395  0.92232  1.0000
  S   S89       1.0  0.28047  0.81435  0.50373  1.0000
  C   C255      1.0  0.29039  0.74840  0.98690  1.0000
  Fe  Fe46      1.0  0.06017  0.50994  0.57985  1.0000
  H   H419      1.0  0.15416  0.51193  0.60012  1.0000
  C   C256      1.0  0.05241  0.92958  0.93380  1.0000
  C   C257      1.0  0.17671  0.60127  0.70321  1.0000
  C   C258      1.0  0.17134  0.61447  0.67501  1.0000
  C   C259      1.0  0.15289  0.60578  0.65357  1.0000
  C   C260      1.0  0.13983  0.58369  0.65978  1.0000
  C   C261      1.0  0.14540  0.57038  0.68782  1.0000
  C   C262      1.0  0.16367  0.57918  0.70938  1.0000
  H   H420      1.0  0.18123  0.63144  0.66981  1.0000
  H   H421      1.0  0.14873  0.61624  0.63195  1.0000
  H   H422      1.0  0.13551  0.55340  0.69297  1.0000
  H   H423      1.0  0.16764  0.56882  0.73113  1.0000
  H   H424      1.0  0.32215  0.63590  0.71137  1.0000
  H   H425      1.0  0.26056  0.81984  0.68660  1.0000
  H   H426      1.0  0.12823  0.92324  0.52921  1.0000
  H   H427      1.0  0.26732  0.53403  0.80629  1.0000
  H   H428      1.0  0.08496  0.97534  0.96969  1.0000
  C   C263      1.0  0.22726  0.73682  0.84166  1.0000
  C   C264      1.0  0.25308  0.73915  0.84387  1.0000
  C   C265      1.0  0.26370  0.75542  0.86674  1.0000
  C   C266      1.0  0.24875  0.76953  0.88781  1.0000
  C   C267      1.0  0.22292  0.76692  0.88601  1.0000
  C   C268      1.0  0.21227  0.75068  0.86303  1.0000
  H   H429      1.0  0.26488  0.72862  0.82773  1.0000
  H   H430      1.0  0.28369  0.75723  0.86794  1.0000
  H   H431      1.0  0.21115  0.77772  0.90188  1.0000
  H   H432      1.0  0.19228  0.74910  0.86152  1.0000
  C   C269      1.0  0.26323  0.72916  0.64116  1.0000
  C   C270      1.0  0.24211  0.74294  0.64975  1.0000
  C   C271      1.0  0.23352  0.76247  0.62980  1.0000
  C   C272      1.0  0.24569  0.76844  0.60082  1.0000
  C   C273      1.0  0.26691  0.75477  0.59231  1.0000
  C   C274      1.0  0.27563  0.73536  0.61241  1.0000
  H   H433      1.0  0.23239  0.73858  0.67178  1.0000
  H   H434      1.0  0.21715  0.77292  0.63676  1.0000
  H   H435      1.0  0.27653  0.75906  0.57017  1.0000
  H   H436      1.0  0.29196  0.72489  0.60541  1.0000
  H   H437      1.0  0.20486  0.97034  0.95202  1.0000
  H   H438      1.0  0.20773  0.49938  0.53798  1.0000
  C   C275      1.0  0.07174  0.96566  0.98598  1.0000
  C   C276      1.0  0.07716  0.92845  0.95237  1.0000
  H   H439      1.0  0.20799  0.90538  0.88017  1.0000
  H   H440      1.0  0.28258  0.76365  0.97213  1.0000
  C   C277      1.0  0.00490  0.98796  0.96382  1.0000
  C   C278      1.0  0.99729  0.52425  0.49236  1.0000
  C   C279      1.0  0.13398  0.95331  0.49355  1.0000
  H   H441      1.0  0.22818  0.87920  0.88409  1.0000
  C   C280      1.0  0.02867  0.52658  0.82281  1.0000
  H   H442      1.0  0.24916  0.90461  0.59290  1.0000
  H   H443      1.0  0.22258  0.95570  0.88405  1.0000
  N   N17       1.0  0.31101  0.51899  0.84657  1.0000
  C   C281      1.0  0.21971  0.95064  0.90982  1.0000
  H   H444      1.0  0.22869  0.98768  0.93044  1.0000
  H   H445      1.0  0.16799  0.56686  0.60369  1.0000
  Fe  Fe47      1.0  0.27042  0.85486  0.49804  1.0000
  H   H446      1.0  0.30267  0.90371  0.64515  1.0000
  H   H447      1.0  0.21467  0.54669  0.55223  1.0000
  N   N18       1.0  0.18111  0.53486  0.57598  1.0000
  H   H448      1.0  0.05242  0.49777  0.92297  1.0000
  H   H449      1.0  0.18818  0.58242  0.54953  1.0000
  H   H450      1.0  0.05974  0.97093  0.54524  1.0000
  H   H451      1.0  0.00945  0.97861  0.94150  1.0000
  S   S90       1.0  0.18416  0.88656  0.98019  1.0000
  H   H452      1.0  0.26413  0.96773  0.93654  1.0000
  N   N19       1.0  0.14380  0.66475  0.76014  1.0000
  C   C282      1.0  0.16760  0.66924  0.77865  1.0000
  C   C283      1.0  0.14931  0.66986  0.72511  1.0000
  C   C284      1.0  0.13683  0.63779  0.76492  1.0000
  C   C285      1.0  0.12414  0.68191  0.77355  1.0000
  C   C286      1.0  0.16724  0.66285  0.81490  1.0000
  C   C287      1.0  0.15359  0.69740  0.71633  1.0000
  C   C288      1.0  0.11903  0.62586  0.74018  1.0000
  C   C289      1.0  0.09906  0.68295  0.75548  1.0000
  H   H453      1.0  0.18315  0.65827  0.76795  1.0000
  H   H454      1.0  0.17335  0.68902  0.77727  1.0000
  H   H455      1.0  0.13425  0.66355  0.70888  1.0000
  H   H456      1.0  0.16592  0.65898  0.71723  1.0000
  H   H457      1.0  0.15375  0.62575  0.76476  1.0000
  H   H458      1.0  0.12831  0.63508  0.78906  1.0000
  H   H459      1.0  0.11955  0.67670  0.79874  1.0000
  H   H460      1.0  0.13122  0.70128  0.77593  1.0000
  H   H461      1.0  0.15386  0.67457  0.82847  1.0000
  H   H462      1.0  0.16369  0.64286  0.81925  1.0000
  H   H463      1.0  0.18589  0.66684  0.82520  1.0000
  H   H464      1.0  0.15915  0.69852  0.69060  1.0000
  H   H465      1.0  0.13636  0.70862  0.71902  1.0000
  H   H466      1.0  0.16863  0.70616  0.73050  1.0000
  H   H467      1.0  0.11439  0.60680  0.74842  1.0000
  H   H468      1.0  0.12798  0.62346  0.71634  1.0000
  H   H469      1.0  0.10131  0.63604  0.73742  1.0000
  H   H470      1.0  0.08561  0.66976  0.76620  1.0000
  H   H471      1.0  0.10050  0.67928  0.72934  1.0000
  H   H472      1.0  0.09117  0.70204  0.75741  1.0000
  H   H473      1.0  0.31787  0.85059  0.64107  1.0000
  H   H474      1.0  0.05662  0.50109  0.86800  1.0000
  C   C290      1.0  0.26436  0.89073  0.59004  1.0000
  N   N20       1.0  0.24169  0.93596  0.92233  1.0000
  H   H475      1.0  0.32484  0.71451  0.73923  1.0000
  C   C291      1.0  0.28778  0.84027  0.58533  1.0000
  H   H476      1.0  0.99590  0.53154  0.59115  1.0000
  N   N21       1.0  0.28176  0.85139  0.61787  1.0000
  H   H477      1.0  0.24287  0.75830  0.96336  1.0000
  H   H478      1.0  0.29528  0.53336  0.78202  1.0000
  H   H479      1.0  0.29935  0.52435  0.89622  1.0000
  C   C292      1.0  0.17980  0.52351  0.63674  1.0000
  H   H480      1.0  0.22123  0.57822  0.58796  1.0000
  C   C293      1.0  0.28949  0.93772  0.92629  1.0000
  H   H481      1.0  0.03866  0.91649  0.94392  1.0000
  H   H482      1.0  0.28910  0.55277  0.85154  1.0000
  C   C294      1.0  0.31871  0.89808  0.53126  1.0000
  H   H483      1.0  0.11666  0.89974  0.97721  1.0000
  C   C295      1.0  0.01466  0.51654  0.71903  1.0000
  H   H484      1.0  0.28490  0.49638  0.81905  1.0000
  H   H485      1.0  0.32283  0.56330  0.88592  1.0000
  H   H486      1.0  0.15825  0.92372  0.51084  1.0000
  H   H487      1.0  0.05262  0.53276  0.87760  1.0000
  H   H488      1.0  0.00597  0.97328  0.79113  1.0000
  H   H489      1.0  0.20544  0.56399  0.62145  1.0000
  C   C296      1.0  0.17434  0.51626  0.60159  1.0000
  C   C297      1.0  0.30857  0.82032  0.58475  1.0000
  H   H490      1.0  0.28282  0.88431  0.66941  1.0000
  H   H491      1.0  0.32281  0.72620  0.68394  1.0000
  H   H492      1.0  0.17223  0.50884  0.65272  1.0000
  H   H493      1.0  0.25066  0.85011  0.67525  1.0000
  H   H494      1.0  0.30440  0.95135  0.93159  1.0000
  C   C298      1.0  0.18727  0.49867  0.53509  1.0000
  H   H495      1.0  0.31557  0.88377  0.67458  1.0000
  H   H496      1.0  0.28832  0.92481  0.94702  1.0000
  H   H497      1.0  0.26033  0.90144  0.90924  1.0000
  H   H498      1.0  0.01986  0.49599  0.91447  1.0000
  C   C299      1.0  0.25990  0.86870  0.61305  1.0000
  C   C300      1.0  0.16843  0.57815  0.55428  1.0000
  H   H499      1.0  0.29539  0.92696  0.90472  1.0000
  H   H500      1.0  0.23791  0.96296  0.98261  1.0000
  C   C301      1.0  0.30056  0.88504  0.65619  1.0000
  H   H501      1.0  0.29353  0.85491  0.56812  1.0000
  H   H502      1.0  0.26382  0.88460  0.56457  1.0000
  H   H503      1.0  0.04464  0.94862  0.93227  1.0000
  H   H504      1.0  0.26616  0.95997  0.89535  1.0000
  C   C302      1.0  0.30130  0.54341  0.83347  1.0000
  C   C303      1.0  0.24520  0.94379  0.98438  1.0000
  H   H505      1.0  0.15932  0.59553  0.56289  1.0000
  H   H506      1.0  0.16623  0.93573  0.96741  1.0000
  C   C304      1.0  0.23704  0.92684  0.95621  1.0000
  H   H507      1.0  0.20247  0.93934  0.91037  1.0000
  H   H508      1.0  0.09098  0.93884  0.93784  1.0000
  C   C305      1.0  0.26663  0.83707  0.67422  1.0000
  S   S91       1.0  0.29273  0.89050  0.50663  1.0000
  H   H509      1.0  0.25317  0.87674  0.63596  1.0000
  H   H510      1.0  0.21937  0.52297  0.58140  1.0000
  C   C306      1.0  0.31681  0.52264  0.88195  1.0000
  C   C307      1.0  0.20660  0.74373  0.97219  1.0000
  H   H511      1.0  0.25088  0.91983  0.87575  1.0000
  C   C308      1.0  0.32355  0.92327  0.53787  1.0000
  S   S92       1.0  0.10582  0.50036  0.65240  1.0000
  C   C309      1.0  0.22230  0.89680  0.89599  1.0000
  N   N22       1.0  0.07713  0.93810  0.98654  1.0000
  H   H512      1.0  0.21699  0.92296  0.95966  1.0000
  H   H513      1.0  0.31479  0.87336  0.61043  1.0000
  H   H514      1.0  0.14514  0.55270  0.57994  1.0000
  H   H515      1.0  0.27097  0.83169  0.57441  1.0000
  C   C310      1.0  0.20859  0.54031  0.57649  1.0000
  C   C311      1.0  0.17437  0.52353  0.54375  1.0000
  C   C312      1.0  0.25686  0.71418  0.93967  1.0000
  H   H516      1.0  0.19958  0.75927  0.95705  1.0000
  H   H517      1.0  0.25830  0.81995  0.62864  1.0000
  H   H518      1.0  0.05585  0.92345  0.90857  1.0000
  H   H519      1.0  0.31115  0.93742  0.52847  1.0000
  C   C313      1.0  0.21766  0.56042  0.60060  1.0000
  H   H520      1.0  0.03419  0.52502  0.92714  1.0000
  H   H521      1.0  0.20005  0.52431  0.64153  1.0000
  H   H522      1.0  0.31406  0.81670  0.55941  1.0000
  C   C314      1.0  0.26477  0.95161  0.91984  1.0000
  C   C315      1.0  0.04269  0.51467  0.87710  1.0000
  H   H523      1.0  0.31687  0.55645  0.82909  1.0000
  H   H524      1.0  0.15392  0.52033  0.54211  1.0000
  C   C316      1.0  0.01412  0.50916  0.50967  1.0000
  H   H525      1.0  0.15903  0.57297  0.53142  1.0000
  H   H526      1.0  0.28945  0.81646  0.64223  1.0000
  H   H527      1.0  0.17058  0.54105  0.64389  1.0000
  H   H528      1.0  0.17896  0.53641  0.52374  1.0000
  H   H529      1.0  0.20599  0.72663  0.95732  1.0000
  C   C317      1.0  0.27415  0.83027  0.63954  1.0000
  H   H530      1.0  0.24659  0.90879  0.96067  1.0000
  C   C318      1.0  0.32671  0.61170  0.79971  1.0000
  H   H531      1.0  0.03985  0.54373  0.82611  1.0000
  S   S93       1.0  0.03169  0.52271  0.54170  1.0000
  H   H532      1.0  0.28202  0.56212  0.79437  1.0000
  H   H533      1.0  0.28216  0.90037  0.59456  1.0000
  H   H534      1.0  0.02518  0.56223  0.89192  1.0000
  S   S94       1.0  0.10117  0.51798  0.57679  1.0000
  C   C319      1.0  0.09617  0.96300  0.52437  1.0000
  H   H535      1.0  0.06318  0.98583  0.50753  1.0000
  H   H536      1.0  0.24363  0.85817  0.60347  1.0000
  Fe  Fe48      1.0  0.21322  0.85524  0.98256  1.0000
  H   H537      1.0  0.32558  0.82630  0.59760  1.0000
  C   C320      1.0  0.04442  0.50924  0.80143  1.0000
  H   H538      1.0  0.23974  0.71282  0.92477  1.0000
  C   C321      1.0  0.00130  0.53404  0.86843  1.0000
  H   H539      1.0  0.27430  0.50533  0.85741  1.0000
  H   H540      1.0  0.31647  0.64285  0.67019  1.0000
  H   H541      1.0  0.08288  0.90861  0.95127  1.0000
  C   C322      1.0  0.00970  0.56105  0.87437  1.0000
  H   H542      1.0  0.30957  0.67950  0.70691  1.0000
  C   C323      1.0  0.00106  0.98354  0.76966  1.0000
  S   S95       1.0  0.21190  0.81325  0.98201  1.0000
  H   H543      1.0  0.26572  0.94430  0.98684  1.0000
  H   H544      1.0  0.26704  0.69516  0.98380  1.0000
  C   C324      1.0  0.13808  0.92664  0.50625  1.0000
  C   C325      1.0  0.03645  0.50796  0.91226  1.0000
  H   H545      1.0  0.30192  0.80233  0.59444  1.0000
  H   H546      1.0  0.23476  0.69527  0.97452  1.0000
  N   N23       1.0  0.02057  0.51634  0.85492  1.0000
  H   H547      1.0  0.11041  0.96913  0.54221  1.0000
  C   C326      1.0  0.21295  0.97464  0.92814  1.0000
  C   C327      1.0  0.29128  0.49926  0.84416  1.0000
  C   C328      1.0  0.99668  0.52643  0.74031  1.0000
  H   H548      1.0  0.05028  0.51960  0.77961  1.0000
  H   H549      1.0  0.14486  0.96556  0.50992  1.0000
  H   H550      1.0  0.19814  0.98458  0.91446  1.0000
  H   H551      1.0  0.31784  0.60163  0.75086  1.0000
  H   H552      1.0  0.32528  0.67381  0.76122  1.0000
  H   H553      1.0  0.06155  0.50279  0.81374  1.0000
  H   H554      1.0  0.18435  0.49836  0.59798  1.0000
  N   N24       1.0  0.10732  0.96219  0.49102  1.0000
  H   H555      1.0  0.32690  0.50622  0.89194  1.0000
  S   S96       1.0  0.10330  0.99295  0.82804  1.0000
  H   H556      1.0  0.99386  0.57164  0.88486  1.0000
  H   H557      1.0  0.99391  0.54635  0.74158  1.0000
  H   H558      1.0  0.31597  0.49458  0.78723  1.0000
  H   H559      1.0  0.18342  0.49421  0.50940  1.0000
  C   C329      1.0  0.59907  0.42541  0.23592  1.0000
  S   S97       1.0  0.54863  0.01725  0.28459  1.0000
  Fe  Fe49      1.0  0.60951  0.00930  0.37775  1.0000
  S   S98       1.0  0.64607  0.02615  0.39587  1.0000
  H   H560      1.0  0.33393  0.18434  0.07544  1.0000
  S   S99       1.0  0.56924  0.02133  0.37828  1.0000
  S   S100      1.0  0.43501  0.02196  0.12825  1.0000
  H   H561      1.0  0.57442  0.02016  0.14268  1.0000
  C   C330      1.0  0.34703  0.40680  0.45256  1.0000
  C   C331      1.0  0.55486  0.42762  0.19365  1.0000
  Fe  Fe50      1.0  0.39405  0.01275  0.12631  1.0000
  S   S101      1.0  0.35731  0.03341  0.13627  1.0000
  C   C332      1.0  0.61956  0.01732  0.48256  1.0000
  S   S102      1.0  0.43080  0.46379  0.36960  1.0000
  C   C333      1.0  0.49768  0.00814  0.21234  1.0000
  S   S103      1.0  0.45429  0.47242  0.27808  1.0000
  Fe  Fe51      1.0  0.38963  0.47245  0.36691  1.0000
  S   S104      1.0  0.35645  0.44571  0.36866  1.0000
  H   H562      1.0  0.34526  0.33842  0.35825  1.0000
  S   S105      1.0  0.56405  0.46769  0.11706  1.0000
  Fe  Fe52      1.0  0.60508  0.47609  0.11482  1.0000
  S   S106      1.0  0.64079  0.45482  0.12888  1.0000
  H   H563      1.0  0.53934  0.00804  0.03528  1.0000
  S   S107      1.0  0.53882  0.47319  0.02720  1.0000
  C   C334      1.0  0.34384  0.42782  0.40074  1.0000
  C   C335      1.0  0.35742  0.42214  0.42858  1.0000
  H   H564      1.0  0.33726  0.30124  0.38586  1.0000
  H   H565      1.0  0.56205  0.08627  0.45366  1.0000
  H   H566      1.0  0.37604  0.42930  0.43144  1.0000
  H   H567      1.0  0.54918  0.43611  0.24387  1.0000
  C   C336      1.0  0.34745  0.13611  0.10493  1.0000
  C   C337      1.0  0.48894  0.47518  0.45913  1.0000
  C   C338      1.0  0.54946  0.00645  0.08712  1.0000
  H   H568      1.0  0.54200  0.07006  0.42679  1.0000
  H   H569      1.0  0.48327  0.46531  0.43760  1.0000
  C   C339      1.0  0.59661  0.02827  0.46521  1.0000
  H   H570      1.0  0.53506  0.42903  0.18612  1.0000
  H   H571      1.0  0.51897  0.03285  0.15117  1.0000
  C   C340      1.0  0.48392  0.47328  0.22410  1.0000
  H   H572      1.0  0.34261  0.21568  0.16356  1.0000
  H   H573      1.0  0.47412  0.45653  0.21736  1.0000
  C   C341      1.0  0.63149  0.40963  0.15986  1.0000
  H   H574      1.0  0.60361  0.04143  0.44697  1.0000
  H   H575      1.0  0.45921  0.45151  0.99330  1.0000
  Fe  Fe53      1.0  0.56088  0.48927  0.07004  1.0000
  H   H576      1.0  0.61223  0.41206  0.15301  1.0000
  H   H577      1.0  0.38372  0.99792  0.45334  1.0000
  H   H578      1.0  0.54235  0.04972  0.13099  1.0000
  C   C342      1.0  0.34916  0.06136  0.15694  1.0000
  C   C343      1.0  0.35938  0.10003  0.18454  1.0000
  C   C344      1.0  0.36693  0.07787  0.16894  1.0000
  H   H579      1.0  0.37330  0.11275  0.19350  1.0000
  H   H580      1.0  0.38648  0.07366  0.16605  1.0000
  C   C345      1.0  0.58566  0.46374  0.26352  1.0000
  H   H581      1.0  0.63319  0.48075  0.19255  1.0000
  C   C346      1.0  0.63861  0.07616  0.41162  1.0000
  H   H582      1.0  0.63379  0.11487  0.42439  1.0000
  H   H583      1.0  0.62007  0.07427  0.40182  1.0000
  H   H584      1.0  0.58321  0.47812  0.19471  1.0000
  H   H585      1.0  0.34896  0.11582  0.10003  1.0000
  H   H586      1.0  0.52428  0.03577  0.22763  1.0000
  S   S108      1.0  0.46057  0.01985  0.04053  1.0000
  H   H587      1.0  0.34682  0.31078  0.44038  1.0000
  H   H588      1.0  0.37594  0.47543  0.01969  1.0000
  C   C347      1.0  0.32820  0.20974  0.14598  1.0000
  C   C348      1.0  0.51634  0.01780  0.23279  1.0000
  H   H589      1.0  0.49123  0.01866  0.19179  1.0000
  H   H590      1.0  0.63013  0.43632  0.26820  1.0000
  Fe  Fe54      1.0  0.43773  0.00159  0.08041  1.0000
  H   H591      1.0  0.48026  0.04586  0.09913  1.0000
  N   N25       1.0  0.57716  0.03985  0.48677  1.0000
  C   C349      1.0  0.64896  0.42748  0.15090  1.0000
  S   S109      1.0  0.39635  0.99531  0.07681  1.0000
  C   C350      1.0  0.42279  0.45502  0.01751  1.0000
  H   H592      1.0  0.41655  0.46070  0.04206  1.0000
  H   H593      1.0  0.58938  0.41395  0.25432  1.0000
  C   C351      1.0  0.50262  0.48257  0.20368  1.0000
  N   N26       1.0  0.40976  0.47050  0.99223  1.0000
  H   H594      1.0  0.60457  0.46822  0.27212  1.0000
  H   H595      1.0  0.56713  0.48749  0.45651  1.0000
  H   H596      1.0  0.50323  0.06613  0.11715  1.0000
  H   H597      1.0  0.63684  0.34448  0.11159  1.0000
  H   H598      1.0  0.33178  0.30584  0.32258  1.0000
  H   H599      1.0  0.63437  0.01357  0.46456  1.0000
  H   H600      1.0  0.57785  0.45167  0.28278  1.0000
  C   C352      1.0  0.51701  0.48791  0.00089  1.0000
  H   H601      1.0  0.58829  0.01290  0.45075  1.0000
  C   C353      1.0  0.57062  0.48826  0.26397  1.0000
  H   H602      1.0  0.56459  0.02025  0.08361  1.0000
  C   C354      1.0  0.51844  0.03925  0.08131  1.0000
  H   H603      1.0  0.35782  0.40235  0.47382  1.0000
  H   H604      1.0  0.63355  0.40691  0.24895  1.0000
  H   H605      1.0  0.63818  0.43399  0.22556  1.0000
  H   H606      1.0  0.35141  0.18120  0.12726  1.0000
  Fe  Fe55      1.0  0.56615  0.00094  0.33028  1.0000
  H   H607      1.0  0.49305  0.07060  0.07657  1.0000
  C   C355      1.0  0.53525  0.03052  0.13493  1.0000
  H   H608      1.0  0.49071  0.00993  0.12119  1.0000
  C   C356      1.0  0.45144  0.45619  0.01723  1.0000
  H   H609      1.0  0.37829  0.42851  0.01072  1.0000
  S   S110      1.0  0.39296  0.49222  0.31911  1.0000
  C   C357      1.0  0.33404  0.10581  0.18874  1.0000
  H   H610      1.0  0.56630  0.43301  0.17271  1.0000
  H   H611      1.0  0.54894  0.46218  0.21779  1.0000
  C   C358      1.0  0.65481  0.05575  0.41141  1.0000
  H   H612      1.0  0.33076  0.35039  0.30916  1.0000
  H   H613      1.0  0.35343  0.14607  0.08296  1.0000
  H   H614      1.0  0.45903  0.44236  0.03457  1.0000
  H   H615      1.0  0.50713  0.47297  0.18150  1.0000
  H   H616      1.0  0.53412  0.05154  0.07425  1.0000
  H   H617      1.0  0.55842  0.40783  0.19968  1.0000
  C   C359      1.0  0.33579  0.32485  0.42688  1.0000
  H   H618      1.0  0.51101  0.03157  0.05842  1.0000
  H   H619      1.0  0.55730  0.02627  0.17869  1.0000
  C   C360      1.0  0.49766  0.05622  0.09485  1.0000
  H   H620      1.0  0.51568  0.44726  0.47365  1.0000
  C   C361      1.0  0.64649  0.09920  0.42435  1.0000
  H   H621      1.0  0.50505  0.01537  0.43876  1.0000
  C   C362      1.0  0.55913  0.06808  0.44163  1.0000
  H   H622      1.0  0.62535  0.37470  0.18420  1.0000
  N   N27       1.0  0.52748  0.01874  0.10329  1.0000
  C   C363      1.0  0.55913  0.44464  0.22314  1.0000
  H   H623      1.0  0.36041  0.13997  0.12519  1.0000
  C   C364      1.0  0.63902  0.38838  0.17744  1.0000
  H   H624      1.0  0.33378  0.17210  0.16133  1.0000
  C   C365      1.0  0.37107  0.44170  0.99247  1.0000
  C   C366      1.0  0.50144  0.00633  0.46150  1.0000
  N   N28       1.0  0.58589  0.45004  0.23174  1.0000
  H   H625      1.0  0.60257  0.45260  0.18437  1.0000
  H   H626      1.0  0.59855  0.41441  0.21325  1.0000
  C   C367      1.0  0.62017  0.48106  0.21328  1.0000
  H   H627      1.0  0.53946  0.05410  0.48161  1.0000
  C   C368      1.0  0.62674  0.42627  0.24531  1.0000
  H   H628      1.0  0.41792  0.43512  0.01596  1.0000
  C   C369      1.0  0.48177  0.00620  0.01258  1.0000
  C   C370      1.0  0.52452  0.00457  0.26013  1.0000
  H   H629      1.0  0.57443  0.06399  0.42464  1.0000
  C   C371      1.0  0.59727  0.46496  0.20480  1.0000
  C   C372      1.0  0.65636  0.34335  0.12023  1.0000
  C   C373      1.0  0.33250  0.18211  0.13794  1.0000
  C   C374      1.0  0.47777  0.48539  0.25318  1.0000
  H   H630      1.0  0.63105  0.47502  0.23443  1.0000
  H   H631      1.0  0.32983  0.36278  0.37935  1.0000
  H   H632      1.0  0.34891  0.33941  0.41891  1.0000
  H   H633      1.0  0.47202  0.03180  0.47497  1.0000
  H   H634      1.0  0.33051  0.22168  0.12449  1.0000
  H   H635      1.0  0.41206  0.01397  0.46070  1.0000
  C   C375      1.0  0.55506  0.04728  0.46644  1.0000
  H   H636      1.0  0.45846  0.47459  0.02515  1.0000
  H   H637      1.0  0.35065  0.44281  0.99621  1.0000
  Fe  Fe56      1.0  0.43429  0.48630  0.32368  1.0000
  H   H638      1.0  0.65923  0.30758  0.09817  1.0000
  C   C376      1.0  0.55610  0.01754  0.15442  1.0000
  C   C377      1.0  0.38198  0.46800  0.99584  1.0000
  C   C378      1.0  0.60550  0.07903  0.48932  1.0000
  H   H639      1.0  0.60374  0.08008  0.46291  1.0000
  H   H640      1.0  0.54786  0.03081  0.45309  1.0000
  C   C379      1.0  0.50734  0.46501  0.47963  1.0000
  H   H641      1.0  0.55303  0.99748  0.15813  1.0000
  H   H642      1.0  0.59904  0.48465  0.46762  1.0000
  C   C380      1.0  0.48264  0.01557  0.48208  1.0000
  H   H643      1.0  0.65574  0.33765  0.14583  1.0000
  C   C381      1.0  0.40400  0.99520  0.45687  1.0000
  C   C382      1.0  0.50635  0.00082  0.10822  1.0000
  H   H644      1.0  0.55034  0.48462  0.26434  1.0000
  H   H645      1.0  0.65870  0.48581  0.07285  1.0000
  H   H646      1.0  0.49027  0.04143  0.99064  1.0000
  C   C383      1.0  0.49423  0.02169  0.99069  1.0000
  C   C384      1.0  0.54441  0.99425  0.05403  1.0000
  H   H647      1.0  0.49843  0.99492  0.08461  1.0000
  H   H648      1.0  0.41576  0.07443  0.70047  1.0000
  H   H649      1.0  0.55023  0.04436  0.54572  1.0000
  Fe  Fe57      1.0  0.59587  0.03390  0.88163  1.0000
  S   S111      1.0  0.61357  0.07225  0.88834  1.0000
  S   S112      1.0  0.60302  0.01618  0.83357  1.0000
  S   S113      1.0  0.55438  0.02815  0.87742  1.0000
  S   S114      1.0  0.42810  0.02457  0.62784  1.0000
  C   C385      1.0  0.36057  0.07597  0.67133  1.0000
  H   H650      1.0  0.57470  0.33949  0.52208  1.0000
  H   H651      1.0  0.48162  0.45703  0.58796  1.0000
  Fe  Fe58      1.0  0.38779  0.01370  0.62324  1.0000
  S   S115      1.0  0.35187  0.03644  0.62931  1.0000
  H   H652      1.0  0.34830  0.49057  0.78860  1.0000
  S   S116      1.0  0.43691  0.46854  0.87691  1.0000
  H   H653      1.0  0.57103  0.07327  0.51496  1.0000
  S   S117      1.0  0.46982  0.46171  0.79140  1.0000
  Fe  Fe59      1.0  0.39574  0.47486  0.86926  1.0000
  S   S118      1.0  0.36088  0.45879  0.89325  1.0000
  H   H654      1.0  0.33678  0.10475  0.60201  1.0000
  S   S119      1.0  0.56535  0.46551  0.62062  1.0000
  Fe  Fe60      1.0  0.60564  0.47619  0.61523  1.0000
  S   S120      1.0  0.63963  0.45045  0.61592  1.0000
  H   H655      1.0  0.52121  0.02408  0.95212  1.0000
  S   S121      1.0  0.53888  0.46459  0.53209  1.0000
  C   C386      1.0  0.35065  0.42905  0.90663  1.0000
  C   C387      1.0  0.36494  0.40742  0.90291  1.0000
  H   H656      1.0  0.42567  0.00538  0.75678  1.0000
  C   C388      1.0  0.51784  0.47431  0.71707  1.0000
  H   H657      1.0  0.38274  0.40831  0.89098  1.0000
  H   H658      1.0  0.33601  0.34771  0.86924  1.0000
  H   H659      1.0  0.37358  0.43419  0.96785  1.0000
  H   H660      1.0  0.47490  0.46319  0.64488  1.0000
  C   C389      1.0  0.57845  0.34865  0.54562  1.0000
  H   H661      1.0  0.32799  0.32053  0.82204  1.0000
  H   H662      1.0  0.48104  0.47377  0.93495  1.0000
  H   H663      1.0  0.41153  0.43236  0.92672  1.0000
  C   C390      1.0  0.44826  0.49063  0.68304  1.0000
  C   C391      1.0  0.64636  0.06737  0.94012  1.0000
  C   C392      1.0  0.50309  0.46282  0.74083  1.0000
  H   H664      1.0  0.52925  0.46314  0.70117  1.0000
  H   H665      1.0  0.50334  0.44278  0.74306  1.0000
  H   H666      1.0  0.38091  0.08617  0.76961  1.0000
  H   H667      1.0  0.40425  0.47212  0.94058  1.0000
  S   S122      1.0  0.40064  0.48298  0.81637  1.0000
  H   H668      1.0  0.63534  0.34912  0.56366  1.0000
  H   H669      1.0  0.33068  0.19292  0.61642  1.0000
  H   H670      1.0  0.56976  0.42235  0.55957  1.0000
  H   H671      1.0  0.63222  0.39056  0.54920  1.0000
  C   C393      1.0  0.34305  0.06121  0.65549  1.0000
  H   H672      1.0  0.52036  0.48739  0.81433  1.0000
  S   S123      1.0  0.60316  0.99830  0.90839  1.0000
  C   C394      1.0  0.50654  0.47406  0.97543  1.0000
  C   C395      1.0  0.32734  0.10127  0.69549  1.0000
  C   C396      1.0  0.63784  0.08206  0.91459  1.0000
  H   H673      1.0  0.51003  0.43288  0.87171  1.0000
  H   H674      1.0  0.44500  0.06595  0.68543  1.0000
  H   H675      1.0  0.50964  0.45179  0.60943  1.0000
  H   H676      1.0  0.63723  0.05000  0.94539  1.0000
  C   C397      1.0  0.65013  0.42802  0.64422  1.0000
  H   H677      1.0  0.44739  0.00280  0.80736  1.0000
  C   C398      1.0  0.49310  0.00794  0.71152  1.0000
  H   H678      1.0  0.44124  0.43224  0.94526  1.0000
  H   H679      1.0  0.36742  0.36790  0.91179  1.0000
  H   H680      1.0  0.52900  0.02781  0.51932  1.0000
  N   N29       1.0  0.59470  0.39108  0.56792  1.0000
  C   C399      1.0  0.39033  0.02139  0.71351  1.0000
  H   H681      1.0  0.58415  0.01395  0.52591  1.0000
  C   C400      1.0  0.44489  0.02160  0.79674  1.0000
  N   N30       1.0  0.41685  0.04491  0.75556  1.0000
  H   H682      1.0  0.33194  0.13669  0.64226  1.0000
  C   C401      1.0  0.51508  0.47772  0.50755  1.0000
  C   C402      1.0  0.41587  0.06595  0.77978  1.0000
  H   H683      1.0  0.33493  0.27030  0.91407  1.0000
  H   H684      1.0  0.61811  0.35249  0.60077  1.0000
  H   H685      1.0  0.40593  0.01556  0.78842  1.0000
  H   H686      1.0  0.40703  0.05960  0.80259  1.0000
  C   C403      1.0  0.33285  0.38269  0.92995  1.0000
  C   C404      1.0  0.42227  0.02112  0.77369  1.0000
  H   H687      1.0  0.56012  0.47930  0.78932  1.0000
  H   H688      1.0  0.59879  0.37620  0.51953  1.0000
  C   C405      1.0  0.51037  0.45136  0.85984  1.0000
  S   S124      1.0  0.54635  0.01584  0.78079  1.0000
  H   H689      1.0  0.43500  0.07189  0.78654  1.0000
  C   C406      1.0  0.40125  0.08963  0.77024  1.0000
  H   H690      1.0  0.56040  0.39081  0.59514  1.0000
  C   C407      1.0  0.55926  0.47805  0.81604  1.0000
  C   C408      1.0  0.59009  0.39691  0.62950  1.0000
  H   H691      1.0  0.59110  0.41741  0.62843  1.0000
  H   H692      1.0  0.59769  0.43040  0.57972  1.0000
  S   S125      1.0  0.45420  0.01724  0.53723  1.0000
  C   C409      1.0  0.60132  0.42793  0.52870  1.0000
  C   C410      1.0  0.35276  0.09582  0.69127  1.0000
  C   C411      1.0  0.43756  0.04865  0.73165  1.0000
  C   C412      1.0  0.51911  0.00598  0.76019  1.0000
  H   H693      1.0  0.62192  0.42807  0.52955  1.0000
  H   H694      1.0  0.60272  0.09827  0.49850  1.0000
  C   C413      1.0  0.58679  0.06159  0.50617  1.0000
  H   H695      1.0  0.38553  0.05914  0.72749  1.0000
  H   H696      1.0  0.40717  0.09757  0.74702  1.0000
  H   H697      1.0  0.50120  0.48275  0.64923  1.0000
  H   H698      1.0  0.56782  0.38473  0.52965  1.0000
  H   H699      1.0  0.44327  0.08773  0.71850  1.0000
  H   H700      1.0  0.59524  0.44749  0.52517  1.0000
  C   C414      1.0  0.58024  0.38515  0.59807  1.0000
  C   C415      1.0  0.62229  0.38737  0.57227  1.0000
  H   H701      1.0  0.60859  0.38927  0.63606  1.0000
  C   C416      1.0  0.51182  0.01191  0.96878  1.0000
  H   H702      1.0  0.38009  0.07226  0.66768  1.0000
  H   H703      1.0  0.46378  0.48744  0.56123  1.0000
  H   H704      1.0  0.34293  0.14939  0.60537  1.0000
  C   C417      1.0  0.54697  0.02679  0.53241  1.0000
  C   C418      1.0  0.63120  0.36169  0.58426  1.0000
  H   H705      1.0  0.40341  0.02480  0.69347  1.0000
  H   H706      1.0  0.43085  0.49014  0.56067  1.0000
  H   H707      1.0  0.57962  0.36494  0.60296  1.0000
  H   H708      1.0  0.37135  0.02147  0.70285  1.0000
  H   H709      1.0  0.63028  0.40173  0.58858  1.0000
  C   C419      1.0  0.58511  0.37611  0.53963  1.0000
  Fe  Fe61      1.0  0.44198  0.48085  0.82507  1.0000
  C   C420      1.0  0.59009  0.41823  0.56048  1.0000
  H   H710      1.0  0.41420  0.42294  0.96744  1.0000
  C   C421      1.0  0.64607  0.40461  0.69396  1.0000
  H   H711      1.0  0.64847  0.36409  0.59870  1.0000
  H   H712      1.0  0.44218  0.03466  0.81717  1.0000
  C   C422      1.0  0.41772  0.46424  0.95830  1.0000
  H   H713      1.0  0.62048  0.43338  0.67824  1.0000
  C   C423      1.0  0.42130  0.43638  0.94975  1.0000
  H   H714      1.0  0.48939  0.01571  0.68797  1.0000
  H   H715      1.0  0.46245  0.02599  0.78416  1.0000
  H   H716      1.0  0.57732  0.39229  0.64957  1.0000
  H   H717      1.0  0.54474  0.01183  0.55058  1.0000
  H   H718      1.0  0.59656  0.05471  0.52815  1.0000
  H   H719      1.0  0.36648  0.10716  0.70332  1.0000
  H   H720      1.0  0.55722  0.45808  0.82191  1.0000
  H   H721      1.0  0.45554  0.05157  0.74431  1.0000
  H   H722      1.0  0.43567  0.47346  0.95273  1.0000
  H   H723      1.0  0.34702  0.17163  0.66454  1.0000
  H   H724      1.0  0.65445  0.07989  0.81258  1.0000
  H   H725      1.0  0.64304  0.11653  0.88913  1.0000
  H   H726      1.0  0.43995  0.47575  0.61396  1.0000
  C   C424      1.0  0.35613  0.38446  0.91466  1.0000
  H   H727      1.0  0.62494  0.07410  0.49586  1.0000
  C   C425      1.0  0.48789  0.47700  0.76157  1.0000
  H   H728      1.0  0.44108  0.03156  0.71719  1.0000
  H   H729      1.0  0.51203  0.45483  0.97225  1.0000
  H   H730      1.0  0.51461  0.44805  0.83405  1.0000
  C   C426      1.0  0.53004  0.46772  0.87652  1.0000
  C   C427      1.0  0.47750  0.00409  0.51179  1.0000
  H   H731      1.0  0.37729  0.03801  0.75775  1.0000
  C   C428      1.0  0.64959  0.10492  0.90867  1.0000
  H   H732      1.0  0.49145  0.45939  0.86207  1.0000
  Fe  Fe62      1.0  0.56223  0.00750  0.83105  1.0000
  H   H733      1.0  0.63593  0.40085  0.71589  1.0000
  C   C429      1.0  0.51397  0.01580  0.72944  1.0000
  H   H734      1.0  0.56110  0.34707  0.55989  1.0000
  C   C430      1.0  0.43502  0.07061  0.70810  1.0000
  Fe  Fe63      1.0  0.43427  0.00210  0.58200  1.0000
  C   C431      1.0  0.48530  0.47840  0.63297  1.0000
  S   S126      1.0  0.59997  0.49246  0.56568  1.0000
  C   C432      1.0  0.56869  0.01987  0.50977  1.0000
  H   H735      1.0  0.40431  0.10415  0.78890  1.0000
  C   C433      1.0  0.48891  0.48477  0.95425  1.0000
  H   H736      1.0  0.61514  0.99922  0.49392  1.0000
  H   H737      1.0  0.65049  0.04319  0.85233  1.0000
  C   C434      1.0  0.32908  0.18183  0.66609  1.0000
  H   H738      1.0  0.54817  0.45769  0.87546  1.0000
  H   H739      1.0  0.43303  0.48094  0.67019  1.0000
  C   C435      1.0  0.63726  0.42307  0.67268  1.0000
  H   H740      1.0  0.52629  0.02956  0.71936  1.0000
  H   H741      1.0  0.56315  0.00280  0.49638  1.0000
  H   H742      1.0  0.32728  0.26304  0.83127  1.0000
  C   C436      1.0  0.32745  0.42730  0.92209  1.0000
  H   H743      1.0  0.52518  0.46811  0.90260  1.0000
  C   C437      1.0  0.49618  0.46651  0.60230  1.0000
  C   C438      1.0  0.39188  0.04187  0.73943  1.0000
  H   H744      1.0  0.57720  0.48508  0.82541  1.0000
  H   H745      1.0  0.65588  0.04849  0.79739  1.0000
  H   H746      1.0  0.59471  0.41757  0.50724  1.0000
  Fe  Fe64      1.0  0.55949  0.48443  0.57273  1.0000
  H   H747      1.0  0.46173  0.47688  0.69286  1.0000
  N   N31       1.0  0.53234  0.49378  0.86368  1.0000
  H   H748      1.0  0.39349  0.00254  0.72352  1.0000
  H   H749      1.0  0.34043  0.29438  0.86473  1.0000
  H   H750      1.0  0.64973  0.02340  0.89783  1.0000
  H   H751      1.0  0.37206  0.47922  0.97726  1.0000
  H   H752      1.0  0.59354  0.33801  0.55737  1.0000
  H   H753      1.0  0.62731  0.03015  0.50086  1.0000
  H   H754      1.0  0.33328  0.20058  0.67591  1.0000
  H   H755      1.0  0.32841  0.31278  0.89641  1.0000
  H   H756      1.0  0.50658  0.47982  0.58729  1.0000
  C   C439      1.0  0.53704  0.49382  0.82785  1.0000
  H   H757      1.0  0.55877  0.49205  0.93013  1.0000
  H   H758      1.0  0.57695  0.49235  0.49784  1.0000
  S   S127      1.0  0.39345  0.99414  0.57557  1.0000
  S   S128      1.0  0.55568  0.96433  0.35230  1.0000
  C   C440      1.0  0.57613  0.94782  0.26406  1.0000
  Fe  Fe65      1.0  0.59697  0.95664  0.35258  1.0000
  S   S129      1.0  0.61316  0.91819  0.34110  1.0000
  H   H759      1.0  0.48607  0.51658  0.28380  1.0000
  C   C441      1.0  0.37773  0.94840  0.47531  1.0000
  H   H760      1.0  0.52774  0.56417  0.42611  1.0000
  H   H761      1.0  0.41293  0.50208  0.02485  1.0000
  Fe  Fe66      1.0  0.40378  0.95929  0.10239  1.0000
  S   S130      1.0  0.38492  0.92156  0.09507  1.0000
  S   S131      1.0  0.44543  0.96421  0.10242  1.0000
  H   H762      1.0  0.51399  0.55819  0.46523  1.0000
  Fe  Fe67      1.0  0.39846  0.52714  0.34766  1.0000
  S   S132      1.0  0.38361  0.56606  0.33535  1.0000
  C   C442      1.0  0.41632  0.49732  0.99906  1.0000
  H   H763      1.0  0.36248  0.61425  0.32320  1.0000
  S   S133      1.0  0.44016  0.52243  0.34971  1.0000
  H   H764      1.0  0.64254  0.61378  0.08362  1.0000
  Fe  Fe68      1.0  0.59589  0.53044  0.09278  1.0000
  S   S134      1.0  0.61542  0.56797  0.08660  1.0000
  H   H765      1.0  0.49574  0.96510  0.12792  1.0000
  H   H766      1.0  0.59778  0.59707  0.46717  1.0000
  H   H767      1.0  0.64482  0.54633  0.15023  1.0000
  S   S135      1.0  0.55408  0.52628  0.09422  1.0000
  C   C443      1.0  0.63968  0.57796  0.06050  1.0000
  C   C444      1.0  0.42027  0.94000  0.45636  1.0000
  H   H768      1.0  0.34883  0.92168  0.46355  1.0000
  H   H769      1.0  0.56734  0.88916  0.29893  1.0000
  H   H770      1.0  0.44706  0.51631  0.21097  1.0000
  C   C445      1.0  0.35105  0.60088  0.31060  1.0000
  H   H771      1.0  0.59059  0.94186  0.28174  1.0000
  C   C446      1.0  0.54607  0.91386  0.26622  1.0000
  H   H772      1.0  0.51754  0.52370  0.02411  1.0000
  H   H773      1.0  0.37288  0.58767  0.23652  1.0000
  H   H774      1.0  0.40483  0.51429  0.21215  1.0000
  C   C447      1.0  0.32786  0.88303  0.05403  1.0000
  H   H775      1.0  0.38147  0.51178  0.24300  1.0000
  C   C448      1.0  0.58738  0.96906  0.24394  1.0000
  H   H776      1.0  0.51938  0.53282  0.24818  1.0000
  C   C449      1.0  0.63853  0.90959  0.31595  1.0000
  C   C450      1.0  0.42037  0.58071  0.26217  1.0000
  C   C451      1.0  0.54169  0.91364  0.19404  1.0000
  C   C452      1.0  0.36845  0.92136  0.47201  1.0000
  H   H777      1.0  0.36315  0.57184  0.20103  1.0000
  H   H778      1.0  0.34524  0.98144  0.13533  1.0000
  C   C453      1.0  0.57294  0.56596  0.45847  1.0000
  S   S136      1.0  0.46513  0.97077  0.19257  1.0000
  C   C454      1.0  0.50967  0.51274  0.00474  1.0000
  H   H779      1.0  0.34694  0.95957  0.18197  1.0000
  H   H780      1.0  0.51925  0.97147  0.28817  1.0000
  H   H781      1.0  0.55767  0.99161  0.10235  1.0000
  H   H782      1.0  0.35479  0.87779  0.09215  1.0000
  H   H783      1.0  0.45964  0.93314  0.44691  1.0000
  H   H784      1.0  0.48731  0.95383  0.25136  1.0000
  S   S137      1.0  0.39261  0.50813  0.39529  1.0000
  C   C455      1.0  0.35976  0.91335  0.06930  1.0000
  C   C456      1.0  0.35105  0.92918  0.04502  1.0000
  H   H785      1.0  0.42106  0.91942  0.45934  1.0000
  H   H786      1.0  0.36003  0.94685  0.04116  1.0000
  C   C457      1.0  0.35682  0.57537  0.31297  1.0000
  C   C458      1.0  0.34184  0.55832  0.29654  1.0000
  H   H787      1.0  0.43817  0.53767  0.17879  1.0000
  H   H788      1.0  0.56167  0.98498  0.04544  1.0000
  H   H789      1.0  0.61193  0.56790  0.47594  1.0000
  H   H790      1.0  0.43646  0.50064  0.99498  1.0000
  S   S138      1.0  0.60055  0.51233  0.14109  1.0000
  H   H791      1.0  0.60120  0.92442  0.19594  1.0000
  H   H792      1.0  0.46941  0.53558  0.19243  1.0000
  C   C459      1.0  0.44734  0.94927  0.45235  1.0000
  N   N32       1.0  0.41998  0.55871  0.23941  1.0000
  H   H793      1.0  0.35739  0.93523  0.15662  1.0000
  H   H794      1.0  0.53770  0.89880  0.31357  1.0000
  C   C460      1.0  0.64999  0.60174  0.06504  1.0000
  C   C461      1.0  0.34810  0.89023  0.07357  1.0000
  C   C462      1.0  0.41228  0.53591  0.25799  1.0000
  C   C463      1.0  0.58667  0.52319  0.46524  1.0000
  H   H795      1.0  0.59548  0.90182  0.26326  1.0000
  H   H796      1.0  0.40203  0.58324  0.27403  1.0000
  H   H797      1.0  0.64629  0.94118  0.41566  1.0000
  C   C464      1.0  0.51370  0.98157  0.26684  1.0000
  H   H798      1.0  0.41099  0.94321  0.43267  1.0000
  C   C465      1.0  0.51569  0.50399  0.21230  1.0000
  C   C466      1.0  0.55427  0.90517  0.30006  1.0000
  H   H799      1.0  0.34101  0.98437  0.07249  1.0000
  S   S139      1.0  0.45572  0.51274  0.44093  1.0000
  H   H800      1.0  0.50665  0.53926  0.43150  1.0000
  C   C467      1.0  0.59420  0.57841  0.47751  1.0000
  C   C468      1.0  0.60736  0.91381  0.21728  1.0000
  H   H801      1.0  0.59341  0.52430  0.43990  1.0000
  H   H802      1.0  0.64227  0.94510  0.29277  1.0000
  C   C469      1.0  0.51557  0.98556  0.47056  1.0000
  C   C470      1.0  0.58608  0.90659  0.24011  1.0000
  C   C471      1.0  0.50939  0.51624  0.24123  1.0000
  H   H803      1.0  0.36753  0.55451  0.23724  1.0000
  H   H804      1.0  0.52480  0.90588  0.20543  1.0000
  Fe  Fe69      1.0  0.56106  0.98383  0.40009  1.0000
  H   H805      1.0  0.45875  0.58263  0.28104  1.0000
  C   C472      1.0  0.40220  0.56533  0.21253  1.0000
  H   H806      1.0  0.43854  0.56197  0.30331  1.0000
  H   H807      1.0  0.61461  0.50086  0.21619  1.0000
  H   H808      1.0  0.65389  0.51082  0.11552  1.0000
  H   H809      1.0  0.43541  0.59476  0.30731  1.0000
  C   C473      1.0  0.64951  0.56264  0.03633  1.0000
  C   C474      1.0  0.55358  0.93416  0.21493  1.0000
  C   C475      1.0  0.40169  0.51379  0.23836  1.0000
  C   C476      1.0  0.49052  0.50708  0.26152  1.0000
  H   H810      1.0  0.42814  0.52861  0.27255  1.0000
  N   N33       1.0  0.56593  0.92570  0.24578  1.0000
  H   H811      1.0  0.56135  0.95688  0.27877  1.0000
  H   H812      1.0  0.61590  0.89658  0.20729  1.0000
  H   H813      1.0  0.53541  0.92196  0.17089  1.0000
  H   H814      1.0  0.42376  0.59833  0.24882  1.0000
  H   H815      1.0  0.57835  0.88845  0.23203  1.0000
  C   C477      1.0  0.54337  0.53125  0.45077  1.0000
  S   S140      1.0  0.60723  0.99213  0.32819  1.0000
  H   H816      1.0  0.54987  0.52444  0.42680  1.0000
  H   H817      1.0  0.56658  0.94410  0.19894  1.0000
  C   C478      1.0  0.37503  0.57003  0.22284  1.0000
  H   H818      1.0  0.45930  0.55101  0.24559  1.0000
  C   C479      1.0  0.44586  0.55559  0.22604  1.0000
  H   H819      1.0  0.45232  0.57337  0.21524  1.0000
  H   H820      1.0  0.65738  0.97278  0.38238  1.0000
  Fe  Fe70      1.0  0.55940  0.50521  0.14084  1.0000
  S   S141      1.0  0.54081  0.51560  0.18894  1.0000
  H   H821      1.0  0.57874  0.56470  0.43275  1.0000
  H   H822      1.0  0.41037  0.49624  0.24704  1.0000
  H   H823      1.0  0.56272  0.92026  0.31438  1.0000
  H   H824      1.0  0.63967  0.87203  0.33399  1.0000
  C   C480      1.0  0.33574  0.96339  0.13120  1.0000
  H   H825      1.0  0.37927  0.91047  0.45415  1.0000
  Fe  Fe71      1.0  0.44089  0.98397  0.15011  1.0000
  C   C481      1.0  0.64812  0.88523  0.31777  1.0000
  S   S142      1.0  0.60150  0.97296  0.40199  1.0000
  H   H826      1.0  0.55743  0.57957  0.45835  1.0000
  H   H827      1.0  0.62199  0.92429  0.23041  1.0000
  H   H828      1.0  0.53006  0.92688  0.26949  1.0000
  H   H829      1.0  0.40864  0.58235  0.19983  1.0000
  S   S143      1.0  0.60250  0.49466  0.06606  1.0000
  H   H830      1.0  0.34600  0.53865  0.29810  1.0000
  H   H831      1.0  0.59626  0.98270  0.26035  1.0000
  H   H832      1.0  0.47775  0.96853  0.02898  1.0000
  H   H833      1.0  0.53839  0.89702  0.25431  1.0000
  C   C482      1.0  0.33091  0.92190  0.02532  1.0000
  C   C483      1.0  0.44976  0.53506  0.20059  1.0000
  C   C484      1.0  0.52200  0.54961  0.44340  1.0000
  H   H834      1.0  0.39771  0.54092  0.27592  1.0000
  C   C485      1.0  0.49544  0.97171  0.24603  1.0000
  H   H835      1.0  0.34573  0.95468  0.11066  1.0000
  C   C486      1.0  0.64953  0.92637  0.29468  1.0000
  H   H836      1.0  0.53479  0.51489  0.46259  1.0000
  H   H837      1.0  0.40162  0.55097  0.19346  1.0000
  H   H838      1.0  0.52743  0.96590  0.11631  1.0000
  H   H839      1.0  0.60276  0.52835  0.48073  1.0000
  Fe  Fe72      1.0  0.43407  0.50075  0.39553  1.0000
  C   C487      1.0  0.43956  0.57962  0.28982  1.0000
  C   C488      1.0  0.51242  0.97712  0.12744  1.0000
  H   H840      1.0  0.55502  0.89855  0.18806  1.0000
  H   H841      1.0  0.53875  0.94809  0.22041  1.0000
  H   H842      1.0  0.51671  0.98142  0.15291  1.0000
  H   H843      1.0  0.64171  0.54440  0.03235  1.0000
  S   S144      1.0  0.54079  0.97393  0.44696  1.0000
  H   H844      1.0  0.57266  0.97948  0.23077  1.0000
  S   S145      1.0  0.39982  0.97623  0.15168  1.0000
  C   C489      1.0  0.48715  0.98072  0.01236  1.0000
  H   H845      1.0  0.44885  0.96176  0.43118  1.0000
  H   H846      1.0  0.60180  0.96257  0.22695  1.0000
  H   H847      1.0  0.65947  0.94811  0.35427  1.0000
  C   C490      1.0  0.34114  0.94750  0.16155  1.0000
  H   H848      1.0  0.37286  0.95753  0.45212  1.0000
  C   C491      1.0  0.33057  0.60930  0.29218  1.0000
  N   N34       1.0  0.40502  0.95161  0.48299  1.0000
  H   H849      1.0  0.45556  0.95862  0.47351  1.0000
  C   C492      1.0  0.47802  0.49817  0.46644  1.0000
  C   C493      1.0  0.40946  0.97914  0.48683  1.0000
  H   H850      1.0  0.41233  0.98744  0.43463  1.0000
  C   C494      1.0  0.58176  0.49545  0.47227  1.0000
  N   N35       1.0  0.56501  0.54076  0.47048  1.0000
  H   H851      1.0  0.57498  0.50040  0.24324  1.0000
  H   H852      1.0  0.57498  0.49879  0.28630  1.0000
  C   C495      1.0  0.48731  0.98488  0.21865  1.0000
  H   H853      1.0  0.53001  0.97965  0.05538  1.0000
  C   C496      1.0  0.50477  0.97094  0.99048  1.0000
  H   H854      1.0  0.65964  0.53918  0.09606  1.0000
  H   H855      1.0  0.50875  0.95120  0.99049  1.0000
  S   S146      1.0  0.56758  0.97016  0.85467  1.0000
  H   H856      1.0  0.54027  0.51306  0.81910  1.0000
  C   C497      1.0  0.50307  0.98817  0.77290  1.0000
  S   S147      1.0  0.64457  0.96039  0.84580  1.0000
  C   C498      1.0  0.43647  0.94009  0.52819  1.0000
  S   S148      1.0  0.53959  0.97304  0.94190  1.0000
  C   C499      1.0  0.33279  0.54555  0.89061  1.0000
  H   H857      1.0  0.51526  0.54173  0.84163  1.0000
  Fe  Fe73      1.0  0.40073  0.95951  0.60401  1.0000
  S   S149      1.0  0.38735  0.92028  0.59151  1.0000
  S   S150      1.0  0.44204  0.96626  0.60815  1.0000
  H   H858      1.0  0.38123  0.67073  0.77574  1.0000
  Fe  Fe74      1.0  0.40420  0.52329  0.83029  1.0000
  S   S151      1.0  0.38492  0.54851  0.79332  1.0000
  S   S152      1.0  0.39739  0.51545  0.88266  1.0000
  S   S153      1.0  0.45943  0.52425  0.93218  1.0000
  S   S154      1.0  0.44579  0.52132  0.83670  1.0000
  Fe  Fe75      1.0  0.59312  0.52877  0.59065  1.0000
  H   H859      1.0  0.36836  0.87302  0.57110  1.0000
  S   S155      1.0  0.60430  0.56637  0.56940  1.0000
  C   C500      1.0  0.50923  0.53605  0.86602  1.0000
  C   C501      1.0  0.35575  0.88712  0.56208  1.0000
  H   H860      1.0  0.57622  0.54204  0.52080  1.0000
  S   S156      1.0  0.55188  0.52181  0.59441  1.0000
  C   C502      1.0  0.63418  0.57616  0.55637  1.0000
  H   H861      1.0  0.58324  0.97663  0.78484  1.0000
  C   C503      1.0  0.50397  0.50055  0.51507  1.0000
  Fe  Fe76      1.0  0.43324  0.98783  0.65350  1.0000
  C   C504      1.0  0.63661  0.59951  0.54142  1.0000
  H   H862      1.0  0.62029  0.61103  0.53791  1.0000
  H   H863      1.0  0.41248  0.68980  0.70775  1.0000
  H   H864      1.0  0.50669  0.98048  0.79653  1.0000
  H   H865      1.0  0.50960  0.51044  0.53652  1.0000
  H   H866      1.0  0.34698  0.65059  0.74918  1.0000
  H   H867      1.0  0.52147  0.55322  0.51955  1.0000
  C   C505      1.0  0.50283  0.51438  0.73507  1.0000
  C   C506      1.0  0.34459  0.67100  0.75233  1.0000
  H   H868      1.0  0.47636  0.51411  0.77422  1.0000
  H   H869      1.0  0.50257  0.53443  0.73297  1.0000
  H   H870      1.0  0.35690  0.72048  0.74234  1.0000
  C   C507      1.0  0.63518  0.91376  0.81857  1.0000
  C   C508      1.0  0.64246  0.89202  0.80188  1.0000
  H   H871      1.0  0.61629  0.91585  0.82693  1.0000
  H   H872      1.0  0.62890  0.87772  0.79703  1.0000
  C   C509      1.0  0.40264  0.51710  0.97869  1.0000
  H   H873      1.0  0.56504  0.89817  0.72727  1.0000
  H   H874      1.0  0.62692  0.98470  0.78024  1.0000
  C   C510      1.0  0.39458  0.69732  0.71695  1.0000
  H   H875      1.0  0.44982  0.92989  0.51270  1.0000
  S   S157      1.0  0.45020  0.97974  0.70323  1.0000
  H   H876      1.0  0.65549  0.81169  0.88858  1.0000
  H   H877      1.0  0.52123  0.54476  0.88460  1.0000
  Fe  Fe77      1.0  0.43870  0.50925  0.88801  1.0000
  H   H878      1.0  0.54622  0.56629  0.54326  1.0000
  H   H879      1.0  0.47001  0.96639  0.76494  1.0000
  C   C511      1.0  0.36053  0.91232  0.56872  1.0000
  C   C512      1.0  0.59489  0.92490  0.73896  1.0000
  C   C513      1.0  0.33479  0.51131  0.83009  1.0000
  H   H880      1.0  0.33987  0.61677  0.84839  1.0000
  C   C514      1.0  0.36217  0.57244  0.79703  1.0000
  C   C515      1.0  0.35920  0.58626  0.82536  1.0000
  H   H881      1.0  0.58923  0.58135  0.50315  1.0000
  H   H882      1.0  0.37084  0.58232  0.84602  1.0000
  H   H883      1.0  0.54604  0.95408  0.77835  1.0000
  H   H884      1.0  0.38287  0.51906  0.98577  1.0000
  C   C516      1.0  0.65251  0.93242  0.82505  1.0000
  C   C517      1.0  0.46126  0.50998  0.66157  1.0000
  C   C518      1.0  0.34712  0.57819  0.77023  1.0000
  H   H885      1.0  0.50228  0.52367  0.62721  1.0000
  C   C519      1.0  0.51022  0.97391  0.50008  1.0000
  H   H886      1.0  0.36599  0.95763  0.49404  1.0000
  C   C520      1.0  0.65998  0.60811  0.53094  1.0000
  Fe  Fe78      1.0  0.56206  0.99134  0.90162  1.0000
  H   H887      1.0  0.40408  0.51324  0.95258  1.0000
  H   H888      1.0  0.54620  0.97144  0.68417  1.0000
  C   C521      1.0  0.48229  0.98020  0.75489  1.0000
  C   C522      1.0  0.47715  0.99003  0.72415  1.0000
  H   H889      1.0  0.39794  0.98678  0.50681  1.0000
  H   H890      1.0  0.35564  0.66836  0.80235  1.0000
  H   H891      1.0  0.34357  0.74785  0.70205  1.0000
  C   C523      1.0  0.48448  0.52152  0.61372  1.0000
  C   C524      1.0  0.58196  0.90623  0.71645  1.0000
  H   H892      1.0  0.34794  0.64011  0.68380  1.0000
  H   H893      1.0  0.58727  0.96395  0.70469  1.0000
  H   H894      1.0  0.32992  0.68424  0.67393  1.0000
  C   C525      1.0  0.48788  0.50289  0.75852  1.0000
  H   H895      1.0  0.55121  0.52257  0.51322  1.0000
  S   S158      1.0  0.60127  0.51342  0.64007  1.0000
  H   H896      1.0  0.41149  0.53546  0.98287  1.0000
  C   C526      1.0  0.59452  0.96116  0.77447  1.0000
  S   S159      1.0  0.53508  0.51602  0.68387  1.0000
  H   H897      1.0  0.57747  0.91475  0.69288  1.0000
  H   H898      1.0  0.53221  0.51213  0.92583  1.0000
  H   H899      1.0  0.47325  0.55662  0.63679  1.0000
  H   H900      1.0  0.65679  0.78195  0.79943  1.0000
  H   H901      1.0  0.42872  0.98326  0.49424  1.0000
  H   H902      1.0  0.64589  0.80775  0.82223  1.0000
  H   H903      1.0  0.39730  0.94670  0.53357  1.0000
  H   H904      1.0  0.60255  0.91430  0.75978  1.0000
  C   C527      1.0  0.51721  0.98642  0.96852  1.0000
  H   H905      1.0  0.44003  0.50024  0.70427  1.0000
  H   H906      1.0  0.37287  0.68019  0.68004  1.0000
  C   C528      1.0  0.37343  0.67958  0.70688  1.0000
  H   H907      1.0  0.36227  0.69800  0.78575  1.0000
  H   H908      1.0  0.34439  0.49593  0.84311  1.0000
  C   C529      1.0  0.34134  0.72794  0.69555  1.0000
  C   C530      1.0  0.33501  0.88001  0.54338  1.0000
  C   C531      1.0  0.48561  0.51071  0.49460  1.0000
  H   H909      1.0  0.34850  0.52655  0.83145  1.0000
  H   H910      1.0  0.56205  0.52534  0.92582  1.0000
  H   H911      1.0  0.54287  0.92872  0.75143  1.0000
  H   H912      1.0  0.37967  0.66033  0.71282  1.0000
  C   C532      1.0  0.55146  0.50881  0.91759  1.0000
  C   C533      1.0  0.55622  0.93778  0.76807  1.0000
  H   H913      1.0  0.63284  0.95820  0.75583  1.0000
  Fe  Fe79      1.0  0.60805  0.98006  0.85966  1.0000
  C   C534      1.0  0.56027  0.91880  0.79549  1.0000
  H   H914      1.0  0.47726  0.52850  0.50046  1.0000
  C   C535      1.0  0.54755  0.95885  0.70530  1.0000
  H   H915      1.0  0.55813  0.52459  0.87000  1.0000
  C   C536      1.0  0.50828  0.50752  0.86961  1.0000
  H   H916      1.0  0.53142  0.96334  0.72090  1.0000
  C   C537      1.0  0.54062  0.56069  0.51848  1.0000
  H   H917      1.0  0.48775  0.97405  0.54335  1.0000
  H   H918      1.0  0.64138  0.84935  0.87039  1.0000
  H   H919      1.0  0.48219  0.55947  0.59556  1.0000
  H   H920      1.0  0.54196  0.91445  0.80637  1.0000
  H   H921      1.0  0.56814  0.90099  0.78655  1.0000
  H   H922      1.0  0.57198  0.92602  0.81526  1.0000
  H   H923      1.0  0.60036  0.94966  0.79528  1.0000
  S   S160      1.0  0.39249  0.97821  0.65118  1.0000
  C   C538      1.0  0.55902  0.54077  0.50597  1.0000
  H   H924      1.0  0.39221  0.71602  0.70617  1.0000
  N   N36       1.0  0.57922  0.94641  0.75067  1.0000
  Fe  Fe80      1.0  0.56037  0.50372  0.64228  1.0000
  C   C539      1.0  0.61867  0.97267  0.76127  1.0000
  C   C540      1.0  0.57232  0.96365  0.72317  1.0000
  H   H925      1.0  0.54039  0.57814  0.50460  1.0000
  N   N37       1.0  0.34800  0.68459  0.72091  1.0000
  H   H926      1.0  0.61137  0.93160  0.72549  1.0000
  H   H927      1.0  0.50077  0.50349  0.89386  1.0000
  H   H928      1.0  0.57064  0.98327  0.73179  1.0000
  C   C541      1.0  0.40985  0.93889  0.51475  1.0000
  H   H929      1.0  0.34930  0.56763  0.74817  1.0000
  C   C542      1.0  0.48159  0.50962  0.95813  1.0000
  H   H930      1.0  0.65392  0.54352  0.57221  1.0000
  C   C543      1.0  0.65544  0.56149  0.56075  1.0000
  H   H931      1.0  0.49009  0.51692  0.58874  1.0000
  H   H932      1.0  0.54559  0.93960  0.69637  1.0000
  H   H933      1.0  0.45234  0.54668  0.60517  1.0000
  H   H934      1.0  0.52098  0.95782  0.50737  1.0000
  H   H935      1.0  0.35079  0.54565  0.87780  1.0000
  H   H936      1.0  0.44265  0.95938  0.53269  1.0000
  H   H937      1.0  0.33597  0.52070  0.77865  1.0000
  H   H938      1.0  0.49030  0.54382  0.86985  1.0000
  H   H939      1.0  0.44912  0.51744  0.56435  1.0000
  C   C544      1.0  0.34428  0.93039  0.55654  1.0000
  C   C545      1.0  0.47207  0.54745  0.61281  1.0000
  H   H940      1.0  0.34767  0.94984  0.56149  1.0000
  C   C546      1.0  0.49132  0.98305  0.52055  1.0000
  C   C547      1.0  0.34166  0.60585  0.82658  1.0000
  C   C548      1.0  0.36218  0.67786  0.78019  1.0000
  H   H941      1.0  0.35581  0.72298  0.67768  1.0000
  H   H942      1.0  0.39659  0.69937  0.74331  1.0000
  H   H943      1.0  0.43683  0.93051  0.55188  1.0000
  H   H944      1.0  0.59494  0.89052  0.71157  1.0000
  C   C549      1.0  0.32932  0.59753  0.77161  1.0000
  C   C550      1.0  0.34282  0.71189  0.72631  1.0000
  C   C551      1.0  0.49209  0.52347  0.98350  1.0000
  H   H945      1.0  0.48666  0.54271  0.98679  1.0000
  C   C552      1.0  0.32851  0.67499  0.69783  1.0000
  N   N38       1.0  0.46911  0.50116  0.62848  1.0000
  H   H946      1.0  0.33199  0.86062  0.53774  1.0000
  C   C553      1.0  0.32919  0.64680  0.69071  1.0000
  H   H947      1.0  0.57123  0.49527  0.87670  1.0000
  C   C554      1.0  0.55382  0.50610  0.88057  1.0000
  H   H948      1.0  0.44812  0.52597  0.65978  1.0000
  H   H949      1.0  0.33710  0.54514  0.91680  1.0000
  H   H950      1.0  0.40565  0.91871  0.51333  1.0000
  H   H951      1.0  0.49359  0.50086  0.85284  1.0000
  H   H952      1.0  0.43015  0.50707  0.61619  1.0000
  H   H953      1.0  0.61537  0.98456  0.73991  1.0000
  C   C555      1.0  0.33326  0.50414  0.79415  1.0000
  C   C556      1.0  0.51778  0.50023  0.71405  1.0000
  H   H954      1.0  0.36825  0.91153  0.49544  1.0000
  H   H955      1.0  0.47755  0.51710  0.67532  1.0000
  C   C557      1.0  0.44615  0.49508  0.60894  1.0000
  C   C558      1.0  0.44800  0.49772  0.57189  1.0000
  Fe  Fe81      1.0  0.76361  0.35461  0.25028  1.0000
  S   S161      1.0  0.72671  0.34942  0.27507  1.0000
  S   S162      1.0  0.78547  0.39090  0.25687  1.0000
  Fe  Fe82      1.0  0.75461  0.30928  0.20572  1.0000
  S   S163      1.0  0.71742  0.30154  0.22791  1.0000
  S   S164      1.0  0.77169  0.28992  0.16142  1.0000
  Fe  Fe83      1.0  0.71067  0.34307  0.22556  1.0000
  S   S165      1.0  0.67243  0.35733  0.20825  1.0000
  Fe  Fe84      1.0  0.73644  0.30837  0.27582  1.0000
  S   S166      1.0  0.72432  0.28535  0.32003  1.0000
  S   S167      1.0  0.74673  0.35031  0.20067  1.0000
  S   S168      1.0  0.77443  0.31395  0.25369  1.0000
  C   C559      1.0  0.67833  0.48459  0.06507  1.0000
  S   S169      1.0  0.75358  0.14035  0.44862  1.0000
  S   S170      1.0  0.67954  0.13180  0.45228  1.0000
  Fe  Fe85      1.0  0.74439  0.18389  0.02522  1.0000
  H   H956      1.0  0.66226  0.99447  0.33535  1.0000
  S   S171      1.0  0.73061  0.20215  0.07204  1.0000
  Fe  Fe86      1.0  0.75856  0.18153  0.45584  1.0000
  S   S172      1.0  0.77463  0.20637  0.41620  1.0000
  S   S173      1.0  0.96655  0.47551  0.42743  1.0000
  S   S174      1.0  0.72090  0.18658  0.47743  1.0000
  H   H957      1.0  0.92764  0.03802  0.44925  1.0000
  S   S175      1.0  0.74986  0.14231  0.02724  1.0000
  S   S176      1.0  0.94090  0.02633  0.11221  1.0000
  C   C560      1.0  0.68032  0.13078  0.35681  1.0000
  Fe  Fe87      1.0  0.89889  0.02871  0.11097  1.0000
  S   S177      1.0  0.87138  0.06134  0.11309  1.0000
  H   H958      1.0  0.70092  0.39965  0.18330  1.0000
  S   S178      1.0  0.95392  0.00942  0.20513  1.0000
  Fe  Fe88      1.0  0.89958  0.46255  0.34433  1.0000
  S   S179      1.0  0.88162  0.42435  0.33708  1.0000
  C   C561      1.0  0.78742  0.99966  0.07127  1.0000
  H   H959      1.0  0.69614  0.20157  0.33156  1.0000
  Fe  Fe89      1.0  0.71678  0.14495  0.47322  1.0000
  S   S180      1.0  0.94117  0.46719  0.34274  1.0000
  H   H960      1.0  0.94383  0.02482  0.48242  1.0000
  H   H961      1.0  0.70555  0.08381  0.44585  1.0000
  H   H962      1.0  0.73412  0.28093  0.44247  1.0000
  C   C562      1.0  0.95152  0.48745  0.13494  1.0000
  H   H963      1.0  0.73495  0.14308  0.32017  1.0000
  C   C563      1.0  0.67065  0.10219  0.43688  1.0000
  H   H964      1.0  0.72575  0.18291  0.39418  1.0000
  C   C564      1.0  0.72225  0.18868  0.29634  1.0000
  C   C565      1.0  0.82404  0.01279  0.13380  1.0000
  H   H965      1.0  0.83324  0.48696  0.30935  1.0000
  H   H966      1.0  0.70472  0.35674  0.12636  1.0000
  C   C566      1.0  0.83407  0.10821  0.03357  1.0000
  C   C567      1.0  0.82420  0.10746  0.06468  1.0000
  C   C568      1.0  0.83615  0.09337  0.08883  1.0000
  C   C569      1.0  0.85736  0.07891  0.08178  1.0000
  C   C570      1.0  0.86665  0.07889  0.05038  1.0000
  C   C571      1.0  0.85528  0.09378  0.02657  1.0000
  H   H967      1.0  0.80764  0.11803  0.07024  1.0000
  H   H968      1.0  0.82879  0.09347  0.11306  1.0000
  H   H969      1.0  0.88299  0.06794  0.04464  1.0000
  H   H970      1.0  0.71076  0.99481  0.44015  1.0000
  C   C572      1.0  0.81278  0.39927  0.27866  1.0000
  C   C573      1.0  0.82251  0.42332  0.27460  1.0000
  C   C574      1.0  0.84377  0.43114  0.29179  1.0000
  C   C575      1.0  0.85547  0.41507  0.31357  1.0000
  C   C576      1.0  0.84585  0.39097  0.31751  1.0000
  C   C577      1.0  0.82464  0.38309  0.30020  1.0000
  H   H971      1.0  0.81361  0.43594  0.25788  1.0000
  H   H972      1.0  0.85124  0.44950  0.28796  1.0000
  H   H973      1.0  0.85480  0.37833  0.33417  1.0000
  H   H974      1.0  0.81744  0.36455  0.30358  1.0000
  H   H975      1.0  0.96886  0.47127  0.07812  1.0000
  C   C578      1.0  0.83056  0.47609  0.35965  1.0000
  H   H976      1.0  0.69206  0.00029  0.38756  1.0000
  C   C579      1.0  0.73895  0.26365  0.34660  1.0000
  C   C580      1.0  0.76360  0.25581  0.34279  1.0000
  C   C581      1.0  0.77416  0.23836  0.36433  1.0000
  C   C582      1.0  0.76027  0.22840  0.38989  1.0000
  C   C583      1.0  0.73569  0.23640  0.39393  1.0000
  C   C584      1.0  0.72512  0.25383  0.37238  1.0000
  H   H977      1.0  0.77455  0.26319  0.32322  1.0000
  H   H978      1.0  0.79325  0.23248  0.36104  1.0000
  H   H979      1.0  0.72478  0.22912  0.41354  1.0000
  H   H980      1.0  0.70606  0.25980  0.37565  1.0000
  C   C585      1.0  0.75982  0.26561  0.13679  1.0000
  C   C586      1.0  0.74027  0.25048  0.14676  1.0000
  C   C587      1.0  0.73172  0.23114  0.12663  1.0000
  C   C588      1.0  0.74240  0.22677  0.09620  1.0000
  C   C589      1.0  0.76184  0.24203  0.08607  1.0000
  C   C590      1.0  0.77058  0.26121  0.10637  1.0000
  H   H981      1.0  0.73197  0.25346  0.17017  1.0000
  H   H982      1.0  0.71666  0.21947  0.13469  1.0000
  H   H983      1.0  0.77010  0.23905  0.06263  1.0000
  H   H984      1.0  0.78569  0.27285  0.09840  1.0000
  C   C591      1.0  0.67900  0.05876  0.42378  1.0000
  C   C592      1.0  0.68691  0.08181  0.43641  1.0000
  H   H985      1.0  0.89922  0.00173  0.25735  1.0000
  H   H986      1.0  0.69176  0.04316  0.42367  1.0000
  H   H987      1.0  0.94699  0.46812  0.12737  1.0000
  H   H988      1.0  0.81637  0.42606  0.35766  1.0000
  H   H989      1.0  0.70944  0.17694  0.28204  1.0000
  C   C593      1.0  0.95223  0.48806  0.17219  1.0000
  C   C594      1.0  0.71124  0.34317  0.10783  1.0000
  C   C595      1.0  0.83989  0.43740  0.41245  1.0000
  H   H990      1.0  0.77614  0.25809  0.44136  1.0000
  C   C596      1.0  0.72543  0.48443  0.12290  1.0000
  C   C597      1.0  0.83281  0.00862  0.06477  1.0000
  H   H991      1.0  0.68692  0.20735  0.38459  1.0000
  H   H992      1.0  0.74153  0.18146  0.29430  1.0000
  H   H993      1.0  0.93409  0.48163  0.18167  1.0000
  H   H994      1.0  0.71129  0.30915  0.06309  1.0000
  C   C598      1.0  0.68158  0.40228  0.17687  1.0000
  H   H995      1.0  0.71746  0.30196  0.14949  1.0000
  H   H996      1.0  0.85069  0.43354  0.43475  1.0000
  H   H997      1.0  0.85349  0.43708  0.39256  1.0000
  H   H998      1.0  0.82636  0.42206  0.40988  1.0000
  H   H999      1.0  0.68915  0.27429  0.16620  1.0000
  N   N39       1.0  0.81689  0.18693  0.10190  1.0000
  C   C599      1.0  0.79473  0.17425  0.08678  1.0000
  C   C600      1.0  0.82817  0.20327  0.07632  1.0000
  C   C601      1.0  0.80757  0.20237  0.13000  1.0000
  C   C602      1.0  0.83468  0.16704  0.11324  1.0000
  C   C603      1.0  0.77831  0.15890  0.10979  1.0000
  C   C604      1.0  0.84024  0.18954  0.04757  1.0000
  C   C605      1.0  0.82303  0.22516  0.14019  1.0000
  C   C606      1.0  0.85973  0.17585  0.12710  1.0000
  H   H1000     1.0  0.78231  0.18819  0.07507  1.0000
  H   H1001     1.0  0.80049  0.16136  0.06719  1.0000
  H   H1002     1.0  0.84289  0.21545  0.08613  1.0000
  H   H1003     1.0  0.81386  0.21633  0.06654  1.0000
  H   H1004     1.0  0.78871  0.21000  0.12485  1.0000
  H   H1005     1.0  0.80526  0.19062  0.15183  1.0000
  H   H1006     1.0  0.82614  0.15576  0.13264  1.0000
  H   H1007     1.0  0.83851  0.15308  0.09399  1.0000
  H   H1008     1.0  0.78841  0.14277  0.12008  1.0000
  H   H1009     1.0  0.77008  0.17040  0.12928  1.0000
  H   H1010     1.0  0.76239  0.15131  0.09591  1.0000
  H   H1011     1.0  0.85634  0.17797  0.05514  1.0000
  H   H1012     1.0  0.82695  0.17786  0.03406  1.0000
  H   H1013     1.0  0.84734  0.20348  0.03023  1.0000
  H   H1014     1.0  0.81508  0.23309  0.16272  1.0000
  H   H1015     1.0  0.82178  0.24016  0.12190  1.0000
  H   H1016     1.0  0.84271  0.22057  0.14511  1.0000
  H   H1017     1.0  0.85813  0.18007  0.15323  1.0000
  H   H1018     1.0  0.86750  0.19206  0.11443  1.0000
  H   H1019     1.0  0.87380  0.16084  0.12378  1.0000
  C   C607      1.0  0.77912  0.05646  0.06255  1.0000
  C   C608      1.0  0.98419  0.48913  0.45931  1.0000
  H   H1020     1.0  0.78203  0.06616  0.08587  1.0000
  C   C609      1.0  0.92602  0.03389  0.47548  1.0000
  C   C610      1.0  0.80969  0.24034  0.48367  1.0000
  C   C611      1.0  0.69576  0.27564  0.08223  1.0000
  S   S181      1.0  0.89511  0.00643  0.15627  1.0000
  H   H1021     1.0  0.77656  0.07125  0.04412  1.0000
  C   C612      1.0  0.81957  0.48847  0.32925  1.0000
  H   H1022     1.0  0.67816  0.48089  0.03873  1.0000
  H   H1023     1.0  0.76061  0.18161  0.35065  1.0000
  C   C613      1.0  0.67081  0.32445  0.09938  1.0000
  C   C614      1.0  0.80907  0.02826  0.10913  1.0000
  S   S182      1.0  0.82161  0.12776  0.00312  1.0000
  H   H1024     1.0  0.83211  0.01344  0.01190  1.0000
  H   H1025     1.0  0.72721  0.20384  0.34391  1.0000
  H   H1026     1.0  0.91124  0.99741  0.46395  1.0000
  Fe  Fe90      1.0  0.93779  0.48828  0.38968  1.0000
  H   H1027     1.0  0.69469  0.26473  0.10471  1.0000
  H   H1028     1.0  0.84649  0.48767  0.36756  1.0000
  H   H1029     1.0  0.71853  0.24599  0.46763  1.0000
  H   H1030     1.0  0.84714  0.02341  0.06736  1.0000
  H   H1031     1.0  0.81426  0.46049  0.43709  1.0000
  H   H1032     1.0  0.98791  0.02124  0.04426  1.0000
  H   H1033     1.0  0.66850  0.17936  0.38836  1.0000
  H   H1034     1.0  0.98127  0.08312  0.48348  1.0000
  H   H1035     1.0  0.96661  0.47544  0.18232  1.0000
  H   H1036     1.0  0.72464  0.46467  0.13063  1.0000
  H   H1037     1.0  0.67074  0.33158  0.07417  1.0000
  C   C615      1.0  0.73968  0.34133  0.11214  1.0000
  C   C616      1.0  0.70904  0.30064  0.08737  1.0000
  H   H1038     1.0  0.82186  0.02129  0.15806  1.0000
  H   H1039     1.0  0.74492  0.33119  0.13428  1.0000
  H   H1040     1.0  0.74875  0.33243  0.09104  1.0000
  H   H1041     1.0  0.74748  0.36035  0.11435  1.0000
  C   C617      1.0  0.75920  0.16139  0.35479  1.0000
  C   C618      1.0  0.75234  0.29006  0.44034  1.0000
  H   H1042     1.0  0.67718  0.27775  0.07102  1.0000
  C   C619      1.0  0.68623  0.18840  0.39501  1.0000
  H   H1043     1.0  0.76163  0.04570  0.06320  1.0000
  N   N40       1.0  0.71146  0.16697  0.34999  1.0000
  H   H1044     1.0  0.66794  0.29867  0.17564  1.0000
  H   H1045     1.0  0.75135  0.30940  0.44960  1.0000
  H   H1046     1.0  0.81782  0.04696  0.10967  1.0000
  H   H1047     1.0  0.75617  0.29151  0.41408  1.0000
  C   C620      1.0  0.79705  0.43294  0.35676  1.0000
  N   N41       1.0  0.81272  0.47243  0.38719  1.0000
  H   H1048     1.0  0.70789  0.35228  0.08410  1.0000
  H   H1049     1.0  0.81787  0.05295  0.05098  1.0000
  H   H1050     1.0  0.69187  0.14711  0.31230  1.0000
  C   C621      1.0  0.82680  0.46275  0.41610  1.0000
  H   H1051     1.0  0.72809  0.29565  0.09573  1.0000
  H   H1052     1.0  0.97271  0.02372  0.26692  1.0000
  H   H1053     1.0  0.79008  0.03089  0.11921  1.0000
  H   H1054     1.0  0.68602  0.19061  0.42161  1.0000
  H   H1055     1.0  0.88734  0.01995  0.47097  1.0000
  C   C622      1.0  0.70913  0.17268  0.38540  1.0000
  C   C623      1.0  0.73377  0.15030  0.34529  1.0000
  H   H1056     1.0  0.84126  0.47641  0.42363  1.0000
  C   C624      1.0  0.79126  0.45568  0.37852  1.0000
  H   H1057     1.0  0.77676  0.46654  0.36538  1.0000
  C   C625      1.0  0.68168  0.99545  0.32675  1.0000
  H   H1058     1.0  0.86308  0.09426  0.00257  1.0000
  C   C626      1.0  0.98724  0.48125  0.25797  1.0000
  H   H1059     1.0  0.90116  0.10542  0.46763  1.0000
  C   C627      1.0  0.68877  0.15368  0.33742  1.0000
  H   H1060     1.0  0.68744  0.46840  0.07676  1.0000
  S   S183      1.0  0.89665  0.48077  0.39313  1.0000
  C   C628      1.0  0.69875  0.30999  0.14457  1.0000
  C   C629      1.0  0.67405  0.42352  0.15934  1.0000
  C   C630      1.0  0.77359  0.27513  0.45622  1.0000
  C   C631      1.0  0.67938  0.29068  0.15584  1.0000
  H   H1061     1.0  0.77403  0.15289  0.33972  1.0000
  H   H1062     1.0  0.72215  0.20750  0.28528  1.0000
  H   H1063     1.0  0.79183  0.43679  0.33133  1.0000
  H   H1064     1.0  0.78518  0.41711  0.36410  1.0000
  H   H1065     1.0  0.69496  0.11632  0.35892  1.0000
  H   H1066     1.0  0.75777  0.23182  0.47815  1.0000
  H   H1067     1.0  0.68781  0.43704  0.15243  1.0000
  H   H1068     1.0  0.78323  0.99579  0.04545  1.0000
  H   H1069     1.0  0.83929  0.45848  0.35176  1.0000
  H   H1070     1.0  0.76347  0.15775  0.38054  1.0000
  H   H1071     1.0  0.68543  0.48228  0.12971  1.0000
  H   H1072     1.0  0.79073  0.28635  0.45255  1.0000
  H   H1073     1.0  0.97721  0.46969  0.27475  1.0000
  C   C632      1.0  0.98029  0.99885  0.22727  1.0000
  H   H1074     1.0  0.69727  0.32595  0.16161  1.0000
  C   C633      1.0  0.80171  0.04023  0.05296  1.0000
  H   H1075     1.0  0.77004  0.48534  0.42442  1.0000
  Fe  Fe91      1.0  0.78444  0.14831  0.99868  1.0000
  C   C634      1.0  0.71403  0.19107  0.33177  1.0000
  H   H1076     1.0  0.98109  0.44656  0.14295  1.0000
  H   H1077     1.0  0.97410  0.05181  0.47366  1.0000
  H   H1078     1.0  0.70694  0.26416  0.06523  1.0000
  C   C635      1.0  0.90596  0.01365  0.47912  1.0000
  N   N42       1.0  0.69708  0.31901  0.11019  1.0000
  H   H1079     1.0  0.78217  0.44861  0.40072  1.0000
  S   S184      1.0  0.89470  0.99501  0.07959  1.0000
  H   H1080     1.0  0.66408  0.36237  0.11836  1.0000
  H   H1081     1.0  0.70899  0.15531  0.39992  1.0000
  N   N43       1.0  0.80779  0.01861  0.07492  1.0000
  H   H1082     1.0  0.73200  0.13318  0.36007  1.0000
  H   H1083     1.0  0.93947  0.08020  0.45827  1.0000
  H   H1084     1.0  0.89118  0.06259  0.46080  1.0000
  H   H1085     1.0  0.79796  0.03376  0.02793  1.0000
  H   H1086     1.0  0.73083  0.48388  0.09724  1.0000
  C   C636      1.0  0.98484  0.00919  0.25791  1.0000
  C   C637      1.0  0.83443  0.99850  0.03003  1.0000
  S   S185      1.0  0.78062  0.19008  0.99968  1.0000
  H   H1087     1.0  0.81575  0.24754  0.45993  1.0000
  H   H1088     1.0  0.69062  0.01240  0.33661  1.0000
  C   C638      1.0  0.89625  0.06745  0.48611  1.0000
  C   C639      1.0  0.66409  0.38459  0.18619  1.0000
  H   H1089     1.0  0.79827  0.22355  0.47993  1.0000
  H   H1090     1.0  0.76957  0.00733  0.08052  1.0000
  C   C640      1.0  0.99250  0.01190  0.02191  1.0000
  H   H1091     1.0  0.87176  0.09985  0.48610  1.0000
  Fe  Fe92      1.0  0.93659  0.00131  0.15558  1.0000
  H   H1092     1.0  0.66430  0.12204  0.34430  1.0000
  C   C641      1.0  0.94155  0.07579  0.48438  1.0000
  H   H1093     1.0  0.66665  0.28355  0.13720  1.0000
  H   H1094     1.0  0.67368  0.13600  0.38115  1.0000
  H   H1095     1.0  0.80220  0.47948  0.32107  1.0000
  H   H1096     1.0  0.67253  0.16655  0.33582  1.0000
  C   C642      1.0  0.97231  0.49135  0.08265  1.0000
  H   H1097     1.0  0.84421  0.01323  0.12844  1.0000
  H   H1098     1.0  0.68093  0.99776  0.30017  1.0000
  H   H1099     1.0  0.99307  0.45544  0.33422  1.0000
  C   C643      1.0  0.89201  0.09587  0.48807  1.0000
  C   C644      1.0  0.96877  0.06749  0.48969  1.0000
  Fe  Fe93      1.0  0.76698  0.35086  0.75057  1.0000
  S   S186      1.0  0.72878  0.34692  0.77138  1.0000
  S   S187      1.0  0.78533  0.38319  0.77753  1.0000
  Fe  Fe94      1.0  0.75550  0.30988  0.70076  1.0000
  S   S188      1.0  0.71666  0.30400  0.71898  1.0000
  S   S189      1.0  0.77347  0.28588  0.66127  1.0000
  Fe  Fe95      1.0  0.71429  0.34594  0.72077  1.0000
  S   S190      1.0  0.67841  0.36869  0.71566  1.0000
  Fe  Fe96      1.0  0.73431  0.30577  0.76830  1.0000
  S   S191      1.0  0.71980  0.28254  0.81009  1.0000
  S   S192      1.0  0.75218  0.35204  0.69952  1.0000
  S   S193      1.0  0.77340  0.30935  0.75043  1.0000
  C   C645      1.0  0.73669  0.46315  0.73647  1.0000
  S   S194      1.0  0.76471  0.14452  0.95114  1.0000
  C   C646      1.0  0.80885  0.04349  0.64887  1.0000
  Fe  Fe97      1.0  0.73961  0.17972  0.52528  1.0000
  H   H1100     1.0  0.76594  0.02241  0.56025  1.0000
  S   S195      1.0  0.72576  0.20479  0.56651  1.0000
  Fe  Fe98      1.0  0.75839  0.18601  0.95367  1.0000
  S   S196      1.0  0.77213  0.20944  0.91106  1.0000
  H   H1101     1.0  0.82514  0.03026  0.60507  1.0000
  H   H1102     1.0  0.66299  0.45571  0.72247  1.0000
  H   H1103     1.0  0.79476  0.25292  0.52864  1.0000
  S   S197      1.0  0.73232  0.13826  0.52299  1.0000
  S   S198      1.0  0.93601  0.01934  0.61252  1.0000
  C   C647      1.0  0.79607  0.26044  0.50372  1.0000
  Fe  Fe99      1.0  0.89393  0.02139  0.61002  1.0000
  S   S199      1.0  0.87199  0.05806  0.60854  1.0000
  H   H1104     1.0  0.71278  0.47875  0.77543  1.0000
  S   S200      1.0  0.79614  0.10174  0.50308  1.0000
  Fe  Fe100     1.0  0.90412  0.46103  0.84356  1.0000
  S   S201      1.0  0.89167  0.42343  0.82273  1.0000
  H   H1105     1.0  0.76816  0.43773  0.69332  1.0000
  H   H1106     1.0  0.68206  0.41816  0.61551  1.0000
  H   H1107     1.0  0.73181  0.47352  0.71410  1.0000
  S   S202      1.0  0.94561  0.46706  0.84567  1.0000
  H   H1108     1.0  0.76073  0.22881  0.68023  1.0000
  C   C648      1.0  0.92368  0.05121  0.52984  1.0000
  H   H1109     1.0  0.99313  0.48880  0.86942  1.0000
  H   H1110     1.0  0.68898  0.42013  0.73900  1.0000
  H   H1111     1.0  0.79778  0.02868  0.56719  1.0000
  C   C649      1.0  0.66798  0.39114  0.68732  1.0000
  C   C650      1.0  0.69708  0.43911  0.74084  1.0000
  H   H1112     1.0  0.72001  0.01218  0.80410  1.0000
  H   H1113     1.0  0.78437  0.22191  0.76407  1.0000
  C   C651      1.0  0.75495  0.24358  0.73915  1.0000
  H   H1114     1.0  0.98970  0.01789  0.54307  1.0000
  C   C652      1.0  0.81699  0.09005  0.53303  1.0000
  C   C653      1.0  0.82172  0.10263  0.56195  1.0000
  C   C654      1.0  0.83868  0.09265  0.58461  1.0000
  C   C655      1.0  0.85108  0.06995  0.57882  1.0000
  C   C656      1.0  0.84622  0.05727  0.55004  1.0000
  C   C657      1.0  0.82937  0.06729  0.52731  1.0000
  H   H1115     1.0  0.81243  0.12013  0.56676  1.0000
  H   H1116     1.0  0.84223  0.10264  0.60680  1.0000
  H   H1117     1.0  0.85555  0.03981  0.54520  1.0000
  H   H1118     1.0  0.75508  0.25913  0.72143  1.0000
  C   C658      1.0  0.81531  0.39437  0.78834  1.0000
  C   C659      1.0  0.81705  0.41742  0.80434  1.0000
  C   C660      1.0  0.84022  0.42679  0.81457  1.0000
  C   C661      1.0  0.86199  0.41306  0.80927  1.0000
  C   C662      1.0  0.86021  0.38993  0.79339  1.0000
  C   C663      1.0  0.83706  0.38069  0.78278  1.0000
  H   H1119     1.0  0.80037  0.42813  0.80897  1.0000
  H   H1120     1.0  0.84126  0.44454  0.82685  1.0000
  H   H1121     1.0  0.87693  0.37915  0.78916  1.0000
  H   H1122     1.0  0.83609  0.36296  0.77050  1.0000
  H   H1123     1.0  0.72273  0.43628  0.68463  1.0000
  H   H1124     1.0  0.72276  0.19224  0.79526  1.0000
  C   C664      1.0  0.73645  0.42189  0.76317  1.0000
  C   C665      1.0  0.73481  0.26217  0.83768  1.0000
  C   C666      1.0  0.76013  0.25644  0.83561  1.0000
  C   C667      1.0  0.77115  0.24016  0.85818  1.0000
  C   C668      1.0  0.75702  0.22937  0.88298  1.0000
  C   C669      1.0  0.73168  0.23498  0.88485  1.0000
  C   C670      1.0  0.72068  0.25128  0.86231  1.0000
  H   H1125     1.0  0.77122  0.26459  0.81679  1.0000
  H   H1126     1.0  0.79078  0.23589  0.85654  1.0000
  H   H1127     1.0  0.72058  0.22682  0.90373  1.0000
  H   H1128     1.0  0.70104  0.25549  0.86405  1.0000
  C   C671      1.0  0.75979  0.26415  0.63409  1.0000
  C   C672      1.0  0.73408  0.26078  0.63214  1.0000
  C   C673      1.0  0.72412  0.24257  0.61131  1.0000
  C   C674      1.0  0.73962  0.22764  0.59188  1.0000
  C   C675      1.0  0.76534  0.23116  0.59356  1.0000
  C   C676      1.0  0.77532  0.24925  0.61463  1.0000
  H   H1129     1.0  0.72185  0.27219  0.64669  1.0000
  H   H1130     1.0  0.70420  0.24006  0.61017  1.0000
  H   H1131     1.0  0.77755  0.21974  0.57899  1.0000
  H   H1132     1.0  0.79525  0.25160  0.61604  1.0000
  C   C677      1.0  0.73944  0.20011  0.74854  1.0000
  H   H1133     1.0  0.66686  0.06958  0.86374  1.0000
  S   S203      1.0  0.96662  0.46943  0.93469  1.0000
  N   N44       1.0  0.69014  0.03697  0.85560  1.0000
  C   C678      1.0  0.95434  0.07421  0.85565  1.0000
  H   H1134     1.0  0.67899  0.13026  0.92244  1.0000
  H   H1135     1.0  0.66936  0.01332  0.92979  1.0000
  C   C679      1.0  0.66562  0.06243  0.81259  1.0000
  H   H1136     1.0  0.72054  0.40690  0.70392  1.0000
  C   C680      1.0  0.77817  0.00725  0.60640  1.0000
  C   C681      1.0  0.77965  0.02706  0.57937  1.0000
  C   C682      1.0  0.99180  0.01720  0.88637  1.0000
  H   H1137     1.0  0.70715  0.02262  0.89935  1.0000
  H   H1138     1.0  0.69165  0.22436  0.75482  1.0000
  N   N45       1.0  0.79325  0.33000  0.86449  1.0000
  C   C683      1.0  0.81158  0.31098  0.85182  1.0000
  C   C684      1.0  0.78812  0.32369  0.89924  1.0000
  C   C685      1.0  0.80566  0.35509  0.86310  1.0000
  C   C686      1.0  0.77014  0.32952  0.84362  1.0000
  C   C687      1.0  0.82247  0.31624  0.81815  1.0000
  C   C688      1.0  0.77953  0.29675  0.90543  1.0000
  C   C689      1.0  0.79025  0.37758  0.87452  1.0000
  C   C690      1.0  0.74530  0.33691  0.85976  1.0000
  H   H1139     1.0  0.82761  0.30884  0.86871  1.0000
  H   H1140     1.0  0.80287  0.29228  0.85022  1.0000
  H   H1141     1.0  0.77395  0.33627  0.90988  1.0000
  H   H1142     1.0  0.80510  0.32662  0.91422  1.0000
  H   H1143     1.0  0.82335  0.35485  0.87718  1.0000
  H   H1144     1.0  0.81101  0.35979  0.83804  1.0000
  H   H1145     1.0  0.77245  0.34176  0.82225  1.0000
  H   H1146     1.0  0.76699  0.31068  0.83329  1.0000
  H   H1147     1.0  0.83775  0.33000  0.81969  1.0000
  H   H1148     1.0  0.83060  0.29887  0.80805  1.0000
  H   H1149     1.0  0.80824  0.32309  0.80100  1.0000
  H   H1150     1.0  0.77157  0.29537  0.93003  1.0000
  H   H1151     1.0  0.76509  0.29065  0.88813  1.0000
  H   H1152     1.0  0.79538  0.28346  0.90434  1.0000
  H   H1153     1.0  0.78280  0.37535  0.89917  1.0000
  H   H1154     1.0  0.77520  0.38195  0.85706  1.0000
  H   H1155     1.0  0.80248  0.39418  0.87498  1.0000
  H   H1156     1.0  0.73901  0.32267  0.87713  1.0000
  H   H1157     1.0  0.73057  0.33795  0.84104  1.0000
  H   H1158     1.0  0.74586  0.35519  0.87189  1.0000
  C   C691      1.0  0.71444  0.04973  0.84872  1.0000
  C   C692      1.0  0.75637  0.21286  0.69621  1.0000
  H   H1159     1.0  0.75728  0.46143  0.73508  1.0000
  H   H1160     1.0  0.80933  0.03872  0.67486  1.0000
  H   H1161     1.0  0.90439  0.08249  0.55338  1.0000
  H   H1162     1.0  0.95414  0.07522  0.82891  1.0000
  C   C693      1.0  0.74435  0.19267  0.67484  1.0000
  C   C694      1.0  0.78219  0.23884  0.74918  1.0000
  H   H1163     1.0  0.77471  0.20514  0.70373  1.0000
  H   H1164     1.0  0.74550  0.47644  0.78527  1.0000
  H   H1165     1.0  0.72493  0.22465  0.78864  1.0000
  H   H1166     1.0  0.70370  0.08877  0.85924  1.0000
  H   H1167     1.0  0.99086  0.03353  0.82058  1.0000
  H   H1168     1.0  0.70660  0.41434  0.79782  1.0000
  H   H1169     1.0  0.75217  0.20638  0.79848  1.0000
  H   H1170     1.0  0.73027  0.03739  0.85569  1.0000
  C   C695      1.0  0.69789  0.23943  0.73860  1.0000
  C   C696      1.0  0.68862  0.01237  0.83798  1.0000
  H   H1171     1.0  0.75891  0.40950  0.67440  1.0000
  H   H1172     1.0  0.72911  0.20048  0.65981  1.0000
  C   C697      1.0  0.73181  0.48016  0.76575  1.0000
  H   H1173     1.0  0.94104  0.04052  0.53489  1.0000
  H   H1174     1.0  0.90830  0.03875  0.53711  1.0000
  H   H1175     1.0  0.96621  0.08913  0.86544  1.0000
  H   H1176     1.0  0.77390  0.04565  0.58850  1.0000
  C   C698      1.0  0.97209  0.49021  0.57670  1.0000
  H   H1177     1.0  0.73725  0.41290  0.81409  1.0000
  H   H1178     1.0  0.75846  0.18543  0.65764  1.0000
  H   H1179     1.0  0.69175  0.02544  0.78743  1.0000
  H   H1180     1.0  0.75658  0.42613  0.76584  1.0000
  H   H1181     1.0  0.77698  0.28222  0.55937  1.0000
  C   C699      1.0  0.71833  0.07504  0.86568  1.0000
  H   H1182     1.0  0.98960  0.49118  0.56259  1.0000
  H   H1183     1.0  0.74535  0.25142  0.76043  1.0000
  H   H1184     1.0  0.73632  0.08297  0.85778  1.0000
  H   H1185     1.0  0.97267  0.06262  0.51515  1.0000
  Fe  Fe101     1.0  0.93986  0.48354  0.89517  1.0000
  H   H1186     1.0  0.92538  0.06610  0.57844  1.0000
  C   C700      1.0  0.92278  0.07321  0.55358  1.0000
  H   H1187     1.0  0.75698  0.18899  0.74856  1.0000
  C   C701      1.0  0.75935  0.28692  0.54686  1.0000
  H   H1188     1.0  0.69772  0.38591  0.65343  1.0000
  C   C702      1.0  0.71630  0.22967  0.71319  1.0000
  N   N46       1.0  0.80218  0.00021  0.62308  1.0000
  C   C703      1.0  0.67880  0.09785  0.95266  1.0000
  H   H1189     1.0  0.70639  0.21411  0.70119  1.0000
  H   H1190     1.0  0.68911  0.47574  0.71883  1.0000
  H   H1191     1.0  0.73751  0.17672  0.68908  1.0000
  H   H1192     1.0  0.74530  0.27240  0.55158  1.0000
  C   C704      1.0  0.75325  0.24691  0.49559  1.0000
  H   H1193     1.0  0.75236  0.30438  0.55808  1.0000
  H   H1194     1.0  0.72456  0.18711  0.74066  1.0000
  H   H1195     1.0  0.94560  0.47608  0.62334  1.0000
  H   H1196     1.0  0.78976  0.04901  0.64180  1.0000
  S   S204      1.0  0.72145  0.18225  0.97938  1.0000
  N   N47       1.0  0.72494  0.43779  0.73702  1.0000
  H   H1197     1.0  0.68805  0.04927  0.90544  1.0000
  H   H1198     1.0  0.73551  0.40180  0.75657  1.0000
  C   C705      1.0  0.72509  0.42342  0.79718  1.0000
  H   H1199     1.0  0.89847  0.10434  0.51082  1.0000
  C   C706      1.0  0.66808  0.05319  0.84753  1.0000
  N   N48       1.0  0.74155  0.22146  0.72513  1.0000
  C   C707      1.0  0.68091  0.39618  0.65893  1.0000
  H   H1200     1.0  0.67328  0.06362  0.97851  1.0000
  C   C708      1.0  0.98842  0.00928  0.71301  1.0000
  C   C709      1.0  0.73013  0.42521  0.70512  1.0000
  C   C710      1.0  0.66812  0.01510  0.90317  1.0000
  S   S205      1.0  0.77801  0.17668  0.50391  1.0000
  H   H1201     1.0  0.69152  0.44573  0.76506  1.0000
  Fe  Fe102     1.0  0.72947  0.14083  0.97972  1.0000
  C   C711      1.0  0.98868  0.06393  0.92765  1.0000
  H   H1202     1.0  0.98380  0.01931  0.69123  1.0000
  H   H1203     1.0  0.95100  0.04363  0.88921  1.0000
  H   H1204     1.0  0.98879  0.04649  0.94173  1.0000
  H   H1205     1.0  0.69857  0.99748  0.85162  1.0000
  H   H1206     1.0  0.98178  0.45165  0.63508  1.0000
  H   H1207     1.0  0.80890  0.27661  0.50535  1.0000
  C   C712      1.0  0.68316  0.45610  0.71683  1.0000
  H   H1208     1.0  0.71833  0.24446  0.69464  1.0000
  H   H1209     1.0  0.76730  0.40894  0.71592  1.0000
  H   H1210     1.0  0.71704  0.05317  0.82266  1.0000
  H   H1211     1.0  0.78892  0.25482  0.76368  1.0000
  Fe  Fe103     1.0  0.76984  0.13559  0.49870  1.0000
  C   C713      1.0  0.73460  0.20681  0.78435  1.0000
  H   H1212     1.0  0.79448  0.23761  0.72777  1.0000
  S   S206      1.0  0.70512  0.10599  0.97637  1.0000
  C   C714      1.0  0.96177  0.04793  0.86703  1.0000
  N   N49       1.0  0.98910  0.04275  0.87162  1.0000
  H   H1213     1.0  0.96942  0.07115  0.92546  1.0000
  S   S207      1.0  0.89891  0.47438  0.89461  1.0000
  H   H1214     1.0  0.68099  0.24650  0.72611  1.0000
  H   H1215     1.0  0.93539  0.07867  0.86462  1.0000
  C   C715      1.0  0.75778  0.42026  0.69725  1.0000
  H   H1216     1.0  0.83514  0.00309  0.56817  1.0000
  H   H1217     1.0  0.82091  0.06005  0.64586  1.0000
  C   C716      1.0  0.68953  0.03171  0.89135  1.0000
  C   C717      1.0  0.67002  0.11275  0.92747  1.0000
  C   C718      1.0  0.98652  0.48514  0.75857  1.0000
  C   C719      1.0  0.81926  0.02202  0.62811  1.0000
  C   C720      1.0  0.66676  0.07520  0.95893  1.0000
  H   H1218     1.0  0.97587  0.47286  0.77376  1.0000
  H   H1219     1.0  0.72365  0.44265  0.80643  1.0000
  H   H1220     1.0  0.96711  0.47015  0.57708  1.0000
  H   H1221     1.0  0.90483  0.00666  0.50413  1.0000
  H   H1222     1.0  0.75596  0.23782  0.51946  1.0000
  H   H1223     1.0  0.70526  0.25522  0.75271  1.0000
  H   H1224     1.0  0.93784  0.08678  0.54950  1.0000
  H   H1225     1.0  0.95383  0.03505  0.84874  1.0000
  H   H1226     1.0  0.76476  0.01486  0.62437  1.0000
  H   H1227     1.0  0.71924  0.27144  0.49572  1.0000
  H   H1228     1.0  0.82674  0.23438  0.49674  1.0000
  C   C721      1.0  0.69943  0.01107  0.80364  1.0000
  H   H1229     1.0  0.68497  0.44967  0.69159  1.0000
  H   H1230     1.0  0.66895  0.00617  0.83631  1.0000
  H   H1231     1.0  0.82586  0.05737  0.50507  1.0000
  C   C722      1.0  0.67197  0.41447  0.63748  1.0000
  H   H1232     1.0  0.71950  0.07328  0.89228  1.0000
  H   H1233     1.0  0.68347  0.06755  0.80148  1.0000
  C   C723      1.0  0.98514  0.48314  0.96558  1.0000
  H   H1234     1.0  0.95843  0.47371  0.67569  1.0000
  H   H1235     1.0  0.98078  0.01563  0.90889  1.0000
  H   H1236     1.0  0.78629  0.00380  0.67093  1.0000
  H   H1237     1.0  0.83700  0.01586  0.63957  1.0000
  H   H1238     1.0  0.88186  0.05850  0.50128  1.0000
  C   C724      1.0  0.76325  0.29116  0.51049  1.0000
  H   H1239     1.0  0.74592  0.29977  0.50134  1.0000
  H   H1240     1.0  0.71482  0.24106  0.51003  1.0000
  H   H1241     1.0  0.77742  0.30607  0.50781  1.0000
  H   H1242     1.0  0.93947  0.09386  0.49707  1.0000
  H   H1243     1.0  0.66905  0.99599  0.89313  1.0000
  N   N50       1.0  0.92186  0.05754  0.49449  1.0000
  H   H1244     1.0  0.94828  0.49207  0.53432  1.0000
  C   C725      1.0  0.72510  0.25203  0.49177  1.0000
  H   H1245     1.0  0.96405  0.99584  0.85824  1.0000
  C   C726      1.0  0.98397  0.99505  0.86493  1.0000
  C   C727      1.0  0.95683  0.49330  0.66746  1.0000
  S   S208      1.0  0.88878  0.99453  0.65121  1.0000
  C   C728      1.0  0.99360  0.01000  0.51962  1.0000
  N   N51       1.0  0.77080  0.26847  0.49136  1.0000
  H   H1246     1.0  0.85327  0.99047  0.02622  1.0000
  S   S209      1.0  0.76609  0.64205  0.01827  1.0000
  H   H1247     1.0  0.86333  0.67870  0.06601  1.0000
  Fe  Fe104     1.0  0.73952  0.68026  0.45503  1.0000
  H   H1248     1.0  0.87808  0.60621  0.04813  1.0000
  S   S210      1.0  0.72278  0.70278  0.41358  1.0000
  S   S211      1.0  0.77744  0.68838  0.47442  1.0000
  C   C729      1.0  0.82598  0.70077  0.40102  1.0000
  Fe  Fe105     1.0  0.75842  0.68343  0.02030  1.0000
  S   S212      1.0  0.77310  0.70322  0.06583  1.0000
  S   S213      1.0  0.74585  0.63869  0.45172  1.0000
  H   H1249     1.0  0.95518  0.50706  0.18182  1.0000
  Fe  Fe106     1.0  0.73150  0.85196  0.25068  1.0000
  S   S214      1.0  0.76743  0.84821  0.27844  1.0000
  S   S215      1.0  0.70721  0.88717  0.25570  1.0000
  Fe  Fe107     1.0  0.74506  0.80737  0.20648  1.0000
  S   S216      1.0  0.78157  0.80106  0.23164  1.0000
  S   S217      1.0  0.73059  0.78757  0.16097  1.0000
  Fe  Fe108     1.0  0.76021  0.80679  0.27795  1.0000
  S   S218      1.0  0.77271  0.78458  0.32268  1.0000
  Fe  Fe109     1.0  0.78604  0.84279  0.23044  1.0000
  S   S219      1.0  0.82451  0.85857  0.21838  1.0000
  S   S220      1.0  0.72295  0.81082  0.25285  1.0000
  S   S221      1.0  0.75085  0.84878  0.20256  1.0000
  H   H1250     1.0  0.97567  0.93572  0.24735  1.0000
  N   N52       1.0  0.75354  0.77207  0.48844  1.0000
  Fe  Fe110     1.0  0.89234  0.97262  0.12518  1.0000
  S   S222      1.0  0.85648  0.94998  0.12977  1.0000
  H   H1251     1.0  0.87838  0.94416  0.28870  1.0000
  S   S223      1.0  0.93376  0.96549  0.12716  1.0000
  H   H1252     1.0  0.82226  0.69240  0.03953  1.0000
  S   S224      1.0  0.93230  0.52556  0.36560  1.0000
  Fe  Fe111     1.0  0.89121  0.51669  0.36585  1.0000
  S   S225      1.0  0.85541  0.53962  0.37282  1.0000
  H   H1253     1.0  0.84693  0.67432  0.37383  1.0000
  S   S226      1.0  0.95546  0.51987  0.27616  1.0000
  H   H1254     1.0  0.69004  0.95730  0.31772  1.0000
  C   C730      1.0  0.69240  0.50899  0.07159  1.0000
  H   H1255     1.0  0.93274  0.49970  0.07331  1.0000
  H   H1256     1.0  0.73047  0.53129  0.10204  1.0000
  C   C731      1.0  0.66449  0.54031  0.14743  1.0000
  H   H1257     1.0  0.77680  0.51778  0.42717  1.0000
  S   S227      1.0  0.82134  0.63219  0.45958  1.0000
  C   C732      1.0  0.67000  0.61005  0.04598  1.0000
  H   H1258     1.0  0.72607  0.77121  0.42850  1.0000
  C   C733      1.0  0.83281  0.88532  0.19572  1.0000
  C   C734      1.0  0.81507  0.90044  0.18061  1.0000
  C   C735      1.0  0.82267  0.92034  0.16090  1.0000
  C   C736      1.0  0.84802  0.92565  0.15647  1.0000
  C   C737      1.0  0.86574  0.91072  0.17187  1.0000
  C   C738      1.0  0.85816  0.89062  0.19125  1.0000
  H   H1259     1.0  0.79552  0.89669  0.18391  1.0000
  H   H1260     1.0  0.80878  0.93170  0.14899  1.0000
  H   H1261     1.0  0.88525  0.91425  0.16805  1.0000
  H   H1262     1.0  0.87202  0.87878  0.20240  1.0000
  C   C739      1.0  0.83022  0.60569  0.43645  1.0000
  C   C740      1.0  0.81293  0.59134  0.41952  1.0000
  C   C741      1.0  0.82104  0.57122  0.40025  1.0000
  C   C742      1.0  0.84643  0.56487  0.39815  1.0000
  C   C743      1.0  0.86367  0.57906  0.41534  1.0000
  C   C744      1.0  0.85560  0.59946  0.43414  1.0000
  H   H1263     1.0  0.79337  0.59590  0.42101  1.0000
  H   H1264     1.0  0.80754  0.56047  0.38692  1.0000
  H   H1265     1.0  0.88324  0.57452  0.41388  1.0000
  H   H1266     1.0  0.81095  0.70149  0.41914  1.0000
  C   C745      1.0  0.76052  0.72634  0.09225  1.0000
  C   C746      1.0  0.73798  0.73852  0.08605  1.0000
  C   C747      1.0  0.72908  0.75699  0.10749  1.0000
  C   C748      1.0  0.74245  0.76349  0.13548  1.0000
  C   C749      1.0  0.76494  0.75121  0.14176  1.0000
  C   C750      1.0  0.77395  0.73290  0.12020  1.0000
  H   H1267     1.0  0.72737  0.73374  0.06477  1.0000
  H   H1268     1.0  0.71163  0.76627  0.10237  1.0000
  H   H1269     1.0  0.77521  0.75565  0.16340  1.0000
  H   H1270     1.0  0.79135  0.72360  0.12539  1.0000
  C   C751      1.0  0.73718  0.72510  0.38812  1.0000
  C   C752      1.0  0.72352  0.73541  0.36241  1.0000
  C   C753      1.0  0.73404  0.75348  0.34198  1.0000
  C   C754      1.0  0.75842  0.76151  0.34707  1.0000
  C   C755      1.0  0.77210  0.75114  0.37278  1.0000
  C   C756      1.0  0.76156  0.73314  0.39322  1.0000
  H   H1271     1.0  0.70461  0.72945  0.35825  1.0000
  H   H1272     1.0  0.72324  0.76126  0.32237  1.0000
  H   H1273     1.0  0.79093  0.75730  0.37702  1.0000
  H   H1274     1.0  0.77219  0.72571  0.41310  1.0000
  C   C757      1.0  0.70368  0.98338  0.39089  1.0000
  C   C758      1.0  0.80326  0.68443  0.33698  1.0000
  H   H1275     1.0  0.97744  0.92350  0.28709  1.0000
  H   H1276     1.0  0.81040  0.96783  0.08951  1.0000
  H   H1277     1.0  0.83681  0.66643  0.12518  1.0000
  C   C759      1.0  0.68018  0.89475  0.27842  1.0000
  C   C760      1.0  0.81290  0.64048  0.35135  1.0000
  H   H1278     1.0  0.78869  0.78792  0.47431  1.0000
  H   H1279     1.0  0.67869  0.93211  0.25983  1.0000
  H   H1280     1.0  0.86914  0.61045  0.44710  1.0000
  H   H1281     1.0  0.68356  0.52331  0.05590  1.0000
  N   N53       1.0  0.84181  0.64486  0.06111  1.0000
  C   C761      1.0  0.85456  0.66715  0.04686  1.0000
  C   C762      1.0  0.85975  0.63161  0.08319  1.0000
  C   C763      1.0  0.81925  0.65249  0.08032  1.0000
  C   C764      1.0  0.83358  0.62815  0.03395  1.0000
  C   C765      1.0  0.67996  0.59466  0.02198  1.0000
  H   H1282     1.0  0.93258  0.92616  0.29463  1.0000
  S   S228      1.0  0.95628  0.97697  0.03777  1.0000
  C   C766      1.0  0.82307  0.60263  0.04370  1.0000
  C   C767      1.0  0.97743  0.52391  0.12496  1.0000
  H   H1283     1.0  0.87009  0.66120  0.03092  1.0000
  C   C768      1.0  0.71283  0.94090  0.37225  1.0000
  C   C769      1.0  0.88289  0.62008  0.06690  1.0000
  H   H1284     1.0  0.67778  0.62831  0.04997  1.0000
  H   H1285     1.0  0.81116  0.63625  0.09297  1.0000
  H   H1286     1.0  0.81869  0.63735  0.01981  1.0000
  H   H1287     1.0  0.70450  0.72920  0.48581  1.0000
  H   H1288     1.0  0.89406  0.61015  0.08543  1.0000
  H   H1289     1.0  0.86696  0.64456  0.10190  1.0000
  H   H1290     1.0  0.95963  0.53404  0.12076  1.0000
  C   C770      1.0  0.93940  0.92621  0.26935  1.0000
  C   C771      1.0  0.97967  0.99039  0.01304  1.0000
  H   H1291     1.0  0.85023  0.61662  0.09681  1.0000
  H   H1292     1.0  0.83111  0.67481  0.00412  1.0000
  C   C772      1.0  0.71177  0.53804  0.10959  1.0000
  H   H1293     1.0  0.75478  0.78746  0.42073  1.0000
  H   H1294     1.0  0.83724  0.59061  0.05532  1.0000
  H   H1295     1.0  0.78334  0.97525  0.11337  1.0000
  H   H1296     1.0  0.80662  0.60441  0.05955  1.0000
  C   C773      1.0  0.78452  0.66523  0.38424  1.0000
  C   C774      1.0  0.76099  0.65582  0.36670  1.0000
  H   H1297     1.0  0.78757  0.65313  0.40570  1.0000
  H   H1298     1.0  0.77944  0.68379  0.39394  1.0000
  H   H1299     1.0  0.76343  0.63689  0.35654  1.0000
  H   H1300     1.0  0.74549  0.65484  0.38422  1.0000
  H   H1301     1.0  0.75467  0.66892  0.34774  1.0000
  C   C775      1.0  0.70789  0.91882  0.34936  1.0000
  C   C776      1.0  0.70652  0.56169  0.08969  1.0000
  H   H1302     1.0  0.98826  0.54009  0.22865  1.0000
  H   H1303     1.0  0.70745  0.55791  0.06344  1.0000
  H   H1304     1.0  0.67567  0.55752  0.14856  1.0000
  N   N54       1.0  0.80325  0.83247  0.11892  1.0000
  C   C777      1.0  0.82878  0.84355  0.12361  1.0000
  C   C778      1.0  0.79877  0.81537  0.14706  1.0000
  C   C779      1.0  0.78459  0.85351  0.12002  1.0000
  C   C780      1.0  0.80260  0.81921  0.08679  1.0000
  C   C781      1.0  0.83605  0.86474  0.10051  1.0000
  C   C782      1.0  0.81809  0.79438  0.15159  1.0000
  C   C783      1.0  0.75707  0.84660  0.11565  1.0000
  C   C784      1.0  0.78295  0.79851  0.08250  1.0000
  H   H1305     1.0  0.83093  0.85084  0.14853  1.0000
  H   H1306     1.0  0.84351  0.82909  0.12096  1.0000
  H   H1307     1.0  0.78034  0.80646  0.14597  1.0000
  H   H1308     1.0  0.79839  0.82624  0.16995  1.0000
  H   H1309     1.0  0.78625  0.86377  0.14330  1.0000
  H   H1310     1.0  0.78818  0.86729  0.10074  1.0000
  H   H1311     1.0  0.79992  0.83283  0.06691  1.0000
  H   H1312     1.0  0.82085  0.81000  0.08216  1.0000
  H   H1313     1.0  0.85623  0.86853  0.10325  1.0000
  H   H1314     1.0  0.83260  0.85992  0.07492  1.0000
  H   H1315     1.0  0.82638  0.88238  0.10682  1.0000
  H   H1316     1.0  0.83595  0.80173  0.16094  1.0000
  H   H1317     1.0  0.81125  0.78125  0.17012  1.0000
  H   H1318     1.0  0.82127  0.78366  0.12914  1.0000
  H   H1319     1.0  0.74548  0.86346  0.11982  1.0000
  H   H1320     1.0  0.75070  0.83261  0.13319  1.0000
  H   H1321     1.0  0.75314  0.84033  0.09069  1.0000
  H   H1322     1.0  0.77626  0.79852  0.05715  1.0000
  H   H1323     1.0  0.76625  0.80032  0.09768  1.0000
  H   H1324     1.0  0.79140  0.77984  0.08617  1.0000
  H   H1325     1.0  0.84340  0.70535  0.41412  1.0000
  H   H1326     1.0  0.84048  0.61529  0.33094  1.0000
  N   N55       1.0  0.92193  0.94075  0.24797  1.0000
  H   H1327     1.0  0.81684  0.59280  0.02151  1.0000
  H   H1328     1.0  0.97191  0.96708  0.46660  1.0000
  H   H1329     1.0  0.82934  0.69053  0.09606  1.0000
  H   H1330     1.0  0.93663  0.97705  0.25992  1.0000
  H   H1331     1.0  0.72099  0.57576  0.09504  1.0000
  H   H1332     1.0  0.74302  0.74031  0.45908  1.0000
  H   H1333     1.0  0.85134  0.63155  0.36553  1.0000
  H   H1334     1.0  0.83101  0.66119  0.40620  1.0000
  H   H1335     1.0  0.94617  0.92220  0.17301  1.0000
  H   H1336     1.0  0.81805  0.51099  0.40090  1.0000
  H   H1337     1.0  0.82224  0.70932  0.30425  1.0000
  C   C785      1.0  0.82556  0.69080  0.31537  1.0000
  C   C786      1.0  0.94004  0.91821  0.19800  1.0000
  H   H1338     1.0  0.84889  0.64725  0.32697  1.0000
  H   H1339     1.0  0.89996  0.90794  0.23807  1.0000
  H   H1340     1.0  0.71410  0.54363  0.13525  1.0000
  N   N56       1.0  0.80784  0.66640  0.36416  1.0000
  C   C787      1.0  0.82868  0.67460  0.38608  1.0000
  H   H1341     1.0  0.87996  0.97563  0.24855  1.0000
  H   H1342     1.0  0.89288  0.91422  0.29640  1.0000
  N   N57       1.0  0.69286  0.51765  0.10622  1.0000
  H   H1343     1.0  0.89509  0.63449  0.05644  1.0000
  H   H1344     1.0  0.92465  0.90472  0.19621  1.0000
  H   H1345     1.0  0.82309  0.71537  0.38256  1.0000
  C   C788      1.0  0.84006  0.63369  0.34321  1.0000
  H   H1346     1.0  0.84325  0.69288  0.32860  1.0000
  N   N58       1.0  0.97462  0.49648  0.11825  1.0000
  H   H1347     1.0  0.72227  0.79716  0.48115  1.0000
  H   H1348     1.0  0.95319  0.52591  0.06685  1.0000
  C   C789      1.0  0.66839  0.95583  0.37625  1.0000
  C   C790      1.0  0.82345  0.67254  0.10642  1.0000
  Fe  Fe112     1.0  0.93634  0.99076  0.08347  1.0000
  N   N59       1.0  0.69505  0.96259  0.36919  1.0000
  C   C791      1.0  0.73686  0.78822  0.43382  1.0000
  H   H1349     1.0  0.68811  0.91338  0.34898  1.0000
  H   H1350     1.0  0.80415  0.65929  0.06423  1.0000
  H   H1351     1.0  0.98365  0.53904  0.33102  1.0000
  H   H1352     1.0  0.93511  0.49882  0.12772  1.0000
  H   H1353     1.0  0.71883  0.90237  0.35738  1.0000
  H   H1354     1.0  0.90296  0.98607  0.21996  1.0000
  H   H1355     1.0  0.91798  0.95148  0.19788  1.0000
  C   C792      1.0  0.67018  0.91894  0.27602  1.0000
  H   H1356     1.0  0.68838  0.57035  0.09563  1.0000
  C   C793      1.0  0.98240  0.51434  0.46739  1.0000
  C   C794      1.0  0.98033  0.50617  0.25409  1.0000
  C   C795      1.0  0.78538  0.49895  0.42585  1.0000
  H   H1357     1.0  0.81642  0.50867  0.33307  1.0000
  Fe  Fe113     1.0  0.93382  0.50382  0.31883  1.0000
  H   H1358     1.0  0.95607  0.90941  0.21040  1.0000
  C   C796      1.0  0.66713  0.52662  0.11488  1.0000
  H   H1359     1.0  0.72619  0.80406  0.42349  1.0000
  H   H1360     1.0  0.84891  0.62483  0.01645  1.0000
  C   C797      1.0  0.69673  0.97173  0.33485  1.0000
  H   H1361     1.0  0.73226  0.94707  0.36773  1.0000
  C   C798      1.0  0.74024  0.74769  0.48386  1.0000
  H   H1362     1.0  0.96964  0.52624  0.45432  1.0000
  C   C799      1.0  0.95136  0.50546  0.06488  1.0000
  H   H1363     1.0  0.80161  0.63676  0.32934  1.0000
  H   H1364     1.0  0.67832  0.93519  0.42184  1.0000
  Fe  Fe114     1.0  0.78299  0.64678  0.47405  1.0000
  H   H1365     1.0  0.94009  0.90628  0.26206  1.0000
  H   H1366     1.0  0.80708  0.62617  0.36916  1.0000
  H   H1367     1.0  0.78893  0.67705  0.32019  1.0000
  H   H1368     1.0  0.79469  0.70213  0.34570  1.0000
  H   H1369     1.0  0.82783  0.67681  0.29586  1.0000
  H   H1370     1.0  0.71401  0.92294  0.32441  1.0000
  C   C800      1.0  0.88288  0.92569  0.27833  1.0000
  C   C801      1.0  0.93200  0.94285  0.21421  1.0000
  C   C802      1.0  0.89898  0.98308  0.24577  1.0000
  H   H1371     1.0  0.78092  0.95985  0.07492  1.0000
  H   H1372     1.0  0.95240  0.50082  0.03878  1.0000
  H   H1373     1.0  0.71338  0.93330  0.39697  1.0000
  C   C803      1.0  0.96635  0.93587  0.27110  1.0000
  H   H1374     1.0  0.94821  0.95555  0.21353  1.0000
  C   C804      1.0  0.79096  0.97450  0.08855  1.0000
  S   S229      1.0  0.70600  0.60342  0.99811  1.0000
  C   C805      1.0  0.74067  0.79273  0.47029  1.0000
  C   C806      1.0  0.66889  0.87786  0.29927  1.0000
  H   H1375     1.0  0.88483  0.93614  0.22817  1.0000
  H   H1376     1.0  0.77934  0.76228  0.45045  1.0000
  C   C807      1.0  0.89736  0.92744  0.24639  1.0000
  C   C808      1.0  0.91895  0.96655  0.26182  1.0000
  H   H1377     1.0  0.80548  0.67620  0.11876  1.0000
  H   H1378     1.0  0.75141  0.81028  0.47220  1.0000
  C   C809      1.0  0.66384  0.93639  0.40304  1.0000
  S   S230      1.0  0.72038  0.68002  0.99715  1.0000
  H   H1379     1.0  0.84942  0.70027  0.01754  1.0000
  C   C810      1.0  0.99340  0.52077  0.23178  1.0000
  H   H1380     1.0  0.86489  0.91627  0.27353  1.0000
  H   H1381     1.0  0.71643  0.97531  0.32808  1.0000
  H   H1382     1.0  0.79165  0.50595  0.37600  1.0000
  H   H1383     1.0  0.98194  0.52716  0.15083  1.0000
  H   H1384     1.0  0.70054  0.50382  0.15411  1.0000
  H   H1385     1.0  0.67628  0.85917  0.30131  1.0000
  H   H1386     1.0  0.91491  0.96588  0.28810  1.0000
  H   H1387     1.0  0.96739  0.95479  0.28168  1.0000
  C   C811      1.0  0.83810  0.68439  0.02599  1.0000
  S   S231      1.0  0.89236  0.49784  0.31711  1.0000
  H   H1388     1.0  0.66890  0.52810  0.16814  1.0000
  C   C812      1.0  0.70296  0.97841  0.42737  1.0000
  H   H1389     1.0  0.72299  0.98894  0.38459  1.0000
  H   H1390     1.0  0.71435  0.96214  0.43456  1.0000
  C   C813      1.0  0.77963  0.76938  0.47566  1.0000
  H   H1391     1.0  0.74026  0.49401  0.13676  1.0000
  H   H1392     1.0  0.98819  0.49907  0.36951  1.0000
  C   C814      1.0  0.98370  0.98143  0.47655  1.0000
  Fe  Fe115     1.0  0.72924  0.63893  0.99273  1.0000
  H   H1393     1.0  0.80855  0.74078  0.47809  1.0000
  H   H1394     1.0  0.82095  0.98337  0.02561  1.0000
  H   H1395     1.0  0.68355  0.97654  0.43596  1.0000
  H   H1396     1.0  0.67696  0.55892  0.99869  1.0000
  H   H1397     1.0  0.70176  0.76069  0.47397  1.0000
  C   C815      1.0  0.66949  0.57096  0.01725  1.0000
  H   H1398     1.0  0.71147  0.50690  0.06164  1.0000
  H   H1399     1.0  0.79595  0.49651  0.44862  1.0000
  H   H1400     1.0  0.99288  0.97189  0.19250  1.0000
  C   C816      1.0  0.69991  0.49692  0.12885  1.0000
  H   H1401     1.0  0.99088  0.49749  0.32701  1.0000
  C   C817      1.0  0.80259  0.49779  0.39617  1.0000
  H   H1402     1.0  0.99278  0.54105  0.37176  1.0000
  H   H1403     1.0  0.66045  0.91773  0.39237  1.0000
  H   H1404     1.0  0.99008  0.49534  0.07010  1.0000
  H   H1405     1.0  0.81792  0.99331  0.13560  1.0000
  H   H1406     1.0  0.83941  0.99342  0.08062  1.0000
  S   S232      1.0  0.71158  0.60357  0.52453  1.0000
  S   S233      1.0  0.76889  0.64315  0.52460  1.0000
  H   H1407     1.0  0.93029  0.88151  0.74281  1.0000
  Fe  Fe116     1.0  0.74093  0.68437  0.94970  1.0000
  S   S234      1.0  0.72125  0.67826  0.50421  1.0000
  S   S235      1.0  0.72622  0.70480  0.90486  1.0000
  C   C818      1.0  0.76856  0.80158  0.53380  1.0000
  H   H1408     1.0  0.72903  0.67897  0.59069  1.0000
  Fe  Fe117     1.0  0.75993  0.68401  0.52331  1.0000
  S   S236      1.0  0.77253  0.70799  0.56584  1.0000
  S   S237      1.0  0.74691  0.64314  0.94373  1.0000
  H   H1409     1.0  0.69867  0.83404  0.82512  1.0000
  Fe  Fe118     1.0  0.71317  0.84638  0.75331  1.0000
  S   S238      1.0  0.74976  0.85150  0.77824  1.0000
  S   S239      1.0  0.67522  0.86055  0.77104  1.0000
  Fe  Fe119     1.0  0.73671  0.81171  0.70192  1.0000
  S   S240      1.0  0.77515  0.81494  0.72374  1.0000
  S   S241      1.0  0.72289  0.79030  0.65728  1.0000
  Fe  Fe120     1.0  0.75566  0.81028  0.77173  1.0000
  S   S242      1.0  0.77243  0.78902  0.81469  1.0000
  Fe  Fe121     1.0  0.76636  0.85599  0.72858  1.0000
  S   S243      1.0  0.79233  0.88977  0.72450  1.0000
  S   S244      1.0  0.71797  0.80470  0.74970  1.0000
  S   S245      1.0  0.72904  0.85315  0.70398  1.0000
  H   H1410     1.0  0.66533  0.61069  0.60471  1.0000
  H   H1411     1.0  0.74028  0.83172  0.87508  1.0000
  Fe  Fe122     1.0  0.88805  0.96475  0.61350  1.0000
  S   S246      1.0  0.86161  0.93157  0.61216  1.0000
  H   H1412     1.0  0.93834  0.50830  0.62525  1.0000
  S   S247      1.0  0.92935  0.95866  0.61416  1.0000
  N   N60       1.0  0.69074  0.80780  0.86381  1.0000
  S   S248      1.0  0.93400  0.52255  0.87667  1.0000
  Fe  Fe123     1.0  0.89327  0.51262  0.87295  1.0000
  S   S249      1.0  0.85735  0.53367  0.88674  1.0000
  H   H1413     1.0  0.83324  0.97506  0.61788  1.0000
  S   S250      1.0  0.96171  0.52456  0.78873  1.0000
  C   C819      1.0  0.79635  0.98982  0.65600  1.0000
  Fe  Fe124     1.0  0.73098  0.63738  0.50259  1.0000
  H   H1414     1.0  0.74814  0.73314  0.49995  1.0000
  H   H1415     1.0  0.96952  0.96044  0.75818  1.0000
  C   C820      1.0  0.67856  0.78854  0.84258  1.0000
  H   H1416     1.0  0.70504  0.76814  0.92871  1.0000
  H   H1417     1.0  0.69586  0.69367  0.56689  1.0000
  H   H1418     1.0  0.89738  0.88374  0.64804  1.0000
  H   H1419     1.0  0.69094  0.94291  0.82033  1.0000
  C   C821      1.0  0.81079  0.90132  0.69239  1.0000
  C   C822      1.0  0.81404  0.88827  0.66351  1.0000
  C   C823      1.0  0.82955  0.89787  0.63920  1.0000
  C   C824      1.0  0.84202  0.92057  0.64342  1.0000
  C   C825      1.0  0.83854  0.93382  0.67212  1.0000
  C   C826      1.0  0.82303  0.92422  0.69644  1.0000
  H   H1420     1.0  0.80477  0.87066  0.66002  1.0000
  H   H1421     1.0  0.83202  0.88750  0.61705  1.0000
  H   H1422     1.0  0.84793  0.95133  0.67570  1.0000
  H   H1423     1.0  0.82060  0.93447  0.71868  1.0000
  C   C827      1.0  0.83132  0.60697  0.93518  1.0000
  C   C828      1.0  0.81431  0.58866  0.92614  1.0000
  C   C829      1.0  0.82271  0.56647  0.91138  1.0000
  C   C830      1.0  0.84817  0.56211  0.90565  1.0000
  C   C831      1.0  0.86518  0.58046  0.91473  1.0000
  C   C832      1.0  0.85676  0.60276  0.92927  1.0000
  H   H1424     1.0  0.79468  0.59157  0.93039  1.0000
  H   H1425     1.0  0.80936  0.55245  0.90444  1.0000
  H   H1426     1.0  0.88478  0.57748  0.91040  1.0000
  H   H1427     1.0  0.96377  0.53732  0.59791  1.0000
  C   C833      1.0  0.75793  0.73019  0.59153  1.0000
  C   C834      1.0  0.77172  0.74047  0.61710  1.0000
  C   C835      1.0  0.76130  0.75871  0.63761  1.0000
  C   C836      1.0  0.73692  0.76700  0.63267  1.0000
  C   C837      1.0  0.72310  0.75667  0.60706  1.0000
  C   C838      1.0  0.73349  0.73835  0.58664  1.0000
  H   H1428     1.0  0.79069  0.73440  0.62103  1.0000
  H   H1429     1.0  0.77219  0.76648  0.65710  1.0000
  H   H1430     1.0  0.70423  0.76299  0.60302  1.0000
  H   H1431     1.0  0.72272  0.73079  0.56697  1.0000
  C   C839      1.0  0.74021  0.72737  0.87949  1.0000
  C   C840      1.0  0.72866  0.73336  0.85000  1.0000
  C   C841      1.0  0.73857  0.75171  0.82950  1.0000
  C   C842      1.0  0.75999  0.76461  0.83851  1.0000
  C   C843      1.0  0.77180  0.75829  0.86772  1.0000
  C   C844      1.0  0.76200  0.73982  0.88812  1.0000
  H   H1432     1.0  0.71188  0.72375  0.84298  1.0000
  H   H1433     1.0  0.72954  0.75603  0.80686  1.0000
  H   H1434     1.0  0.78844  0.76810  0.87489  1.0000
  H   H1435     1.0  0.77104  0.73553  0.91076  1.0000
  H   H1436     1.0  0.97895  0.52117  0.95171  1.0000
  H   H1437     1.0  0.70739  0.70226  0.62294  1.0000
  C   C845      1.0  0.68130  0.59352  0.53566  1.0000
  C   C846      1.0  0.98035  0.52770  0.60807  1.0000
  S   S251      1.0  0.82183  0.63563  0.95316  1.0000
  H   H1438     1.0  0.76766  0.80357  0.56046  1.0000
  C   C847      1.0  0.68462  0.90693  0.79869  1.0000
  H   H1439     1.0  0.88983  0.95853  0.75182  1.0000
  H   H1440     1.0  0.70373  0.90443  0.79123  1.0000
  H   H1441     1.0  0.68261  0.59210  0.63201  1.0000
  H   H1442     1.0  0.74849  0.65709  0.64172  1.0000
  H   H1443     1.0  0.80692  0.98798  0.55394  1.0000
  H   H1444     1.0  0.88898  0.95575  0.70917  1.0000
  H   H1445     1.0  0.73436  0.78161  0.53273  1.0000
  C   C848      1.0  0.95174  0.50320  0.55649  1.0000
  H   H1446     1.0  0.69279  0.70148  0.66108  1.0000
  H   H1447     1.0  0.96969  0.54227  0.65573  1.0000
  H   H1448     1.0  0.72124  0.81073  0.83009  1.0000
  H   H1449     1.0  0.78848  0.79994  0.52749  1.0000
  C   C849      1.0  0.70838  0.82310  0.84389  1.0000
  H   H1450     1.0  0.66565  0.77675  0.85668  1.0000
  H   H1451     1.0  0.78765  0.73875  0.51100  1.0000
  H   H1452     1.0  0.67951  0.83095  0.90395  1.0000
  C   C850      1.0  0.81595  0.98026  0.60468  1.0000
  H   H1453     1.0  0.67719  0.66362  0.64647  1.0000
  H   H1454     1.0  0.97609  0.96197  0.97663  1.0000
  H   H1455     1.0  0.89218  0.86977  0.75781  1.0000
  H   H1456     1.0  0.83473  0.97061  0.56029  1.0000
  H   H1457     1.0  0.81058  0.76308  0.50949  1.0000
  H   H1458     1.0  0.79009  0.94953  0.64801  1.0000
  H   H1459     1.0  0.92711  0.92866  0.67499  1.0000
  C   C851      1.0  0.79716  0.75205  0.49506  1.0000
  H   H1460     1.0  0.92951  0.87039  0.70272  1.0000
  S   S252      1.0  0.95113  0.98092  0.52757  1.0000
  H   H1461     1.0  0.92695  0.93724  0.73132  1.0000
  Fe  Fe125     1.0  0.78304  0.64863  0.96953  1.0000
  N   N61       1.0  0.70291  0.65164  0.60941  1.0000
  C   C852      1.0  0.70348  0.62379  0.61435  1.0000
  C   C853      1.0  0.72774  0.65881  0.59556  1.0000
  C   C854      1.0  0.68289  0.65723  0.58491  1.0000
  C   C855      1.0  0.69748  0.66414  0.64129  1.0000
  H   H1462     1.0  0.95794  0.52176  0.54815  1.0000
  C   C856      1.0  0.75064  0.65178  0.61609  1.0000
  C   C857      1.0  0.78002  0.96627  0.65676  1.0000
  H   H1463     1.0  0.68675  0.64694  0.56210  1.0000
  H   H1464     1.0  0.98687  0.97756  0.87867  1.0000
  H   H1465     1.0  0.71737  0.61857  0.63309  1.0000
  C   C858      1.0  0.67150  0.82339  0.88118  1.0000
  H   H1466     1.0  0.73027  0.64990  0.57154  1.0000
  Fe  Fe126     1.0  0.93777  0.50529  0.82691  1.0000
  C   C859      1.0  0.67882  0.57018  0.55056  1.0000
  H   H1467     1.0  0.97254  0.50401  0.67727  1.0000
  H   H1468     1.0  0.70667  0.65365  0.66119  1.0000
  H   H1469     1.0  0.93987  0.50077  0.67934  1.0000
  C   C860      1.0  0.75360  0.77841  0.52388  1.0000
  H   H1470     1.0  0.80485  0.96299  0.60264  1.0000
  H   H1471     1.0  0.76717  0.66167  0.60665  1.0000
  H   H1472     1.0  0.96026  0.90436  0.68679  1.0000
  H   H1473     1.0  0.75485  0.63160  0.61418  1.0000
  C   C861      1.0  0.91355  0.89638  0.64914  1.0000
  H   H1474     1.0  0.66079  0.84466  0.83651  1.0000
  H   H1475     1.0  0.67036  0.62121  0.64587  1.0000
  S   S253      1.0  0.94764  0.97883  0.69960  1.0000
  H   H1476     1.0  0.86055  0.87097  0.74469  1.0000
  H   H1477     1.0  0.76243  0.96862  0.64314  1.0000
  H   H1478     1.0  0.66148  0.62598  0.51924  1.0000
  S   S254      1.0  0.77805  0.69023  0.97315  1.0000
  H   H1479     1.0  0.66494  0.68572  0.55615  1.0000
  H   H1480     1.0  0.69284  0.77570  0.83247  1.0000
  H   H1481     1.0  0.86971  0.93601  0.73406  1.0000
  H   H1482     1.0  0.71378  0.85221  0.88113  1.0000
  C   C862      1.0  0.70623  0.79412  0.88862  1.0000
  S   S255      1.0  0.89027  0.99183  0.57231  1.0000
  H   H1483     1.0  0.70962  0.61406  0.59199  1.0000
  C   C863      1.0  0.67729  0.92876  0.81518  1.0000
  H   H1484     1.0  0.67092  0.69539  0.59645  1.0000
  H   H1485     1.0  0.76082  0.76263  0.53844  1.0000
  H   H1486     1.0  0.91396  0.90633  0.62574  1.0000
  H   H1487     1.0  0.81382  0.98542  0.66941  1.0000
  H   H1488     1.0  0.72236  0.78472  0.87706  1.0000
  H   H1489     1.0  0.71447  0.80730  0.90633  1.0000
  H   H1490     1.0  0.69467  0.99271  0.79295  1.0000
  H   H1491     1.0  0.72424  0.69224  0.65831  1.0000
  H   H1492     1.0  0.69515  0.55872  0.55432  1.0000
  H   H1493     1.0  0.89453  0.92703  0.67086  1.0000
  H   H1494     1.0  0.91066  0.91900  0.75928  1.0000
  H   H1495     1.0  0.86967  0.90103  0.70227  1.0000
  C   C864      1.0  0.88813  0.94488  0.73181  1.0000
  H   H1496     1.0  0.73358  0.49988  0.75818  1.0000
  H   H1497     1.0  0.96091  0.91451  0.72837  1.0000
  H   H1498     1.0  0.67373  0.81003  0.79746  1.0000
  H   H1499     1.0  0.70773  0.75282  0.51579  1.0000
  C   C865      1.0  0.72459  0.84154  0.86307  1.0000
  H   H1500     1.0  0.87371  0.89787  0.76274  1.0000
  H   H1501     1.0  0.88656  0.87319  0.69764  1.0000
  H   H1502     1.0  0.87011  0.61681  0.93600  1.0000
  H   H1503     1.0  0.67529  0.78152  0.91960  1.0000
  C   C866      1.0  0.98594  0.97858  0.98379  1.0000
  H   H1504     1.0  0.93098  0.88539  0.65073  1.0000
  N   N62       1.0  0.80690  0.67039  0.85728  1.0000
  C   C867      1.0  0.81762  0.69434  0.87033  1.0000
  C   C868      1.0  0.80060  0.67511  0.82236  1.0000
  C   C869      1.0  0.82688  0.65065  0.85950  1.0000
  C   C870      1.0  0.78462  0.66353  0.87735  1.0000
  C   C871      1.0  0.82818  0.69349  0.90492  1.0000
  C   C872      1.0  0.78019  0.69488  0.81630  1.0000
  C   C873      1.0  0.82021  0.62445  0.84727  1.0000
  C   C874      1.0  0.76575  0.64505  0.86245  1.0000
  H   H1505     1.0  0.83281  0.70121  0.85451  1.0000
  H   H1506     1.0  0.80329  0.70932  0.87054  1.0000
  H   H1507     1.0  0.79482  0.65808  0.80950  1.0000
  H   H1508     1.0  0.81747  0.68112  0.80899  1.0000
  H   H1509     1.0  0.84384  0.65668  0.84636  1.0000
  H   H1510     1.0  0.83269  0.64773  0.88493  1.0000
  H   H1511     1.0  0.79077  0.65553  0.90075  1.0000
  H   H1512     1.0  0.77384  0.68050  0.88412  1.0000
  H   H1513     1.0  0.83203  0.71276  0.91316  1.0000
  H   H1514     1.0  0.81490  0.68542  0.92219  1.0000
  H   H1515     1.0  0.84607  0.68317  0.90607  1.0000
  H   H1516     1.0  0.77497  0.69468  0.79039  1.0000
  H   H1517     1.0  0.76306  0.69127  0.83024  1.0000
  H   H1518     1.0  0.78685  0.71395  0.82165  1.0000
  H   H1519     1.0  0.80578  0.61574  0.86246  1.0000
  H   H1520     1.0  0.83690  0.61229  0.84957  1.0000
  H   H1521     1.0  0.81475  0.62407  0.82155  1.0000
  H   H1522     1.0  0.76348  0.62887  0.87875  1.0000
  H   H1523     1.0  0.77066  0.63727  0.83872  1.0000
  H   H1524     1.0  0.74715  0.65404  0.86049  1.0000
  N   N63       1.0  0.90932  0.90498  0.71017  1.0000
  C   C875      1.0  0.90980  0.92608  0.73413  1.0000
  C   C876      1.0  0.93082  0.88775  0.71729  1.0000
  C   C877      1.0  0.88552  0.89040  0.71252  1.0000
  C   C878      1.0  0.91120  0.91560  0.67669  1.0000
  C   C879      1.0  0.97401  0.98896  0.72225  1.0000
  C   C880      1.0  0.95704  0.89862  0.71206  1.0000
  C   C881      1.0  0.87795  0.88196  0.74659  1.0000
  H   H1525     1.0  0.76059  0.81887  0.52350  1.0000
  H   H1526     1.0  0.97112  0.88407  0.71763  1.0000
  H   H1527     1.0  0.77496  0.96221  0.68216  1.0000
  H   H1528     1.0  0.68877  0.75734  0.89424  1.0000
  C   C882      1.0  0.67886  0.61167  0.62489  1.0000
  C   C883      1.0  0.66098  0.84626  0.86299  1.0000
  C   C884      1.0  0.69268  0.77428  0.90872  1.0000
  H   H1529     1.0  0.73291  0.85515  0.84624  1.0000
  S   S256      1.0  0.89662  0.49855  0.82163  1.0000
  C   C885      1.0  0.82342  0.98634  0.56985  1.0000
  C   C886      1.0  0.66720  0.88846  0.79179  1.0000
  N   N64       1.0  0.97609  0.50005  0.61048  1.0000
  H   H1530     1.0  0.66445  0.65079  0.59334  1.0000
  C   C887      1.0  0.70617  0.69140  0.64535  1.0000
  C   C888      1.0  0.67883  0.68470  0.57598  1.0000
  Fe  Fe127     1.0  0.93054  0.98975  0.65073  1.0000
  H   H1531     1.0  0.98493  0.53500  0.85191  1.0000
  C   C889      1.0  0.97821  0.99142  0.50714  1.0000
  C   C890      1.0  0.98044  0.97622  0.75077  1.0000
  Fe  Fe128     1.0  0.93201  0.98830  0.57609  1.0000
  H   H1532     1.0  0.76922  0.99041  0.59598  1.0000
  H   H1533     1.0  0.93393  0.50487  0.56966  1.0000
  C   C891      1.0  0.98263  0.51085  0.76043  1.0000
  H   H1534     1.0  0.99365  0.52709  0.89162  1.0000
  C   C892      1.0  0.98861  0.50883  0.96810  1.0000
  C   C893      1.0  0.98608  0.54166  0.63962  1.0000
  C   C894      1.0  0.66300  0.79813  0.81400  1.0000
  H   H1535     1.0  0.67093  0.86347  0.87012  1.0000
  H   H1536     1.0  0.99052  0.56128  0.63372  1.0000
  C   C895      1.0  0.71201  0.74807  0.49040  1.0000
  C   C896      1.0  0.95333  0.49450  0.63038  1.0000
