data_image0
_chemical_formula_structural       FeS2CSCFeCFeSHSFeS2FeNFeSHC3HCSH2C3HCH2CH2C7H4CH2CHSHCH5CHCHCH2C2HC2H2SHCH3SHSH3CHFeH2CNH3CH2SH2CFeNCHC3SCH3CH12CHCH3SC2SHCH2CHC3HCH4FeS2H3FeS2FeSHFeCFeSHSCHNCHCHCH7CSC3H2CHC2HC2H4C2SC4HC2HCHNCH2CHCH2CNH2CHC3H5CSH3SH2CH5FeH4CFeH2CH2CHSCH3CH4CHCHC2HCHFeCHC2H2CH3NHCH5NC2SHSH4CHCH2Fe2SFeCSFeCHFeS2FeSCHS3C2H3CH3CH2CHSHC7H6C3HFeCH3C3H2CH2CH6FeSNH7CH2SHCH3C2H2C2HSH3CHSCH3CH3CH6CHCHNCH2CHCH3C3NHCSHCHC2HCHCH2CNHCS2C3H2C2HC2H2C2H2SFeHCH3CHCHC2HCH6CH3CH2CH2NHCHCH17CH4CH3CHC3NHC2H9C2HNH2CH4CHSHFeHFeSHCHCH3CHCHCFeHCNC5H3CH2CH4SC4H5C2HCH3SH4CH2SHCH2C2H2SCH4CH2FeC3H2NCHCH2CSH6SCHCH3FeSH3FeSFeSHSFeSHFe2S2C6H6SCH2CH2SH2C2H3CH4SH2CH6C3H2CH3CH4CH2CH2CHC2NC2HC3HCHCHCHCH3CH2CFeH2C2H3CSCHCNH3SHCH4SH2NH2CHNCHC3HCHCSHSCHFeS2FeSHFeS2Fe2SHSH3C6H4FeC3H2C2FeHNH2CH4C2HCH3NH3CH2SCHCHSC2HCH2C2H5CH2CHCHCH2C3SH5CH7SNH2SH2C2H4CH2C2H3CH2CHCH2CSNH2FeS2CHFeCH6S2HCFeC3H5CHCHCH4SH2CH4SH2FeH3CH3C2SC4HCHNC5H5CHCHCHSH3CH2CHCH9SH2SC3HC3FeH3CH6NH9CH3C5HCH2CH2C3HCSH2CHC3H4CSH2S2CFeHCFeS2HFeCHSFeS2FeS2FeHFeHS2HCSH3SH2CHC2H3CH3C7H5C3NH2NHSH4C4HC3HNH2CH3C2SHCH6C3H3SC3H4CH5CHCH5CH3SH2C2SFeHCHC2HCH2C3HCH3C2H2CH7FeSH2FeHFeS2H4CHFeCFeSFeS2FeSFeS3HC2H3C2NHCSCHC3H3CSHSC3HCHC2HCH5CH2CH2C3H2SH3CH4CHC2H2C2HCH4CH3CH4CHNH2NHC3HCH3C2HC2H3SCH2C3SCFeS2FeSCFeSFeS2CFeS2FeHFeHFeHS2HCHCH6CH3C2H3C8H4C2H5SHNC7H10CH2CH3CNH2CSH2CH3NHC2H3CH3C3HCH2CH2CH5SCH2CSCH4C2HCH3CH3CH2C
_chemical_formula_sum              "Fe72 S144 C504 H864 N36"
_cell_length_a       35.7746
_cell_length_b       35.5455
_cell_length_c       47.3327
_cell_angle_alpha    90.0084
_cell_angle_beta     89.8975
_cell_angle_gamma    119.898

_space_group_name_H-M_alt    "P 1"
_space_group_IT_number       1

loop_
  _space_group_symop_operation_xyz
  'x, y, z'

loop_
  _atom_site_type_symbol
  _atom_site_label
  _atom_site_symmetry_multiplicity
  _atom_site_fract_x
  _atom_site_fract_y
  _atom_site_fract_z
  _atom_site_occupancy
  Fe  Fe1       1.0  0.21957  0.26148  0.30006  1.0000
  S   S1        1.0  0.27488  0.29339  0.26880  1.0000
  S   S2        1.0  0.17177  0.28741  0.30255  1.0000
  C   C1        1.0  0.12769  0.32781  0.32185  1.0000
  S   S3        1.0  0.30570  0.22465  0.28903  1.0000
  C   C2        1.0  0.45012  0.03492  0.28281  1.0000
  Fe  Fe2       1.0  0.31569  0.28947  0.30351  1.0000
  C   C3        1.0  0.06913  0.26826  0.02415  1.0000
  Fe  Fe3       1.0  0.26015  0.22558  0.25673  1.0000
  S   S4        1.0  0.25457  0.20363  0.21029  1.0000
  H   H1        1.0  0.41822  0.03377  0.23052  1.0000
  S   S5        1.0  0.20194  0.19392  0.28552  1.0000
  Fe  Fe4       1.0  0.32009  0.06559  0.10440  1.0000
  S   S6        1.0  0.38202  0.09881  0.07947  1.0000
  S   S7        1.0  0.32333  0.08717  0.15064  1.0000
  Fe  Fe5       1.0  0.34110  0.10230  0.04463  1.0000
  N   N1        1.0  0.16411  0.25249  0.09505  1.0000
  Fe  Fe6       1.0  0.36536  0.03320  0.06194  1.0000
  S   S8        1.0  0.28035  0.07224  0.07028  1.0000
  H   H2        1.0  0.39574  0.48051  0.30244  1.0000
  C   C4        1.0  0.04200  0.28160  0.03660  1.0000
  C   C5        1.0  0.05797  0.32569  0.04196  1.0000
  C   C6        1.0  0.10089  0.35617  0.03495  1.0000
  H   H3        1.0  0.03735  0.33626  0.05169  1.0000
  C   C7        1.0  0.18398  0.99814  0.33193  1.0000
  S   S9        1.0  0.30599  0.99903  0.08968  1.0000
  H   H4        1.0  0.16514  0.32929  0.07343  1.0000
  H   H5        1.0  0.40545  0.16416  0.12517  1.0000
  C   C8        1.0  0.13102  0.24859  0.11647  1.0000
  C   C9        1.0  0.40722  0.19624  0.12513  1.0000
  C   C10       1.0  0.18220  0.22444  0.10518  1.0000
  H   H6        1.0  0.09294  0.35998  0.33597  1.0000
  C   C11       1.0  0.42199  0.45172  0.02576  1.0000
  H   H7        1.0  0.15672  0.18948  0.10517  1.0000
  H   H8        1.0  0.13218  0.28818  0.00688  1.0000
  C   C12       1.0  0.43901  0.99190  0.03633  1.0000
  H   H9        1.0  0.40591  0.30203  0.09365  1.0000
  H   H10       1.0  0.09057  0.26485  0.08883  1.0000
  C   C13       1.0  0.29193  0.12070  0.32428  1.0000
  C   C14       1.0  0.27188  0.16886  0.19498  1.0000
  C   C15       1.0  0.30258  0.16115  0.20792  1.0000
  C   C16       1.0  0.31757  0.13587  0.19414  1.0000
  C   C17       1.0  0.30224  0.11791  0.16722  1.0000
  C   C18       1.0  0.27093  0.12495  0.15447  1.0000
  C   C19       1.0  0.25593  0.15024  0.16827  1.0000
  H   H11       1.0  0.31523  0.17514  0.22842  1.0000
  H   H12       1.0  0.34150  0.13045  0.20436  1.0000
  H   H13       1.0  0.25815  0.11072  0.13406  1.0000
  H   H14       1.0  0.23184  0.15549  0.15814  1.0000
  C   C20       1.0  0.44265  0.02318  0.23173  1.0000
  H   H15       1.0  0.97433  0.29461  0.32713  1.0000
  H   H16       1.0  0.22640  0.26996  0.13760  1.0000
  C   C21       1.0  0.20058  0.29887  0.09263  1.0000
  H   H17       1.0  0.41210  0.06536  0.26877  1.0000
  S   S10       1.0  0.41241  0.00639  0.06253  1.0000
  H   H18       1.0  0.20782  0.22696  0.09059  1.0000
  C   C22       1.0  0.11171  0.29882  0.01660  1.0000
  H   H19       1.0  0.38941  0.42982  0.03279  1.0000
  H   H20       1.0  0.19699  0.31858  0.04888  1.0000
  H   H21       1.0  0.27058  0.12211  0.02341  1.0000
  H   H22       1.0  0.10647  0.21375  0.11984  1.0000
  H   H23       1.0  0.11265  0.20161  0.07046  1.0000
  C   C23       1.0  0.14972  0.30578  0.32965  1.0000
  H   H24       1.0  0.42873  0.07455  0.30474  1.0000
  C   C24       1.0  0.45591  0.47156  0.04564  1.0000
  H   H25       1.0  0.40891  0.26460  0.04996  1.0000
  C   C25       1.0  0.25312  0.16870  0.00853  1.0000
  H   H26       1.0  0.36892  0.40266  0.29146  1.0000
  H   H27       1.0  0.20260  0.25724  0.04312  1.0000
  C   C26       1.0  0.28238  0.15463  0.01551  1.0000
  C   C27       1.0  0.38910  0.41745  0.30976  1.0000
  H   H28       1.0  0.12928  0.25424  0.05796  1.0000
  C   C28       1.0  0.16954  0.22891  0.04436  1.0000
  C   C29       1.0  0.12781  0.34288  0.02211  1.0000
  H   H29       1.0  0.02080  0.29053  0.31848  1.0000
  H   H30       1.0  0.11318  0.39022  0.03936  1.0000
  S   S11       1.0  0.27402  0.35086  0.00648  1.0000
  H   H31       1.0  0.43621  0.24111  0.06892  1.0000
  C   C30       1.0  0.40451  0.46154  0.31591  1.0000
  H   H32       1.0  0.30471  0.41354  0.30939  1.0000
  H   H33       1.0  0.33554  0.28122  0.15848  1.0000
  H   H34       1.0  0.42244  0.25170  0.31402  1.0000
  S   S12       1.0  0.98851  0.24217  0.04492  1.0000
  H   H35       1.0  0.22057  0.21703  0.13817  1.0000
  S   S13       1.0  0.32972  0.03978  0.02482  1.0000
  H   H36       1.0  0.15418  0.22518  0.02337  1.0000
  H   H37       1.0  0.17806  0.22387  0.15181  1.0000
  H   H38       1.0  0.23483  0.39285  0.33595  1.0000
  C   C31       1.0  0.40017  0.39272  0.32716  1.0000
  H   H39       1.0  0.20698  0.31556  0.11345  1.0000
  Fe  Fe7       1.0  0.27142  0.00885  0.05328  1.0000
  H   H40       1.0  0.12495  0.33359  0.29970  1.0000
  H   H41       1.0  0.23137  0.30009  0.08681  1.0000
  C   C32       1.0  0.10626  0.27271  0.10984  1.0000
  N   N2        1.0  0.43982  0.00183  0.25976  1.0000
  H   H42       1.0  0.31291  0.26932  0.12398  1.0000
  H   H43       1.0  0.03292  0.22224  0.31436  1.0000
  H   H44       1.0  0.33629  0.10375  0.30519  1.0000
  C   C33       1.0  0.40961  0.27297  0.09637  1.0000
  H   H45       1.0  0.07984  0.26277  0.12554  1.0000
  H   H46       1.0  0.22230  0.36211  0.07326  1.0000
  S   S14       1.0  0.18146  0.38195  0.01357  1.0000
  H   H47       1.0  0.25810  0.01145  0.30250  1.0000
  H   H48       1.0  0.17173  0.19919  0.04798  1.0000
  C   C34       1.0  0.40292  0.22267  0.32742  1.0000
  Fe  Fe8       1.0  0.24888  0.19678  0.31835  1.0000
  N   N3        1.0  0.36737  0.23419  0.10508  1.0000
  C   C35       1.0  0.33364  0.22765  0.08359  1.0000
  H   H49       1.0  0.21803  0.02494  0.33204  1.0000
  C   C36       1.0  0.35559  0.24259  0.13408  1.0000
  C   C37       1.0  0.37087  0.19366  0.10625  1.0000
  C   C38       1.0  0.28728  0.19116  0.09008  1.0000
  S   S15       1.0  0.36452  0.16677  0.02224  1.0000
  C   C39       1.0  0.34265  0.27795  0.13601  1.0000
  H   H50       1.0  0.29041  0.13780  0.30583  1.0000
  H   H51       1.0  0.33298  0.25823  0.07983  1.0000
  H   H52       1.0  0.34177  0.21935  0.06280  1.0000
  C   C40       1.0  0.20285  0.23496  0.13488  1.0000
  H   H53       1.0  0.26146  0.36015  0.30351  1.0000
  H   H54       1.0  0.32896  0.21246  0.14335  1.0000
  H   H55       1.0  0.38290  0.25258  0.14903  1.0000
  H   H56       1.0  0.34050  0.16579  0.11435  1.0000
  H   H57       1.0  0.37489  0.18359  0.08471  1.0000
  H   H58       1.0  0.27531  0.19511  0.11081  1.0000
  H   H59       1.0  0.26534  0.19156  0.07364  1.0000
  H   H60       1.0  0.28459  0.15874  0.08891  1.0000
  H   H61       1.0  0.17277  0.00054  0.31041  1.0000
  H   H62       1.0  0.40369  0.20342  0.14743  1.0000
  H   H63       1.0  0.12719  0.30826  0.11237  1.0000
  H   H64       1.0  0.36904  0.31009  0.12908  1.0000
  C   C41       1.0  0.19529  0.32827  0.07088  1.0000
  H   H65       1.0  0.44896  0.46443  0.06788  1.0000
  C   C42       1.0  0.14178  0.23415  0.06729  1.0000
  H   H66       1.0  0.05691  0.23416  0.01997  1.0000
  H   H67       1.0  0.14616  0.26115  0.13743  1.0000
  H   H68       1.0  0.21888  0.14673  0.01112  1.0000
  S   S16       1.0  0.38238  0.33760  0.32013  1.0000
  C   C43       1.0  0.42943  0.26832  0.06847  1.0000
  C   C44       1.0  0.31769  0.10112  0.32390  1.0000
  S   S17       1.0  0.26171  0.26145  0.33517  1.0000
  H   H69       1.0  0.30407  0.36705  0.32605  1.0000
  C   C45       1.0  0.99335  0.27903  0.33348  1.0000
  H   H70       1.0  0.43965  0.22016  0.11713  1.0000
  H   H71       1.0  0.38526  0.02296  0.29507  1.0000
  C   C46       1.0  0.41677  0.04980  0.28767  1.0000
  H   H72       1.0  0.45373  0.01570  0.18722  1.0000
  C   C47       1.0  0.28441  0.38182  0.31979  1.0000
  C   C48       1.0  0.32669  0.18248  0.01199  1.0000
  C   C49       1.0  0.43886  0.00132  0.00764  1.0000
  H   H73       1.0  0.43432  0.28200  0.11321  1.0000
  C   C50       1.0  0.43483  0.99474  0.20524  1.0000
  H   H74       1.0  0.38181  0.19660  0.31246  1.0000
  H   H75       1.0  0.45449  0.02276  0.30340  1.0000
  H   H76       1.0  0.46076  0.29842  0.06484  1.0000
  H   H77       1.0  0.42415  0.21214  0.33719  1.0000
  Fe  Fe9       1.0  0.04185  0.37886  0.39751  1.0000
  S   S18       1.0  0.09010  0.35356  0.39815  1.0000
  S   S19       1.0  0.05224  0.43962  0.42014  1.0000
  H   H78       1.0  0.13728  0.30783  0.40110  1.0000
  H   H79       1.0  0.32727  0.46644  0.33970  1.0000
  H   H80       1.0  0.14339  0.27883  0.63028  1.0000
  Fe  Fe10      1.0  0.35731  0.29752  0.63058  1.0000
  S   S20       1.0  0.31868  0.32290  0.60811  1.0000
  S   S21       1.0  0.33400  0.22433  0.62863  1.0000
  Fe  Fe11      1.0  0.42455  0.38979  0.64993  1.0000
  S   S22       1.0  0.38997  0.42064  0.62950  1.0000
  H   H81       1.0  0.04777  0.25426  0.34498  1.0000
  Fe  Fe12      1.0  0.32975  0.36345  0.64695  1.0000
  C   C51       1.0  0.16061  0.01178  0.35348  1.0000
  Fe  Fe13      1.0  0.38277  0.37805  0.59233  1.0000
  S   S23       1.0  0.39087  0.39998  0.54583  1.0000
  H   H82       1.0  0.20253  0.41148  0.36874  1.0000
  S   S24       1.0  0.42056  0.34952  0.61201  1.0000
  C   C52       1.0  0.01804  0.45269  0.61606  1.0000
  H   H83       1.0  0.27192  0.42270  0.41255  1.0000
  N   N4        1.0  0.99001  0.40865  0.60291  1.0000
  C   C53       1.0  0.04994  0.19588  0.35001  1.0000
  H   H84       1.0  0.04103  0.42197  0.57293  1.0000
  C   C54       1.0  0.39975  0.15002  0.64528  1.0000
  H   H85       1.0  0.44509  0.31330  0.34544  1.0000
  C   C55       1.0  0.42767  0.41267  0.35019  1.0000
  H   H86       1.0  0.22366  0.31973  0.63120  1.0000
  H   H87       1.0  0.46344  0.47131  0.37451  1.0000
  H   H88       1.0  0.18147  0.02827  0.37195  1.0000
  H   H89       1.0  0.44604  0.27487  0.40406  1.0000
  H   H90       1.0  0.00109  0.22606  0.41648  1.0000
  H   H91       1.0  0.38497  0.15862  0.36653  1.0000
  H   H92       1.0  0.16917  0.28132  0.36487  1.0000
  C   C56       1.0  0.45670  0.31484  0.36733  1.0000
  S   S25       1.0  0.01489  0.39269  0.35849  1.0000
  C   C57       1.0  0.26997  0.09505  0.37205  1.0000
  C   C58       1.0  0.29543  0.07502  0.37157  1.0000
  C   C59       1.0  0.31143  0.18278  0.65486  1.0000
  H   H93       1.0  0.25188  0.09306  0.39089  1.0000
  H   H94       1.0  0.29706  0.05789  0.39000  1.0000
  C   C60       1.0  0.37342  0.20044  0.39531  1.0000
  H   H95       1.0  0.19163  0.19628  0.61353  1.0000
  C   C61       1.0  0.42910  0.45099  0.49866  1.0000
  C   C62       1.0  0.98363  0.36727  0.55649  1.0000
  H   H96       1.0  0.36344  0.99265  0.60976  1.0000
  C   C63       1.0  0.11255  0.33562  0.37114  1.0000
  C   C64       1.0  0.02815  0.22035  0.33772  1.0000
  H   H97       1.0  0.00948  0.45219  0.63879  1.0000
  H   H98       1.0  0.40166  0.42590  0.48744  1.0000
  H   H99       1.0  0.03708  0.35380  0.63622  1.0000
  H   H100      1.0  0.43681  0.39400  0.36359  1.0000
  C   C65       1.0  0.22221  0.20209  0.62327  1.0000
  C   C66       1.0  0.37558  0.11529  0.66826  1.0000
  S   S26       1.0  0.23661  0.14351  0.34990  1.0000
  C   C67       1.0  0.27398  0.10492  0.66623  1.0000
  C   C68       1.0  0.43693  0.26967  0.38128  1.0000
  C   C69       1.0  0.25854  0.38456  0.34494  1.0000
  C   C70       1.0  0.99382  0.37562  0.62091  1.0000
  H   H101      1.0  0.30325  0.22600  0.37348  1.0000
  C   C71       1.0  0.15289  0.29866  0.35843  1.0000
  C   C72       1.0  0.30585  0.36208  0.38923  1.0000
  H   H102      1.0  0.33505  0.36030  0.39494  1.0000
  C   C73       1.0  0.39355  0.17212  0.38812  1.0000
  H   H103      1.0  0.40735  0.13408  0.62771  1.0000
  N   N5        1.0  0.38871  0.24150  0.37832  1.0000
  C   C74       1.0  0.37419  0.23114  0.34796  1.0000
  H   H104      1.0  0.00161  0.43371  0.56006  1.0000
  H   H105      1.0  0.43385  0.25955  0.62484  1.0000
  C   C75       1.0  0.31944  0.07810  0.34745  1.0000
  H   H106      1.0  0.43617  0.04976  0.61728  1.0000
  C   C76       1.0  0.44455  0.99484  0.60349  1.0000
  H   H107      1.0  0.06023  0.41097  0.63778  1.0000
  H   H108      1.0  0.45383  0.05418  0.51901  1.0000
  C   C77       1.0  0.16008  0.29750  0.64878  1.0000
  N   N6        1.0  0.28429  0.41559  0.36829  1.0000
  H   H109      1.0  0.40758  0.21041  0.60401  1.0000
  H   H110      1.0  0.05545  0.38391  0.60415  1.0000
  C   C78       1.0  0.45308  0.04179  0.60072  1.0000
  H   H111      1.0  0.34101  0.20284  0.34686  1.0000
  C   C79       1.0  0.45916  0.02699  0.51632  1.0000
  C   C80       1.0  0.13460  0.31362  0.37895  1.0000
  C   C81       1.0  0.25402  0.40817  0.39263  1.0000
  H   H112      1.0  0.23843  0.46064  0.38782  1.0000
  H   H113      1.0  0.37974  0.14364  0.40256  1.0000
  H   H114      1.0  0.46640  0.99185  0.58811  1.0000
  H   H115      1.0  0.42891  0.18917  0.39127  1.0000
  H   H116      1.0  0.03633  0.16266  0.34136  1.0000
  C   C82       1.0  0.43235  0.44677  0.52805  1.0000
  S   S27       1.0  0.36507  0.33537  0.67008  1.0000
  H   H117      1.0  0.30767  0.21611  0.41054  1.0000
  H   H118      1.0  0.44991  0.33701  0.38002  1.0000
  H   H119      1.0  0.28570  0.35431  0.40854  1.0000
  S   S28       1.0  0.40508  0.00330  0.39430  1.0000
  H   H120      1.0  0.45662  0.99258  0.62471  1.0000
  H   H121      1.0  0.34431  0.41589  0.36135  1.0000
  C   C83       1.0  0.99791  0.23658  0.39495  1.0000
  H   H122      1.0  0.04875  0.19497  0.37343  1.0000
  H   H123      1.0  0.34594  0.08810  0.65891  1.0000
  H   H124      1.0  0.03142  0.25809  0.38797  1.0000
  H   H125      1.0  0.37898  0.20817  0.41828  1.0000
  H   H126      1.0  0.33834  0.43077  0.39582  1.0000
  Fe  Fe14      1.0  0.01957  0.44967  0.38253  1.0000
  H   H127      1.0  0.18544  0.13847  0.66372  1.0000
  H   H128      1.0  0.00580  0.29106  0.35488  1.0000
  H   H129      1.0  0.22275  0.17125  0.62496  1.0000
  H   H130      1.0  0.97670  0.16956  0.38489  1.0000
  C   C84       1.0  0.43897  0.23612  0.61233  1.0000
  Fe  Fe15      1.0  0.34680  0.00240  0.37571  1.0000
  H   H131      1.0  0.28850  0.33696  0.37298  1.0000
  H   H132      1.0  0.19874  0.41371  0.40617  1.0000
  C   C85       1.0  0.29047  0.13904  0.64627  1.0000
  H   H133      1.0  0.28712  0.13144  0.62395  1.0000
  H   H134      1.0  0.27997  0.46767  0.34689  1.0000
  C   C86       1.0  0.26827  0.11812  0.34845  1.0000
  H   H135      1.0  0.25790  0.07150  0.65922  1.0000
  S   S29       1.0  0.35387  0.05590  0.34627  1.0000
  C   C87       1.0  0.03954  0.38215  0.62460  1.0000
  H   H136      1.0  0.38168  0.27809  0.41273  1.0000
  H   H137      1.0  0.33803  0.17864  0.39282  1.0000
  H   H138      1.0  0.99906  0.37284  0.53531  1.0000
  C   C88       1.0  0.22190  0.42468  0.38821  1.0000
  H   H139      1.0  0.23415  0.37287  0.39747  1.0000
  H   H140      1.0  0.37669  0.29576  0.37850  1.0000
  H   H141      1.0  0.37586  0.15805  0.63630  1.0000
  H   H142      1.0  0.30774  0.26417  0.39964  1.0000
  C   C89       1.0  0.36859  0.26622  0.39116  1.0000
  H   H143      1.0  0.15815  0.21977  0.64895  1.0000
  C   C90       1.0  0.20554  0.32051  0.64929  1.0000
  H   H144      1.0  0.24850  0.22293  0.60835  1.0000
  C   C91       1.0  0.00579  0.41007  0.57313  1.0000
  C   C92       1.0  0.32003  0.40813  0.37830  1.0000
  H   H145      1.0  0.98098  0.25552  0.39679  1.0000
  C   C93       1.0  0.46282  0.21722  0.62915  1.0000
  H   H146      1.0  0.44485  0.04858  0.57950  1.0000
  Fe  Fe16      1.0  0.98500  0.40006  0.43753  1.0000
  C   C94       1.0  0.30429  0.46130  0.35712  1.0000
  H   H147      1.0  0.08454  0.21338  0.34388  1.0000
  C   C95       1.0  0.44304  0.45664  0.35634  1.0000
  C   C96       1.0  0.31898  0.24118  0.39371  1.0000
  H   H148      1.0  0.45452  0.25402  0.37259  1.0000
  H   H149      1.0  0.40055  0.22010  0.66425  1.0000
  C   C97       1.0  0.10937  0.34277  0.34239  1.0000
  H   H150      1.0  0.38711  0.99022  0.56402  1.0000
  H   H151      1.0  0.23538  0.25848  0.64776  1.0000
  H   H152      1.0  0.23894  0.35099  0.35318  1.0000
  N   N7        1.0  0.43962  0.19069  0.65485  1.0000
  H   H153      1.0  0.23791  0.98865  0.36373  1.0000
  C   C98       1.0  0.15433  0.19314  0.66318  1.0000
  H   H154      1.0  0.26321  0.23144  0.65875  1.0000
  H   H155      1.0  0.45645  0.11952  0.64842  1.0000
  H   H156      1.0  0.45888  0.25423  0.59377  1.0000
  H   H157      1.0  0.05262  0.46175  0.61566  1.0000
  H   H158      1.0  0.14009  0.16349  0.64974  1.0000
  N   N8        1.0  0.98103  0.20170  0.34478  1.0000
  C   C99       1.0  0.23105  0.22569  0.65197  1.0000
  C   C100      1.0  0.43493  0.99506  0.49598  1.0000
  S   S30       1.0  0.39441  0.99913  0.47636  1.0000
  H   H159      1.0  0.46602  0.00630  0.35332  1.0000
  S   S31       1.0  0.97681  0.33780  0.41834  1.0000
  H   H160      1.0  0.15273  0.03507  0.34317  1.0000
  H   H161      1.0  0.12925  0.98494  0.36073  1.0000
  H   H162      1.0  0.98128  0.37504  0.64255  1.0000
  H   H163      1.0  0.98726  0.34127  0.56676  1.0000
  C   C101      1.0  0.97243  0.19627  0.37616  1.0000
  H   H164      1.0  0.97369  0.34224  0.61258  1.0000
  C   C102      1.0  0.46810  0.47966  0.54220  1.0000
  H   H165      1.0  0.38782  0.98283  0.63927  1.0000
  H   H166      1.0  0.37162  0.25832  0.33846  1.0000
  Fe  Fe17      1.0  0.02322  0.28291  0.76747  1.0000
  Fe  Fe18      1.0  0.22250  0.36225  0.98793  1.0000
  S   S32       1.0  0.04110  0.27795  0.81384  1.0000
  Fe  Fe19      1.0  0.03858  0.27703  0.70438  1.0000
  C   C103      1.0  0.40994  0.47720  0.72310  1.0000
  S   S33       1.0  0.06597  0.33230  0.73525  1.0000
  Fe  Fe20      1.0  0.24856  0.29502  0.97594  1.0000
  C   C104      1.0  0.09653  0.37701  0.95365  1.0000
  H   H167      1.0  0.10817  0.16403  0.90290  1.0000
  Fe  Fe21      1.0  0.23903  0.34656  0.92696  1.0000
  S   S34       1.0  0.26570  0.40688  0.95378  1.0000
  S   S35       1.0  0.22054  0.34601  0.88024  1.0000
  Fe  Fe22      1.0  0.31565  0.39092  0.97012  1.0000
  S   S36       1.0  0.38798  0.44267  0.97117  1.0000
  C   C105      1.0  0.04964  0.34388  0.91234  1.0000
  H   H168      1.0  0.05337  0.39965  0.99318  1.0000
  S   S37       1.0  0.29254  0.33379  0.94028  1.0000
  S   S38       1.0  0.19347  0.30319  0.96038  1.0000
  S   S39       1.0  0.25793  0.07252  0.72145  1.0000
  C   C106      1.0  0.27830  0.11408  0.69518  1.0000
  C   C107      1.0  0.29912  0.15787  0.70378  1.0000
  H   H169      1.0  0.15197  0.22729  0.87326  1.0000
  H   H170      1.0  0.30262  0.16539  0.72611  1.0000
  H   H171      1.0  0.12774  0.21846  0.69522  1.0000
  C   C108      1.0  0.12874  0.19615  0.91281  1.0000
  H   H172      1.0  0.26628  0.19736  0.93677  1.0000
  H   H173      1.0  0.23145  0.24418  0.92825  1.0000
  H   H174      1.0  0.13898  0.19277  0.93429  1.0000
  C   C109      1.0  0.03396  0.30205  0.95798  1.0000
  H   H175      1.0  0.43757  0.06726  0.69071  1.0000
  H   H176      1.0  0.20792  0.22674  0.82858  1.0000
  C   C110      1.0  0.18325  0.17120  0.87310  1.0000
  H   H177      1.0  0.41118  0.19686  0.69388  1.0000
  S   S40       1.0  0.01853  0.40594  0.71591  1.0000
  H   H178      1.0  0.25097  0.28084  0.88259  1.0000
  C   C111      1.0  0.98910  0.45957  0.69776  1.0000
  C   C112      1.0  0.09155  0.29727  0.83176  1.0000
  C   C113      1.0  0.09144  0.28742  0.86066  1.0000
  C   C114      1.0  0.13036  0.30237  0.87587  1.0000
  C   C115      1.0  0.17017  0.32738  0.86240  1.0000
  C   C116      1.0  0.17031  0.33676  0.83345  1.0000
  C   C117      1.0  0.13141  0.32200  0.81826  1.0000
  H   H179      1.0  0.06092  0.26792  0.87129  1.0000
  H   H180      1.0  0.12967  0.29425  0.89792  1.0000
  H   H181      1.0  0.20078  0.35577  0.82265  1.0000
  H   H182      1.0  0.13228  0.32985  0.79609  1.0000
  H   H183      1.0  0.12721  0.33660  0.95544  1.0000
  H   H184      1.0  0.14681  0.13131  0.91112  1.0000
  C   C118      1.0  0.25396  0.24633  0.71330  1.0000
  C   C119      1.0  0.42778  0.03320  0.69075  1.0000
  C   C120      1.0  0.16685  0.22597  0.89356  1.0000
  H   H185      1.0  0.28984  0.23655  0.90932  1.0000
  Fe  Fe23      1.0  0.00802  0.33829  0.72364  1.0000
  C   C121      1.0  0.31212  0.23880  0.99471  1.0000
  H   H186      1.0  0.06273  0.37706  0.90326  1.0000
  H   H187      1.0  0.44762  0.27588  0.69698  1.0000
  H   H188      1.0  0.45525  0.16407  0.69132  1.0000
  C   C122      1.0  0.04615  0.27008  0.94424  1.0000
  C   C123      1.0  0.23619  0.24918  0.87116  1.0000
  C   C124      1.0  0.16104  0.12905  0.89093  1.0000
  H   H189      1.0  0.10794  0.21092  0.91558  1.0000
  H   H190      1.0  0.04429  0.30609  0.98041  1.0000
  C   C125      1.0  0.46219  0.26063  0.68378  1.0000
  H   H191      1.0  0.19749  0.18815  0.93140  1.0000
  H   H192      1.0  0.25183  0.28125  0.83024  1.0000
  C   C126      1.0  0.13607  0.29850  0.67204  1.0000
  H   H193      1.0  0.15989  0.16887  0.85668  1.0000
  H   H194      1.0  0.32383  0.27127  0.98663  1.0000
  H   H195      1.0  0.25786  0.26615  0.73239  1.0000
  H   H196      1.0  0.33193  0.22541  0.69085  1.0000
  H   H197      1.0  0.13424  0.10327  0.87842  1.0000
  H   H198      1.0  0.01255  0.34305  0.99810  1.0000
  Fe  Fe24      1.0  0.23456  0.99911  0.72084  1.0000
  S   S41       1.0  0.28428  0.37406  0.67514  1.0000
  N   N9        1.0  0.05103  0.34593  0.94420  1.0000
  H   H199      1.0  0.35911  0.45880  0.67598  1.0000
  H   H200      1.0  0.08866  0.17707  0.67331  1.0000
  H   H201      1.0  0.36510  0.12791  0.68617  1.0000
  H   H202      1.0  0.98892  0.34284  0.94740  1.0000
  H   H203      1.0  0.13594  0.11160  0.70056  1.0000
  H   H204      1.0  0.13997  0.32398  0.71383  1.0000
  H   H205      1.0  0.03327  0.39616  0.94249  1.0000
  C   C127      1.0  0.22095  0.21315  0.91685  1.0000
  H   H206      1.0  0.18154  0.25919  0.90272  1.0000
  H   H207      1.0  0.37565  0.24635  0.99866  1.0000
  S   S42       1.0  0.98366  0.28674  0.69017  1.0000
  H   H208      1.0  0.18367  0.11574  0.71638  1.0000
  C   C128      1.0  0.16947  0.13469  0.70729  1.0000
  H   H209      1.0  0.01781  0.24343  0.93337  1.0000
  H   H210      1.0  0.20067  0.27008  0.84280  1.0000
  H   H211      1.0  0.99801  0.28471  0.95878  1.0000
  C   C129      1.0  0.38536  0.00228  0.69865  1.0000
  C   C130      1.0  0.34142  0.22457  0.00146  1.0000
  H   H212      1.0  0.30809  0.46036  0.76420  1.0000
  H   H213      1.0  0.18362  0.11670  0.89492  1.0000
  C   C131      1.0  0.26017  0.20615  0.91542  1.0000
  C   C132      1.0  0.22264  0.25659  0.84162  1.0000
  H   H214      1.0  0.16899  0.15464  0.72500  1.0000
  S   S43       1.0  0.99819  0.22648  0.73692  1.0000
  H   H215      1.0  0.26297  0.24249  0.86718  1.0000
  H   H216      1.0  0.25505  0.17966  0.90083  1.0000
  H   H217      1.0  0.40381  0.41371  0.72890  1.0000
  C   C133      1.0  0.02318  0.36471  0.95341  1.0000
  H   H218      1.0  0.25615  0.21771  0.72023  1.0000
  S   S44       1.0  0.22958  0.22658  0.98945  1.0000
  C   C134      1.0  0.20333  0.34648  0.69612  1.0000
  H   H219      1.0  0.98452  0.33050  0.90054  1.0000
  H   H220      1.0  0.18597  0.22031  0.71678  1.0000
  H   H221      1.0  0.39486  0.10113  0.67642  1.0000
  C   C135      1.0  0.43009  0.46162  0.99695  1.0000
  H   H222      1.0  0.23029  0.16683  0.68512  1.0000
  H   H223      1.0  0.35279  0.41154  0.72712  1.0000
  H   H224      1.0  0.32052  0.45125  0.71754  1.0000
  C   C136      1.0  0.97982  0.41641  0.70038  1.0000
  H   H225      1.0  0.21986  0.36538  0.71458  1.0000
  H   H226      1.0  0.10694  0.41041  0.94586  1.0000
  H   H227      1.0  0.07084  0.33244  0.90354  1.0000
  H   H228      1.0  0.11301  0.16234  0.70084  1.0000
  H   H229      1.0  0.16341  0.39303  0.95230  1.0000
  H   H230      1.0  0.20977  0.17001  0.86146  1.0000
  C   C137      1.0  0.42608  0.21550  0.67420  1.0000
  H   H231      1.0  0.05497  0.25419  0.96112  1.0000
  C   C138      1.0  0.38589  0.42777  0.71825  1.0000
  H   H232      1.0  0.09851  0.37932  0.97706  1.0000
  N   N10       1.0  0.20111  0.21365  0.88885  1.0000
  C   C139      1.0  0.15796  0.32317  0.69570  1.0000
  H   H233      1.0  0.13490  0.36464  0.92171  1.0000
  H   H234      1.0  0.38492  0.41981  0.69555  1.0000
  C   C140      1.0  0.13174  0.36640  0.94487  1.0000
  H   H235      1.0  0.98741  0.28228  0.90894  1.0000
  C   C141      1.0  0.19721  0.16120  0.68195  1.0000
  H   H236      1.0  0.07354  0.28460  0.92944  1.0000
  H   H237      1.0  0.28130  0.26706  0.69914  1.0000
  H   H238      1.0  0.00865  0.31038  0.87634  1.0000
  C   C142      1.0  0.31563  0.19201  0.68382  1.0000
  C   C143      1.0  0.00473  0.31495  0.89920  1.0000
  C   C144      1.0  0.21012  0.23337  0.69954  1.0000
  N   N11       1.0  0.19757  0.20271  0.67476  1.0000
  H   H239      1.0  0.36253  0.01254  0.70446  1.0000
  C   C145      1.0  0.45753  0.02020  0.68285  1.0000
  S   S45       1.0  0.07904  0.26682  0.67134  1.0000
  H   H240      1.0  0.21086  0.26385  0.69305  1.0000
  C   C146      1.0  0.26782  0.21080  0.99820  1.0000
  H   H241      1.0  0.36258  0.47632  0.76854  1.0000
  C   C147      1.0  0.11939  0.18730  0.68472  1.0000
  C   C148      1.0  0.02222  0.37274  0.98543  1.0000
  H   H242      1.0  0.99779  0.38266  0.98964  1.0000
  C   C149      1.0  0.22732  0.34504  0.67305  1.0000
  H   H243      1.0  0.42232  0.01821  0.00077  1.0000
  C   C150      1.0  0.46053  0.98923  0.98778  1.0000
  H   H244      1.0  0.46041  0.99703  0.96570  1.0000
  H   H245      1.0  0.30754  0.85802  0.06335  1.0000
  C   C151      1.0  0.19873  0.88136  0.04776  1.0000
  N   N12       1.0  0.03239  0.82022  0.04464  1.0000
  H   H246      1.0  0.21363  0.85595  0.33529  1.0000
  C   C152      1.0  0.06472  0.81163  0.05946  1.0000
  S   S46       1.0  0.06267  0.76878  0.30352  1.0000
  S   S47       1.0  0.20724  0.96080  0.03346  1.0000
  C   C153      1.0  0.05657  0.65274  0.28914  1.0000
  C   C154      1.0  0.11798  0.70675  0.24532  1.0000
  C   C155      1.0  0.18221  0.83656  0.04354  1.0000
  H   H247      1.0  0.25057  0.80909  0.03501  1.0000
  H   H248      1.0  0.18805  0.81786  0.05915  1.0000
  C   C156      1.0  0.14691  0.81777  0.32190  1.0000
  C   C157      1.0  0.04018  0.86434  0.05323  1.0000
  H   H249      1.0  0.15497  0.82059  0.29968  1.0000
  C   C158      1.0  0.20190  0.94642  0.31099  1.0000
  C   C159      1.0  0.19061  0.90556  0.02793  1.0000
  H   H250      1.0  0.08328  0.76297  0.06771  1.0000
  H   H251      1.0  0.11124  0.90134  0.05681  1.0000
  C   C160      1.0  0.25454  0.79827  0.01393  1.0000
  C   C161      1.0  0.10323  0.79388  0.33018  1.0000
  H   H252      1.0  0.46263  0.59445  0.09211  1.0000
  H   H253      1.0  0.26139  0.96729  0.28746  1.0000
  S   S48       1.0  0.13759  0.75964  0.01467  1.0000
  Fe  Fe25      1.0  0.98847  0.72367  0.30328  1.0000
  H   H254      1.0  0.05246  0.75266  0.03624  1.0000
  C   C162      1.0  0.98679  0.78682  0.05239  1.0000
  H   H255      1.0  0.21691  0.89699  0.06663  1.0000
  H   H256      1.0  0.01508  0.87066  0.04427  1.0000
  H   H257      1.0  0.09746  0.83211  0.05032  1.0000
  C   C163      1.0  0.05564  0.76446  0.05824  1.0000
  H   H258      1.0  0.06853  0.82150  0.08204  1.0000
  C   C164      1.0  0.10652  0.91073  0.31379  1.0000
  H   H259      1.0  0.00231  0.79067  0.09828  1.0000
  C   C165      1.0  0.33698  0.89864  0.02582  1.0000
  C   C166      1.0  0.15780  0.81581  0.01939  1.0000
  H   H260      1.0  0.04760  0.60892  0.25294  1.0000
  C   C167      1.0  0.12649  0.67681  0.26464  1.0000
  H   H261      1.0  0.25099  0.86746  0.00643  1.0000
  H   H262      1.0  0.12066  0.73135  0.30282  1.0000
  H   H263      1.0  0.29803  0.94646  0.01146  1.0000
  H   H264      1.0  0.38816  0.93918  0.24624  1.0000
  H   H265      1.0  0.08455  0.68978  0.23698  1.0000
  H   H266      1.0  0.00278  0.61540  0.26039  1.0000
  C   C168      1.0  0.02919  0.61248  0.27050  1.0000
  H   H267      1.0  0.40010  0.97724  0.19946  1.0000
  H   H268      1.0  0.16202  0.69338  0.26787  1.0000
  H   H269      1.0  0.01477  0.58231  0.28340  1.0000
  C   C169      1.0  0.08494  0.90280  0.04539  1.0000
  H   H270      1.0  0.97811  0.75394  0.04449  1.0000
  H   H271      1.0  0.35340  0.93449  0.02338  1.0000
  C   C170      1.0  0.46084  0.96993  0.04473  1.0000
  H   H272      1.0  0.09142  0.59933  0.29038  1.0000
  H   H273      1.0  0.37022  0.97362  0.25996  1.0000
  N   N13       1.0  0.10318  0.66530  0.29266  1.0000
  H   H274      1.0  0.11892  0.64726  0.25222  1.0000
  C   C171      1.0  0.12471  0.70462  0.31156  1.0000
  H   H275      1.0  0.24959  0.76502  0.01651  1.0000
  C   C172      1.0  0.15052  0.63596  0.31317  1.0000
  H   H276      1.0  0.03699  0.86593  0.07655  1.0000
  H   H277      1.0  0.19709  0.91298  0.31190  1.0000
  H   H278      1.0  0.40497  0.92277  0.29368  1.0000
  H   H279      1.0  0.32387  0.91467  0.06760  1.0000
  H   H280      1.0  0.17224  0.64556  0.29457  1.0000
  H   H281      1.0  0.13993  0.71638  0.22677  1.0000
  H   H282      1.0  0.16021  0.71800  0.31229  1.0000
  H   H283      1.0  0.12411  0.73696  0.25616  1.0000
  H   H284      1.0  0.02650  0.74208  0.07055  1.0000
  H   H285      1.0  0.32290  0.82191  0.01224  1.0000
  H   H286      1.0  0.05283  0.68040  0.28166  1.0000
  H   H287      1.0  0.27648  0.88106  0.04896  1.0000
  H   H288      1.0  0.08649  0.93362  0.05178  1.0000
  H   H289      1.0  0.44563  0.53843  0.02322  1.0000
  H   H290      1.0  0.07323  0.88501  0.31936  1.0000
  H   H291      1.0  0.16540  0.66068  0.33005  1.0000
  H   H292      1.0  0.36383  0.89262  0.03096  1.0000
  C   C173      1.0  0.43180  0.55801  0.01516  1.0000
  H   H293      1.0  0.41594  0.62472  0.00786  1.0000
  H   H294      1.0  0.37022  0.55736  0.02200  1.0000
  H   H295      1.0  0.46103  0.96223  0.06683  1.0000
  H   H296      1.0  0.11592  0.89864  0.29501  1.0000
  C   C174      1.0  0.39494  0.96369  0.26304  1.0000
  H   H297      1.0  0.04011  0.64507  0.30989  1.0000
  H   H298      1.0  0.36665  0.50542  0.02264  1.0000
  H   H299      1.0  0.46087  0.95547  0.24934  1.0000
  C   C175      1.0  0.10515  0.62737  0.30522  1.0000
  H   H300      1.0  0.09150  0.90508  0.02238  1.0000
  C   C176      1.0  0.38704  0.53996  0.02900  1.0000
  C   C177      1.0  0.30924  0.88671  0.05276  1.0000
  C   C178      1.0  0.03799  0.81789  0.01322  1.0000
  N   N14       1.0  0.46286  0.60579  0.01922  1.0000
  H   H301      1.0  0.10511  0.94034  0.30841  1.0000
  C   C179      1.0  0.38566  0.93918  0.29139  1.0000
  C   C180      1.0  0.97504  0.78343  0.08408  1.0000
  H   H302      1.0  0.08450  0.61486  0.32432  1.0000
  H   H303      1.0  0.43258  0.61586  0.05632  1.0000
  H   H304      1.0  0.18600  0.94789  0.29116  1.0000
  H   H305      1.0  0.38910  0.54033  0.05239  1.0000
  H   H306      1.0  0.14766  0.60545  0.32165  1.0000
  H   H307      1.0  0.46793  0.56216  0.06586  1.0000
  H   H308      1.0  0.02783  0.78407  0.00686  1.0000
  H   H309      1.0  0.98874  0.55475  0.02321  1.0000
  H   H310      1.0  0.07245  0.83705  0.00703  1.0000
  C   C181      1.0  0.97827  0.52213  0.01598  1.0000
  C   C182      1.0  0.46385  0.61901  0.04957  1.0000
  H   H311      1.0  0.35121  0.91339  0.29212  1.0000
  N   N15       1.0  0.18196  0.95515  0.33652  1.0000
  H   H312      1.0  0.39135  0.96050  0.30986  1.0000
  H   H313      1.0  0.44562  0.97069  0.20765  1.0000
  C   C183      1.0  0.25067  0.97768  0.30648  1.0000
  H   H314      1.0  0.27036  0.97712  0.32436  1.0000
  H   H315      1.0  0.36515  0.50640  0.37829  1.0000
  H   H316      1.0  0.30624  0.91041  0.61083  1.0000
  H   H317      1.0  0.10591  0.72589  0.62725  1.0000
  C   C184      1.0  0.32692  0.92936  0.62866  1.0000
  H   H318      1.0  0.31660  0.93261  0.56370  1.0000
  S   S49       1.0  0.33756  0.90341  0.41651  1.0000
  H   H319      1.0  0.00424  0.65706  0.55894  1.0000
  Fe  Fe26      1.0  0.37632  0.93581  0.37728  1.0000
  H   H320      1.0  0.20936  0.95431  0.40800  1.0000
  Fe  Fe27      1.0  0.28416  0.91050  0.39570  1.0000
  S   S50       1.0  0.21130  0.86061  0.39747  1.0000
  H   H321      1.0  0.32876  0.52718  0.37295  1.0000
  C   C185      1.0  0.02744  0.69015  0.55146  1.0000
  H   H322      1.0  0.10865  0.66005  0.63065  1.0000
  C   C186      1.0  0.97963  0.58065  0.34208  1.0000
  H   H323      1.0  0.97274  0.58282  0.42340  1.0000
  H   H324      1.0  0.10940  0.63358  0.59789  1.0000
  H   H325      1.0  0.11969  0.92091  0.35804  1.0000
  C   C187      1.0  0.12150  0.73313  0.60603  1.0000
  H   H326      1.0  0.04242  0.63384  0.58225  1.0000
  C   C188      1.0  0.05994  0.71769  0.57460  1.0000
  H   H327      1.0  0.16039  0.91272  0.39333  1.0000
  C   C189      1.0  0.20785  0.95669  0.36216  1.0000
  Fe  Fe28      1.0  0.97136  0.61100  0.64944  1.0000
  H   H328      1.0  0.30881  0.94179  0.64094  1.0000
  C   C190      1.0  0.42216  0.90270  0.58830  1.0000
  N   N16       1.0  0.09056  0.70255  0.58407  1.0000
  C   C191      1.0  0.09354  0.79052  0.35906  1.0000
  C   C192      1.0  0.06373  0.65869  0.59787  1.0000
  C   C193      1.0  0.03974  0.73508  0.65448  1.0000
  C   C194      1.0  0.12697  0.81087  0.37921  1.0000
  C   C195      1.0  0.17061  0.83493  0.37094  1.0000
  H   H329      1.0  0.06028  0.77226  0.36591  1.0000
  H   H330      1.0  0.11890  0.80803  0.40145  1.0000
  H   H331      1.0  0.14242  0.72505  0.51882  1.0000
  C   C196      1.0  0.00413  0.52910  0.35235  1.0000
  H   H332      1.0  0.04182  0.66010  0.61404  1.0000
  H   H333      1.0  0.07708  0.75133  0.56636  1.0000
  C   C197      1.0  0.46098  0.48727  0.48359  1.0000
  H   H334      1.0  0.00803  0.70548  0.54560  1.0000
  H   H335      1.0  0.15476  0.79402  0.58091  1.0000
  H   H336      1.0  0.11087  0.67215  0.35351  1.0000
  H   H337      1.0  0.45717  0.92631  0.58795  1.0000
  S   S51       1.0  0.30762  0.97664  0.41531  1.0000
  C   C198      1.0  0.08902  0.63959  0.61277  1.0000
  C   C199      1.0  0.11460  0.69703  0.55970  1.0000
  C   C200      1.0  0.06048  0.78076  0.65373  1.0000
  C   C201      1.0  0.14043  0.73662  0.54030  1.0000
  H   H338      1.0  0.09285  0.66875  0.54623  1.0000
  H   H339      1.0  0.40864  0.91906  0.62967  1.0000
  H   H340      1.0  0.04359  0.68827  0.53194  1.0000
  H   H341      1.0  0.03477  0.52046  0.61504  1.0000
  H   H342      1.0  0.40957  0.89635  0.56638  1.0000
  C   C202      1.0  0.37044  0.96813  0.61923  1.0000
  C   C203      1.0  0.33072  0.49786  0.37856  1.0000
  H   H343      1.0  0.12878  0.72867  0.35428  1.0000
  C   C204      1.0  0.18033  0.83799  0.34207  1.0000
  H   H344      1.0  0.98379  0.61285  0.34401  1.0000
  H   H345      1.0  0.21879  0.93240  0.36023  1.0000
  H   H346      1.0  0.11380  0.79092  0.60490  1.0000
  S   S52       1.0  0.32111  0.93699  0.35536  1.0000
  H   H347      1.0  0.06566  0.60768  0.62205  1.0000
  H   H348      1.0  0.14981  0.72831  0.60834  1.0000
  H   H349      1.0  0.42393  0.93518  0.47740  1.0000
  H   H350      1.0  0.34242  0.91758  0.53674  1.0000
  C   C205      1.0  0.34143  0.92314  0.55980  1.0000
  H   H351      1.0  0.17373  0.75736  0.54836  1.0000
  H   H352      1.0  0.41866  0.87183  0.59651  1.0000
  S   S53       1.0  0.04315  0.51832  0.36693  1.0000
  H   H353      1.0  0.00880  0.49793  0.47124  1.0000
  C   C206      1.0  0.44241  0.96020  0.49275  1.0000
  H   H354      1.0  0.03740  0.59611  0.36536  1.0000
  H   H355      1.0  0.36385  0.51154  0.64153  1.0000
  C   C207      1.0  0.13931  0.78220  0.60172  1.0000
  C   C208      1.0  0.13633  0.91791  0.33915  1.0000
  H   H356      1.0  0.05060  0.79672  0.63844  1.0000
  H   H357      1.0  0.13847  0.68816  0.56756  1.0000
  S   S54       1.0  0.45015  0.53648  0.34651  1.0000
  C   C209      1.0  0.43151  0.48124  0.33924  1.0000
  H   H358      1.0  0.01385  0.71593  0.63995  1.0000
  H   H359      1.0  0.04112  0.71902  0.59296  1.0000
  H   H360      1.0  0.12512  0.75662  0.53700  1.0000
  H   H361      1.0  0.99730  0.55086  0.43038  1.0000
  C   C210      1.0  0.99091  0.52680  0.50530  1.0000
  H   H362      1.0  0.01061  0.55954  0.49748  1.0000
  H   H363      1.0  0.07489  0.69226  0.34371  1.0000
  Fe  Fe29      1.0  0.36427  0.97168  0.43273  1.0000
  C   C211      1.0  0.98985  0.49187  0.49029  1.0000
  C   C212      1.0  0.38626  0.95931  0.56923  1.0000
  C   C213      1.0  0.39669  0.91701  0.60765  1.0000
  H   H364      1.0  0.31870  0.48972  0.40050  1.0000
  H   H365      1.0  0.33175  0.90766  0.64323  1.0000
  N   N17       1.0  0.39842  0.95897  0.59965  1.0000
  C   C214      1.0  0.01621  0.49095  0.60192  1.0000
  H   H366      1.0  0.36327  0.88928  0.60802  1.0000
  C   C215      1.0  0.18520  0.94754  0.39117  1.0000
  H   H367      1.0  0.33146  0.89137  0.56969  1.0000
  H   H368      1.0  0.17057  0.96792  0.39546  1.0000
  C   C216      1.0  0.00987  0.57111  0.35416  1.0000
  S   S55       1.0  0.41781  0.91199  0.35632  1.0000
  H   H369      1.0  0.16415  0.80033  0.61809  1.0000
  H   H370      1.0  0.98294  0.48540  0.60025  1.0000
  H   H371      1.0  0.41050  0.95915  0.55461  1.0000
  H   H372      1.0  0.46127  0.91048  0.42850  1.0000
  H   H373      1.0  0.03142  0.49850  0.58069  1.0000
  H   H374      1.0  0.45788  0.48979  0.46105  1.0000
  S   S56       1.0  0.97077  0.55346  0.62940  1.0000
  C   C217      1.0  0.10838  0.69821  0.34238  1.0000
  H   H375      1.0  0.13650  0.88707  0.34264  1.0000
  C   C218      1.0  0.36535  0.51955  0.66435  1.0000
  H   H376      1.0  0.33209  0.51052  0.67077  1.0000
  H   H377      1.0  0.38700  0.55510  0.66624  1.0000
  H   H378      1.0  0.41317  0.50056  0.67057  1.0000
  Fe  Fe30      1.0  0.17392  0.90532  0.70152  1.0000
  S   S57       1.0  0.20342  0.87734  0.73037  1.0000
  H   H379      1.0  0.13126  0.80384  0.70758  1.0000
  H   H380      1.0  0.13164  0.66254  0.84881  1.0000
  H   H381      1.0  0.42198  0.55016  0.76370  1.0000
  Fe  Fe31      1.0  0.26678  0.93402  0.71668  1.0000
  S   S58       1.0  0.31958  0.91788  0.70776  1.0000
  Fe  Fe32      1.0  0.20155  0.92139  0.76344  1.0000
  S   S59       1.0  0.18711  0.90253  0.81039  1.0000
  H   H382      1.0  0.25009  0.83503  0.74911  1.0000
  S   S60       1.0  0.16826  0.94706  0.73538  1.0000
  Fe  Fe33      1.0  0.08189  0.72157  0.98443  1.0000
  S   S61       1.0  0.05324  0.75287  0.95774  1.0000
  H   H383      1.0  0.44131  0.56411  0.69991  1.0000
  Fe  Fe34      1.0  0.01694  0.62903  0.96429  1.0000
  Fe  Fe35      1.0  0.05038  0.70813  0.92323  1.0000
  S   S62       1.0  0.06721  0.72317  0.87600  1.0000
  S   S63       1.0  0.08322  0.67976  0.94911  1.0000
  C   C219      1.0  0.15255  0.85229  0.82794  1.0000
  C   C220      1.0  0.14898  0.85196  0.85762  1.0000
  C   C221      1.0  0.12304  0.81301  0.87264  1.0000
  C   C222      1.0  0.10028  0.77358  0.85818  1.0000
  C   C223      1.0  0.10410  0.77382  0.82850  1.0000
  C   C224      1.0  0.12993  0.81282  0.81346  1.0000
  H   H384      1.0  0.16630  0.88217  0.86911  1.0000
  H   H385      1.0  0.12055  0.81356  0.89540  1.0000
  H   H386      1.0  0.08669  0.74363  0.81702  1.0000
  H   H387      1.0  0.13227  0.81234  0.79069  1.0000
  H   H388      1.0  0.39721  0.56622  0.71559  1.0000
  H   H389      1.0  0.31492  0.95076  0.97480  1.0000
  S   S64       1.0  0.23772  0.95902  0.68493  1.0000
  C   C225      1.0  0.97826  0.51409  0.98703  1.0000
  H   H390      1.0  0.32434  0.85902  0.76499  1.0000
  H   H391      1.0  0.13218  0.82485  0.98054  1.0000
  C   C226      1.0  0.34762  0.89478  0.97524  1.0000
  H   H392      1.0  0.98130  0.78865  0.75387  1.0000
  H   H393      1.0  0.37041  0.84748  0.96988  1.0000
  S   S65       1.0  0.02937  0.65748  0.67525  1.0000
  H   H394      1.0  0.30875  0.81783  0.79122  1.0000
  H   H395      1.0  0.38674  0.86339  0.78733  1.0000
  C   C227      1.0  0.44227  0.56399  0.74470  1.0000
  C   C228      1.0  0.08399  0.58552  0.90967  1.0000
  H   H396      1.0  0.99855  0.74901  0.75126  1.0000
  H   H397      1.0  0.36232  0.95071  0.77255  1.0000
  H   H398      1.0  0.06978  0.54625  0.87228  1.0000
  C   C229      1.0  0.97819  0.76446  0.71045  1.0000
  H   H399      1.0  0.39315  0.91120  0.69203  1.0000
  H   H400      1.0  0.98616  0.48679  0.85950  1.0000
  H   H401      1.0  0.06918  0.59849  0.92440  1.0000
  H   H402      1.0  0.23623  0.80317  0.81109  1.0000
  S   S66       1.0  0.99533  0.55612  0.96098  1.0000
  H   H403      1.0  0.15951  0.90322  0.98851  1.0000
  H   H404      1.0  0.33582  0.97737  0.78828  1.0000
  C   C230      1.0  0.24545  0.83058  0.79605  1.0000
  H   H405      1.0  0.23272  0.85628  0.84733  1.0000
  H   H406      1.0  0.98755  0.62999  0.86777  1.0000
  H   H407      1.0  0.33151  0.88507  0.95424  1.0000
  H   H408      1.0  0.29673  0.81411  0.97900  1.0000
  H   H409      1.0  0.27102  0.91448  0.79440  1.0000
  H   H410      1.0  0.22211  0.84211  0.80006  1.0000
  C   C231      1.0  0.36804  0.87465  0.80005  1.0000
  C   C232      1.0  0.10282  0.63088  0.84356  1.0000
  C   C233      1.0  0.32168  0.85331  0.78828  1.0000
  H   H411      1.0  0.40736  0.90123  0.95851  1.0000
  H   H412      1.0  0.36463  0.93089  0.97557  1.0000
  C   C234      1.0  0.41640  0.54942  0.71690  1.0000
  H   H413      1.0  0.28994  0.90169  0.76436  1.0000
  H   H414      1.0  0.24682  0.78672  0.76361  1.0000
  H   H415      1.0  0.01892  0.82791  0.97168  1.0000
  C   C235      1.0  0.38326  0.88219  0.97513  1.0000
  H   H416      1.0  0.38559  0.91038  0.79858  1.0000
  H   H417      1.0  0.09593  0.72380  0.70842  1.0000
  H   H418      1.0  0.27512  0.88687  0.87161  1.0000
  H   H419      1.0  0.07675  0.64619  0.88069  1.0000
  C   C236      1.0  0.05236  0.55757  0.88628  1.0000
  H   H420      1.0  0.33074  0.89775  0.83831  1.0000
  H   H421      1.0  0.99346  0.69401  0.72647  1.0000
  C   C237      1.0  0.99757  0.57949  0.88782  1.0000
  H   H422      1.0  0.97844  0.79413  0.70255  1.0000
  H   H423      1.0  0.35611  0.95259  0.81056  1.0000
  C   C238      1.0  0.37268  0.95815  0.69900  1.0000
  H   H424      1.0  0.26931  0.91371  0.84155  1.0000
  C   C239      1.0  0.15027  0.84021  0.99943  1.0000
  C   C240      1.0  0.08583  0.73957  0.69313  1.0000
  N   N18       1.0  0.29125  0.86658  0.80120  1.0000
  C   C241      1.0  0.27809  0.88342  0.99137  1.0000
  C   C242      1.0  0.29771  0.87200  0.83273  1.0000
  H   H425      1.0  0.01249  0.60104  0.90634  1.0000
  C   C243      1.0  0.29626  0.90702  0.78733  1.0000
  C   C244      1.0  0.23553  0.81049  0.76610  1.0000
  C   C245      1.0  0.34040  0.94875  0.78989  1.0000
  H   H426      1.0  0.11208  0.60594  0.84750  1.0000
  C   C246      1.0  0.40266  0.94526  0.69164  1.0000
  H   H427      1.0  0.11410  0.61270  0.90084  1.0000
  C   C247      1.0  0.10609  0.78506  0.69262  1.0000
  H   H428      1.0  0.36850  0.86452  0.82217  1.0000
  C   C248      1.0  0.01304  0.83294  0.99406  1.0000
  H   H429      1.0  0.00179  0.76135  0.69683  1.0000
  C   C249      1.0  0.99806  0.77620  0.74033  1.0000
  H   H430      1.0  0.20004  0.79256  0.76279  1.0000
  H   H431      1.0  0.00167  0.57048  0.82858  1.0000
  H   H432      1.0  0.03214  0.80277  0.73848  1.0000
  C   C250      1.0  0.34391  0.48462  0.72501  1.0000
  H   H433      1.0  0.09316  0.56509  0.92237  1.0000
  H   H434      1.0  0.02719  0.52754  0.89689  1.0000
  C   C251      1.0  0.09374  0.80596  0.67285  1.0000
  Fe  Fe36      1.0  0.98961  0.69754  0.97294  1.0000
  H   H435      1.0  0.97570  0.54694  0.89712  1.0000
  H   H436      1.0  0.44229  0.49061  0.71326  1.0000
  C   C252      1.0  0.26669  0.88282  0.84882  1.0000
  C   C253      1.0  0.44488  0.97611  0.68357  1.0000
  H   H437      1.0  0.97771  0.81364  0.99730  1.0000
  H   H438      1.0  0.29428  0.84173  0.84223  1.0000
  H   H439      1.0  0.26393  0.86824  0.97061  1.0000
  C   C254      1.0  0.34106  0.48537  0.75748  1.0000
  S   S67       1.0  0.98377  0.65498  0.93619  1.0000
  C   C255      1.0  0.05265  0.71441  0.67412  1.0000
  H   H440      1.0  0.04868  0.63977  0.84928  1.0000
  C   C256      1.0  0.06431  0.62486  0.86174  1.0000
  N   N19       1.0  0.03189  0.57884  0.86962  1.0000
  H   H441      1.0  0.34721  0.51755  0.76503  1.0000
  H   H442      1.0  0.09556  0.63052  0.82071  1.0000
  H   H443      1.0  0.45821  0.59991  0.74633  1.0000
  S   S68       1.0  0.01860  0.66878  0.00183  1.0000
  H   H444      1.0  0.44341  0.61881  0.97865  1.0000
  C   C257      1.0  0.28918  0.93124  0.99026  1.0000
  H   H445      1.0  0.46505  0.69430  0.98439  1.0000
  H   H446      1.0  0.32948  0.50413  0.71737  1.0000
  H   H447      1.0  0.26008  0.93259  0.98361  1.0000
  H   H448      1.0  0.41668  0.48215  0.74603  1.0000
  S   S69       1.0  0.26751  0.97671  0.75174  1.0000
  H   H449      1.0  0.03839  0.55120  0.83043  1.0000
  H   H450      1.0  0.40097  0.88956  0.99537  1.0000
  N   N20       1.0  0.31482  0.87586  0.99887  1.0000
  H   H451      1.0  0.02424  0.86797  0.99652  1.0000
  H   H452      1.0  0.42596  0.54959  0.99232  1.0000
  C   C258      1.0  0.01310  0.55343  0.84287  1.0000
  H   H453      1.0  0.01956  0.48563  0.70540  1.0000
  N   N21       1.0  0.38798  0.50114  0.71217  1.0000
  C   C259      1.0  0.44811  0.63058  0.00088  1.0000
  H   H454      1.0  0.46765  0.96572  0.67800  1.0000
  C   C260      1.0  0.38222  0.49341  0.68069  1.0000
  C   C261      1.0  0.96898  0.59505  0.87336  1.0000
  C   C262      1.0  0.97590  0.50648  0.84703  1.0000
  H   H455      1.0  0.46866  0.55606  0.74470  1.0000
  C   C263      1.0  0.16611  0.88474  0.00388  1.0000
  H   H456      1.0  0.22846  0.79518  0.99976  1.0000
  C   C264      1.0  0.29922  0.82777  0.00059  1.0000
  S   S70       1.0  0.11883  0.86322  0.67158  1.0000
  H   H457      1.0  0.91252  0.32637  0.25864  1.0000
  S   S71       1.0  0.72159  0.08757  0.28892  1.0000
  C   C265      1.0  0.79232  0.04578  0.07471  1.0000
  H   H458      1.0  0.90144  0.20026  0.23797  1.0000
  Fe  Fe37      1.0  0.72821  0.04238  0.25883  1.0000
  S   S72       1.0  0.76243  0.06045  0.21564  1.0000
  S   S73       1.0  0.75769  0.01888  0.29149  1.0000
  Fe  Fe38      1.0  0.84752  0.23675  0.03385  1.0000
  S   S74       1.0  0.87089  0.20577  0.06507  1.0000
  H   H459      1.0  0.52335  0.46594  0.27330  1.0000
  Fe  Fe39      1.0  0.91070  0.32980  0.05416  1.0000
  S   S75       1.0  0.93770  0.30460  0.08785  1.0000
  S   S76       1.0  0.93471  0.40331  0.05319  1.0000
  Fe  Fe40      1.0  0.93713  0.26050  0.05352  1.0000
  Fe  Fe41      1.0  0.86918  0.25175  0.09679  1.0000
  S   S77       1.0  0.83437  0.23169  0.13975  1.0000
  H   H460      1.0  0.79115  0.06588  0.11756  1.0000
  S   S78       1.0  0.84229  0.28046  0.06597  1.0000
  H   H461      1.0  0.68825  0.07192  0.11816  1.0000
  H   H462      1.0  0.93964  0.32293  0.28847  1.0000
  H   H463      1.0  0.88575  0.24029  0.28917  1.0000
  C   C266      1.0  0.81317  0.18254  0.15940  1.0000
  C   C267      1.0  0.78161  0.17378  0.18016  1.0000
  C   C268      1.0  0.76562  0.13660  0.19752  1.0000
  C   C269      1.0  0.78124  0.10777  0.19443  1.0000
  C   C270      1.0  0.81244  0.11623  0.17344  1.0000
  C   C271      1.0  0.82855  0.15350  0.15616  1.0000
  H   H464      1.0  0.76957  0.19608  0.18295  1.0000
  H   H465      1.0  0.74124  0.13023  0.21331  1.0000
  H   H466      1.0  0.82473  0.09411  0.17086  1.0000
  H   H467      1.0  0.85337  0.16013  0.14067  1.0000
  Fe  Fe42      1.0  0.74716  0.06121  0.32198  1.0000
  C   C272      1.0  0.74906  0.14429  0.08290  1.0000
  C   C273      1.0  0.71776  0.06996  0.12271  1.0000
  C   C274      1.0  0.60248  0.02961  0.01824  1.0000
  H   H468      1.0  0.85821  0.16967  0.28371  1.0000
  H   H469      1.0  0.80937  0.02813  0.08095  1.0000
  C   C275      1.0  0.58367  0.05882  0.02667  1.0000
  C   C276      1.0  0.95697  0.15722  0.33139  1.0000
  Fe  Fe43      1.0  0.65681  0.03012  0.30029  1.0000
  H   H470      1.0  0.84887  0.13085  0.25667  1.0000
  N   N22       1.0  0.73994  0.06918  0.09556  1.0000
  H   H471      1.0  0.79664  0.13224  0.10211  1.0000
  H   H472      1.0  0.77938  0.25210  0.25600  1.0000
  C   C277      1.0  0.55263  0.00754  0.32188  1.0000
  H   H473      1.0  0.53798  0.05742  0.33340  1.0000
  H   H474      1.0  0.79702  0.06315  0.01051  1.0000
  H   H475      1.0  0.72445  0.05279  0.05152  1.0000
  H   H476      1.0  0.67053  0.11205  0.02429  1.0000
  C   C278      1.0  0.92916  0.27497  0.20770  1.0000
  C   C279      1.0  0.83235  0.22825  0.33583  1.0000
  H   H477      1.0  0.81532  0.21616  0.27442  1.0000
  C   C280      1.0  0.90835  0.30568  0.27712  1.0000
  H   H478      1.0  0.68649  0.06162  0.06989  1.0000
  H   H479      1.0  0.96551  0.15894  0.30857  1.0000
  H   H480      1.0  0.59186  0.14103  0.04599  1.0000
  N   N23       1.0  0.86883  0.23731  0.24506  1.0000
  H   H481      1.0  0.88385  0.29462  0.21978  1.0000
  H   H482      1.0  0.74750  0.01443  0.10819  1.0000
  H   H483      1.0  0.93037  0.24571  0.20096  1.0000
  C   C281      1.0  0.53432  0.10346  0.02264  1.0000
  H   H484      1.0  0.59503  0.15827  0.01040  1.0000
  H   H485      1.0  0.78557  0.11708  0.06614  1.0000
  S   S79       1.0  0.66106  0.98656  0.26739  1.0000
  C   C282      1.0  0.58408  0.12885  0.02384  1.0000
  H   H486      1.0  0.93026  0.26064  0.26678  1.0000
  C   C283      1.0  0.86816  0.19501  0.23976  1.0000
  H   H487      1.0  0.73237  0.14594  0.10221  1.0000
  S   S80       1.0  0.78908  0.19731  0.00596  1.0000
  C   C284      1.0  0.70767  0.04722  0.07216  1.0000
  C   C285      1.0  0.76720  0.04830  0.10050  1.0000
  H   H488      1.0  0.88301  0.30454  0.29125  1.0000
  C   C286      1.0  0.95114  0.44501  0.02697  1.0000
  H   H489      1.0  0.72694  0.13375  0.06457  1.0000
  H   H490      1.0  0.77489  0.17805  0.07826  1.0000
  C   C287      1.0  0.88389  0.26355  0.21817  1.0000
  C   C288      1.0  0.84493  0.15907  0.26223  1.0000
  H   H491      1.0  0.80969  0.14667  0.26256  1.0000
  H   H492      1.0  0.79964  0.19896  0.23923  1.0000
  H   H493      1.0  0.93711  0.29597  0.18867  1.0000
  H   H494      1.0  0.73885  0.09966  0.13524  1.0000
  H   H495      1.0  0.64694  0.12345  0.05364  1.0000
  C   C289      1.0  0.67739  0.99798  0.07501  1.0000
  H   H496      1.0  0.83443  0.29393  0.25710  1.0000
  H   H497      1.0  0.52049  0.02598  0.22958  1.0000
  C   C290      1.0  0.81186  0.26278  0.24698  1.0000
  H   H498      1.0  0.86089  0.24594  0.20074  1.0000
  C   C291      1.0  0.76988  0.11559  0.08667  1.0000
  H   H499      1.0  0.85253  0.18083  0.21916  1.0000
  C   C292      1.0  0.89885  0.25959  0.26951  1.0000
  H   H500      1.0  0.89344  0.10232  0.32203  1.0000
  H   H501      1.0  0.80981  0.26800  0.22401  1.0000
  C   C293      1.0  0.96420  0.22928  0.33188  1.0000
  C   C294      1.0  0.82339  0.22689  0.25207  1.0000
  C   C295      1.0  0.70491  0.03228  0.14384  1.0000
  S   S81       1.0  0.60237  0.04502  0.30634  1.0000
  H   H502      1.0  0.78649  0.16470  0.31995  1.0000
  H   H503      1.0  0.81753  0.07825  0.06732  1.0000
  H   H504      1.0  0.53886  0.00363  0.25622  1.0000
  H   H505      1.0  0.77059  0.02722  0.05704  1.0000
  H   H506      1.0  0.95741  0.22187  0.30895  1.0000
  C   C296      1.0  0.52659  0.02293  0.33340  1.0000
  H   H507      1.0  0.66428  0.19532  0.03008  1.0000
  H   H508      1.0  0.58187  0.99687  0.02751  1.0000
  H   H509      1.0  0.54989  0.04145  0.01938  1.0000
  H   H510      1.0  0.52015  0.45206  0.31922  1.0000
  H   H511      1.0  0.73383  0.03392  0.15371  1.0000
  H   H512      1.0  0.70966  0.18887  0.03710  1.0000
  H   H513      1.0  0.58121  0.05853  0.05016  1.0000
  S   S82       1.0  0.91382  0.28803  0.01941  1.0000
  N   N24       1.0  0.60758  0.10484  0.01579  1.0000
  H   H514      1.0  0.65706  0.98599  0.05573  1.0000
  H   H515      1.0  0.53228  0.04872  0.26501  1.0000
  S   S83       1.0  0.68201  0.00677  0.33576  1.0000
  H   H516      1.0  0.65520  0.98990  0.09317  1.0000
  H   H517      1.0  0.63547  0.04145  0.02637  1.0000
  C   C297      1.0  0.67984  0.17617  0.02420  1.0000
  C   C298      1.0  0.65098  0.12714  0.03025  1.0000
  H   H518      1.0  0.48154  0.06475  0.27862  1.0000
  H   H519      1.0  0.68596  0.03542  0.16139  1.0000
  H   H520      1.0  0.82621  0.14212  0.01751  1.0000
  H   H521      1.0  0.82275  0.24520  0.32119  1.0000
  C   C299      1.0  0.81161  0.18266  0.33519  1.0000
  H   H522      1.0  0.95436  0.29342  0.22369  1.0000
  H   H523      1.0  0.68507  0.99984  0.13438  1.0000
  C   C300      1.0  0.79475  0.12255  0.00813  1.0000
  C   C301      1.0  0.90724  0.13395  0.33321  1.0000
  H   H524      1.0  0.52202  0.12633  0.02595  1.0000
  H   H525      1.0  0.89363  0.15243  0.32289  1.0000
  H   H526      1.0  0.52048  0.07912  0.03994  1.0000
  C   C302      1.0  0.51825  0.01839  0.25245  1.0000
  H   H527      1.0  0.47380  0.05407  0.22921  1.0000
  H   H528      1.0  0.96269  0.46396  0.33750  1.0000
  C   C303      1.0  0.47171  0.98583  0.26164  1.0000
  H   H529      1.0  0.93283  0.22145  0.34152  1.0000
  C   C304      1.0  0.87453  0.10566  0.66790  1.0000
  H   H530      1.0  0.53045  0.03332  0.39830  1.0000
  H   H531      1.0  0.58175  0.06215  0.47772  1.0000
  C   C305      1.0  0.74521  0.03562  0.62556  1.0000
  S   S84       1.0  0.89310  0.30940  0.35312  1.0000
  N   N25       1.0  0.56057  0.00716  0.42592  1.0000
  H   H532      1.0  0.56204  0.00543  0.48695  1.0000
  H   H533      1.0  0.92048  0.40941  0.53265  1.0000
  Fe  Fe44      1.0  0.64632  0.06526  0.63367  1.0000
  S   S85       1.0  0.71774  0.11982  0.63356  1.0000
  S   S86       1.0  0.59343  0.07425  0.61390  1.0000
  C   C306      1.0  0.82324  0.16047  0.35442  1.0000
  H   H534      1.0  0.61282  0.00567  0.44791  1.0000
  Fe  Fe45      1.0  0.55349  0.03734  0.65166  1.0000
  C   C307      1.0  0.78838  0.26712  0.66921  1.0000
  H   H535      1.0  0.87596  0.35048  0.60262  1.0000
  H   H536      1.0  0.86365  0.16725  0.38996  1.0000
  H   H537      1.0  0.84046  0.08817  0.62885  1.0000
  H   H538      1.0  0.50273  0.06296  0.43484  1.0000
  H   H539      1.0  0.93795  0.18520  0.38055  1.0000
  H   H540      1.0  0.50945  0.04965  0.54810  1.0000
  S   S87       1.0  0.95311  0.41261  0.40082  1.0000
  S   S88       1.0  0.96332  0.40392  0.48282  1.0000
  H   H541      1.0  0.86351  0.43974  0.43534  1.0000
  C   C308      1.0  0.76029  0.13809  0.65889  1.0000
  Fe  Fe46      1.0  0.56811  0.00852  0.59387  1.0000
  C   C309      1.0  0.86553  0.25214  0.35521  1.0000
  C   C310      1.0  0.87654  0.23001  0.37492  1.0000
  C   C311      1.0  0.49051  0.02432  0.53305  1.0000
  H   H542      1.0  0.84872  0.01800  0.63638  1.0000
  H   H543      1.0  0.90150  0.24807  0.39030  1.0000
  H   H544      1.0  0.86853  0.21233  0.66430  1.0000
  H   H545      1.0  0.92242  0.47104  0.55904  1.0000
  H   H546      1.0  0.56179  0.47956  0.62437  1.0000
  C   C312      1.0  0.83679  0.18687  0.67058  1.0000
  H   H547      1.0  0.96610  0.13456  0.34125  1.0000
  C   C313      1.0  0.54400  0.03810  0.42004  1.0000
  H   H548      1.0  0.82766  0.46055  0.43930  1.0000
  C   C314      1.0  0.94049  0.44223  0.52506  1.0000
  H   H549      1.0  0.89549  0.12638  0.35532  1.0000
  H   H550      1.0  0.49233  0.32969  0.36643  1.0000
  H   H551      1.0  0.51660  0.03808  0.46238  1.0000
  H   H552      1.0  0.84899  0.43245  0.35779  1.0000
  S   S89       1.0  0.53779  0.98459  0.54978  1.0000
  H   H553      1.0  0.76507  0.07011  0.61916  1.0000
  H   H554      1.0  0.72390  0.03285  0.64343  1.0000
  C   C315      1.0  0.46964  0.17999  0.67074  1.0000
  H   H555      1.0  0.90676  0.33968  0.62756  1.0000
  H   H556      1.0  0.83732  0.41251  0.39308  1.0000
  H   H557      1.0  0.62143  0.02912  0.36366  1.0000
  H   H558      1.0  0.93719  0.41315  0.58362  1.0000
  S   S90       1.0  0.79982  0.10335  0.35334  1.0000
  H   H559      1.0  0.90980  0.33012  0.59042  1.0000
  H   H560      1.0  0.79081  0.01646  0.61224  1.0000
  Fe  Fe47      1.0  0.95058  0.35429  0.38023  1.0000
  H   H561      1.0  0.62382  0.05881  0.43877  1.0000
  H   H562      1.0  0.50414  0.16801  0.63619  1.0000
  H   H563      1.0  0.72370  0.01848  0.60743  1.0000
  C   C316      1.0  0.50836  0.03562  0.43976  1.0000
  H   H564      1.0  0.81327  0.09832  0.65653  1.0000
  H   H565      1.0  0.60976  0.06591  0.38191  1.0000
  H   H566      1.0  0.64613  0.04919  0.39686  1.0000
  C   C317      1.0  0.83111  0.01192  0.65685  1.0000
  C   C318      1.0  0.49763  0.98919  0.53004  1.0000
  S   S91       1.0  0.62450  0.00218  0.61010  1.0000
  C   C319      1.0  0.80200  0.17130  0.65130  1.0000
  C   C320      1.0  0.85526  0.18429  0.37458  1.0000
  C   C321      1.0  0.61582  0.03848  0.38492  1.0000
  C   C322      1.0  0.59789  0.02667  0.44637  1.0000
  H   H567      1.0  0.49523  0.24460  0.63482  1.0000
  C   C323      1.0  0.90749  0.35210  0.60593  1.0000
  H   H568      1.0  0.80744  0.18509  0.63028  1.0000
  N   N26       1.0  0.80368  0.03323  0.65669  1.0000
  C   C324      1.0  0.77294  0.01446  0.63204  1.0000
  C   C325      1.0  0.48580  0.99400  0.34474  1.0000
  C   C326      1.0  0.57716  0.99870  0.39866  1.0000
  C   C327      1.0  0.48391  0.15124  0.65488  1.0000
  C   C328      1.0  0.58820  0.03477  0.47675  1.0000
  H   H569      1.0  0.89826  0.09649  0.66030  1.0000
  H   H570      1.0  0.48813  0.06445  0.60382  1.0000
  H   H571      1.0  0.57098  0.07230  0.42037  1.0000
  H   H572      1.0  0.77695  0.29087  0.66849  1.0000
  H   H573      1.0  0.93834  0.41694  0.62077  1.0000
  C   C329      1.0  0.94392  0.39979  0.60296  1.0000
  H   H574      1.0  0.47120  0.47707  0.56474  1.0000
  C   C330      1.0  0.94156  0.47715  0.54008  1.0000
  H   H575      1.0  0.89264  0.44226  0.38046  1.0000
  C   C331      1.0  0.83154  0.08145  0.65164  1.0000
  H   H576      1.0  0.94924  0.35644  0.55257  1.0000
  S   S92       1.0  0.88046  0.44671  0.66134  1.0000
  H   H577      1.0  0.47710  0.00552  0.43638  1.0000
  H   H578      1.0  0.77241  0.24459  0.65123  1.0000
  H   H579      1.0  0.82346  0.28284  0.66505  1.0000
  C   C332      1.0  0.96467  0.44925  0.50013  1.0000
  H   H580      1.0  0.85683  0.45839  0.48438  1.0000
  H   H581      1.0  0.61734  0.04466  0.48991  1.0000
  C   C333      1.0  0.86246  0.47010  0.43915  1.0000
  H   H582      1.0  0.88915  0.14105  0.66386  1.0000
  C   C334      1.0  0.86068  0.44014  0.37993  1.0000
  H   H583      1.0  0.88018  0.36692  0.67019  1.0000
  H   H584      1.0  0.55147  0.98546  0.38232  1.0000
  H   H585      1.0  0.47831  0.28300  0.66583  1.0000
  H   H586      1.0  0.50415  0.14405  0.66922  1.0000
  H   H587      1.0  0.53659  0.47907  0.35231  1.0000
  H   H588      1.0  0.46922  0.19734  0.61381  1.0000
  H   H589      1.0  0.82965  0.47765  0.38901  1.0000
  H   H590      1.0  0.72210  0.09541  0.69249  1.0000
  H   H591      1.0  0.71330  0.13165  0.97876  1.0000
  S   S93       1.0  0.96685  0.29326  0.75823  1.0000
  H   H592      1.0  0.79609  0.24417  0.76741  1.0000
  H   H593      1.0  0.75018  0.99009  0.68399  1.0000
  S   S94       1.0  0.87275  0.18753  0.72335  1.0000
  C   C335      1.0  0.96454  0.47122  0.97822  1.0000
  C   C336      1.0  0.77081  0.14185  0.99970  1.0000
  C   C337      1.0  0.80106  0.03453  0.71179  1.0000
  H   H594      1.0  0.96410  0.46441  0.95593  1.0000
  C   C338      1.0  0.73382  0.19998  0.75069  1.0000
  C   C339      1.0  0.75390  0.12072  0.68619  1.0000
  C   C340      1.0  0.95910  0.46929  0.68555  1.0000
  Fe  Fe48      1.0  0.94498  0.24058  0.72510  1.0000
  H   H595      1.0  0.78313  0.12263  0.72649  1.0000
  H   H596      1.0  0.78414  0.29969  0.75569  1.0000
  H   H597      1.0  0.82987  0.03079  0.71185  1.0000
  C   C341      1.0  0.77447  0.24045  0.69673  1.0000
  H   H598      1.0  0.81314  0.34396  0.69728  1.0000
  H   H599      1.0  0.74913  0.28424  0.72636  1.0000
  H   H600      1.0  0.52155  0.08731  0.00214  1.0000
  H   H601      1.0  0.84314  0.35993  0.72971  1.0000
  H   H602      1.0  0.71917  0.17623  0.73318  1.0000
  H   H603      1.0  0.90558  0.32452  0.74182  1.0000
  N   N27       1.0  0.79667  0.26334  0.72369  1.0000
  H   H604      1.0  0.79635  0.20726  0.74226  1.0000
  H   H605      1.0  0.79449  0.36161  0.72641  1.0000
  H   H606      1.0  0.56102  0.10346  0.96019  1.0000
  H   H607      1.0  0.87100  0.27504  0.76005  1.0000
  H   H608      1.0  0.68233  0.05166  0.97354  1.0000
  H   H609      1.0  0.76015  0.04331  0.68322  1.0000
  H   H610      1.0  0.81038  0.06784  0.71896  1.0000
  H   H611      1.0  0.72779  0.18072  0.77037  1.0000
  H   H612      1.0  0.93373  0.34977  0.69161  1.0000
  C   C342      1.0  0.78331  0.29596  0.73228  1.0000
  H   H613      1.0  0.49993  0.21012  0.67639  1.0000
  H   H614      1.0  0.58434  0.07286  0.94547  1.0000
  H   H615      1.0  0.85746  0.31026  0.70468  1.0000
  C   C343      1.0  0.57500  0.08257  0.96542  1.0000
  C   C344      1.0  0.71352  0.07127  0.98328  1.0000
  C   C345      1.0  0.78291  0.22913  0.74648  1.0000
  C   C346      1.0  0.87141  0.30160  0.74743  1.0000
  C   C347      1.0  0.94053  0.38297  0.69030  1.0000
  H   H616      1.0  0.85989  0.31942  0.76074  1.0000
  C   C348      1.0  0.73084  0.11633  0.98646  1.0000
  H   H617      1.0  0.85293  0.25945  0.71119  1.0000
  H   H618      1.0  0.87061  0.10150  0.69102  1.0000
  C   C349      1.0  0.78867  0.13625  0.70544  1.0000
  H   H619      1.0  0.77937  0.01124  0.72798  1.0000
  H   H620      1.0  0.63160  0.14100  0.97682  1.0000
  C   C350      1.0  0.61508  0.10680  0.98434  1.0000
  C   C351      1.0  0.81028  0.34259  0.72051  1.0000
  C   C352      1.0  0.83040  0.16936  0.69783  1.0000
  H   H621      1.0  0.71725  0.21916  0.75288  1.0000
  C   C353      1.0  0.91939  0.43581  0.67605  1.0000
  S   S95       1.0  0.71605  0.99521  0.99051  1.0000
  H   H622      1.0  0.94006  0.40420  0.99080  1.0000
  H   H623      1.0  0.54982  0.05171  0.97454  1.0000
  C   C354      1.0  0.73707  0.05182  0.99238  1.0000
  H   H624      1.0  0.77897  0.21208  0.69327  1.0000
  C   C355      1.0  0.84474  0.28345  0.72016  1.0000
  C   C356      1.0  0.91036  0.39269  0.67825  1.0000
  C   C357      1.0  0.95096  0.43692  0.99798  1.0000
  H   H625      1.0  0.73898  0.22690  0.69824  1.0000
  H   H626      1.0  0.48647  0.25845  0.69712  1.0000
  H   H627      1.0  0.63801  0.09545  0.97865  1.0000
  H   H628      1.0  0.60187  0.02497  0.99502  1.0000
  C   C358      1.0  0.77714  0.02429  0.68325  1.0000
  S   S96       1.0  0.48458  0.42819  0.67673  1.0000
  H   H629      1.0  0.69064  0.18258  0.00186  1.0000
  H   H630      1.0  0.85696  0.02616  0.67292  1.0000
  S   S97       1.0  0.60789  0.03351  0.67297  1.0000
  S   S98       1.0  0.50957  0.05957  0.67121  1.0000
  C   C359      1.0  0.77812  0.07780  0.00417  1.0000
  Fe  Fe49      1.0  0.91934  0.62796  0.30492  1.0000
  H   H631      1.0  0.51639  0.59384  0.02329  1.0000
  C   C360      1.0  0.85941  0.76858  0.25784  1.0000
  Fe  Fe50      1.0  0.91075  0.68634  0.26033  1.0000
  S   S99       1.0  0.93955  0.74311  0.29044  1.0000
  S   S100      1.0  0.89188  0.69639  0.21555  1.0000
  H   H632      1.0  0.78839  0.71603  0.21432  1.0000
  Fe  Fe51      1.0  0.89551  0.69469  0.32281  1.0000
  C   C361      1.0  0.59710  0.78103  0.02442  1.0000
  H   H633      1.0  0.65741  0.54870  0.25469  1.0000
  S   S101      1.0  0.86496  0.63932  0.29224  1.0000
  Fe  Fe52      1.0  0.68076  0.67339  0.05860  1.0000
  S   S102      1.0  0.65343  0.61825  0.02745  1.0000
  S   S103      1.0  0.69794  0.74125  0.04464  1.0000
  Fe  Fe53      1.0  0.69015  0.61970  0.10621  1.0000
  S   S104      1.0  0.66180  0.56028  0.07841  1.0000
  S   S105      1.0  0.70949  0.61239  0.15155  1.0000
  Fe  Fe54      1.0  0.70496  0.60544  0.04443  1.0000
  H   H634      1.0  0.54562  0.48844  0.22740  1.0000
  Fe  Fe55      1.0  0.61221  0.57774  0.06378  1.0000
  H   H635      1.0  0.96523  0.49466  0.05803  1.0000
  S   S106      1.0  0.73552  0.66351  0.07282  1.0000
  S   S107      1.0  0.63720  0.63421  0.09440  1.0000
  H   H636      1.0  0.86428  0.66657  0.10749  1.0000
  C   C362      1.0  0.82188  0.72457  0.26794  1.0000
  S   S108      1.0  0.67466  0.89473  0.30484  1.0000
  H   H637      1.0  0.61302  0.54702  0.23663  1.0000
  H   H638      1.0  0.85723  0.60042  0.05959  1.0000
  H   H639      1.0  0.75160  0.51879  0.08222  1.0000
  S   S109      1.0  0.90526  0.55902  0.31223  1.0000
  H   H640      1.0  0.58133  0.58878  0.25890  1.0000
  H   H641      1.0  0.87227  0.79271  0.27519  1.0000
  C   C363      1.0  0.74865  0.63943  0.27408  1.0000
  H   H642      1.0  0.65568  0.80612  0.30261  1.0000
  C   C364      1.0  0.78957  0.75578  0.29847  1.0000
  C   C365      1.0  0.67168  0.79825  0.02827  1.0000
  H   H643      1.0  0.78012  0.50698  0.10825  1.0000
  H   H644      1.0  0.83357  0.71454  0.28675  1.0000
  H   H645      1.0  0.80866  0.50069  0.06603  1.0000
  C   C366      1.0  0.74672  0.67912  0.28548  1.0000
  H   H646      1.0  0.62397  0.74472  0.33684  1.0000
  H   H647      1.0  0.51576  0.57829  0.30455  1.0000
  H   H648      1.0  0.51364  0.61403  0.07397  1.0000
  C   C367      1.0  0.77186  0.53199  0.10157  1.0000
  C   C368      1.0  0.76072  0.63636  0.16873  1.0000
  C   C369      1.0  0.76451  0.61827  0.19431  1.0000
  C   C370      1.0  0.80419  0.63612  0.20889  1.0000
  C   C371      1.0  0.84080  0.67260  0.19817  1.0000
  C   C372      1.0  0.83705  0.69071  0.17256  1.0000
  C   C373      1.0  0.79734  0.67285  0.15797  1.0000
  H   H649      1.0  0.73654  0.59001  0.20284  1.0000
  H   H650      1.0  0.80654  0.62146  0.22835  1.0000
  H   H651      1.0  0.86505  0.71891  0.16399  1.0000
  H   H652      1.0  0.79501  0.68747  0.13849  1.0000
  H   H653      1.0  0.85234  0.55454  0.11731  1.0000
  C   C374      1.0  0.61465  0.72718  0.04236  1.0000
  C   C375      1.0  0.65858  0.75636  0.03845  1.0000
  C   C376      1.0  0.52789  0.58243  0.28262  1.0000
  N   N28       1.0  0.81231  0.57446  0.09501  1.0000
  H   H654      1.0  0.71345  0.67316  0.28187  1.0000
  H   H655      1.0  0.77896  0.60507  0.07634  1.0000
  N   N29       1.0  0.78021  0.72362  0.27488  1.0000
  H   H656      1.0  0.59323  0.60185  0.29482  1.0000
  S   S110      1.0  0.96314  0.67047  0.27034  1.0000
  H   H657      1.0  0.88639  0.76385  0.25077  1.0000
  H   H658      1.0  0.48697  0.65418  0.05226  1.0000
  H   H659      1.0  0.82970  0.68059  0.08882  1.0000
  H   H660      1.0  0.60433  0.69508  0.05062  1.0000
  C   C377      1.0  0.54883  0.52353  0.31744  1.0000
  C   C378      1.0  0.82736  0.57034  0.06590  1.0000
  C   C379      1.0  0.63102  0.55643  0.25672  1.0000
  C   C380      1.0  0.74105  0.53251  0.12423  1.0000
  H   H661      1.0  0.82300  0.61071  0.14806  1.0000
  C   C381      1.0  0.75756  0.71235  0.22222  1.0000
  C   C382      1.0  0.47799  0.59614  0.07138  1.0000
  C   C383      1.0  0.75007  0.75677  0.31095  1.0000
  H   H662      1.0  0.76105  0.78026  0.32876  1.0000
  N   N30       1.0  0.56138  0.53283  0.28667  1.0000
  H   H663      1.0  0.87629  0.72856  0.01589  1.0000
  H   H664      1.0  0.85060  0.78176  0.23944  1.0000
  C   C384      1.0  0.56824  0.57748  0.28039  1.0000
  H   H665      1.0  0.82616  0.56414  0.15956  1.0000
  H   H666      1.0  0.94985  0.74953  0.08903  1.0000
  H   H667      1.0  0.72394  0.54924  0.11635  1.0000
  C   C385      1.0  0.80234  0.61101  0.09365  1.0000
  C   C386      1.0  0.93763  0.50621  0.32650  1.0000
  S   S111      1.0  0.53887  0.52869  0.06362  1.0000
  H   H668      1.0  0.73105  0.73328  0.25497  1.0000
  C   C387      1.0  0.81836  0.66595  0.01692  1.0000
  H   H669      1.0  0.72555  0.72502  0.31979  1.0000
  H   H670      1.0  0.57201  0.55081  0.33092  1.0000
  H   H671      1.0  0.53231  0.64860  0.01727  1.0000
  H   H672      1.0  0.55044  0.71769  0.03944  1.0000
  H   H673      1.0  0.62460  0.54703  0.30125  1.0000
  H   H674      1.0  0.64672  0.59214  0.25952  1.0000
  C   C388      1.0  0.58415  0.73981  0.03573  1.0000
  C   C389      1.0  0.84143  0.65696  0.08955  1.0000
  C   C390      1.0  0.86212  0.69452  0.01073  1.0000
  H   H675      1.0  0.86505  0.53755  0.07439  1.0000
  H   H676      1.0  0.87958  0.60947  0.10793  1.0000
  H   H677      1.0  0.81731  0.70080  0.25121  1.0000
  S   S112      1.0  0.55750  0.79408  0.01389  1.0000
  C   C391      1.0  0.96489  0.48787  0.03573  1.0000
  C   C392      1.0  0.76315  0.73706  0.25003  1.0000
  C   C393      1.0  0.64591  0.81084  0.32333  1.0000
  H   H678      1.0  0.74676  0.63696  0.25087  1.0000
  H   H679      1.0  0.50162  0.55985  0.26843  1.0000
  H   H680      1.0  0.74913  0.67691  0.30872  1.0000
  H   H681      1.0  0.78434  0.77221  0.24539  1.0000
  C   C394      1.0  0.65138  0.85184  0.33041  1.0000
  H   H682      1.0  0.73484  0.76815  0.29532  1.0000
  H   H683      1.0  0.80267  0.56549  0.04987  1.0000
  H   H684      1.0  0.77819  0.63955  0.28136  1.0000
  H   H685      1.0  0.81217  0.78953  0.29139  1.0000
  H   H686      1.0  0.73302  0.67763  0.22409  1.0000
  C   C395      1.0  0.83709  0.53296  0.06168  1.0000
  H   H687      1.0  0.55754  0.95071  0.31317  1.0000
  C   C396      1.0  0.94379  0.54838  0.32780  1.0000
  H   H688      1.0  0.96249  0.80555  0.08939  1.0000
  H   H689      1.0  0.79919  0.67808  0.02679  1.0000
  H   H690      1.0  0.85860  0.66056  0.06938  1.0000
  H   H691      1.0  0.75707  0.54722  0.14442  1.0000
  H   H692      1.0  0.72100  0.60944  0.28279  1.0000
  C   C397      1.0  0.84774  0.58319  0.11569  1.0000
  H   H693      1.0  0.80604  0.74946  0.31633  1.0000
  H   H694      1.0  0.51707  0.52094  0.32139  1.0000
  H   H695      1.0  0.78581  0.61296  0.11291  1.0000
  S   S113      1.0  0.74497  0.58467  0.01839  1.0000
  H   H696      1.0  0.53660  0.61592  0.27624  1.0000
  H   H697      1.0  0.87367  0.61680  0.15564  1.0000
  C   C398      1.0  0.84173  0.59392  0.14633  1.0000
  C   C399      1.0  0.50749  0.61512  0.01117  1.0000
  S   S114      1.0  0.59367  0.92097  0.00616  1.0000
  Fe  Fe56      1.0  0.69016  0.96600  0.30247  1.0000
  H   H698      1.0  0.74584  0.72606  0.20562  1.0000
  C   C400      1.0  0.53772  0.96293  0.32202  1.0000
  H   H699      1.0  0.47797  0.69548  0.02071  1.0000
  C   C401      1.0  0.64107  0.81049  0.02113  1.0000
  C   C402      1.0  0.49647  0.93390  0.33288  1.0000
  H   H700      1.0  0.84592  0.53269  0.03917  1.0000
  C   C403      1.0  0.49847  0.50135  0.03714  1.0000
  H   H701      1.0  0.49854  0.94041  0.03169  1.0000
  H   H702      1.0  0.70568  0.82123  0.02569  1.0000
  C   C404      1.0  0.48220  0.95750  0.02484  1.0000
  C   C405      1.0  0.60303  0.53221  0.28263  1.0000
  C   C406      1.0  0.52540  0.49779  0.26948  1.0000
  H   H703      1.0  0.48476  0.89934  0.33240  1.0000
  C   C407      1.0  0.52791  0.50348  0.23710  1.0000
  H   H704      1.0  0.65157  0.84276  0.01317  1.0000
  H   H705      1.0  0.54241  0.53751  0.23001  1.0000
  H   H706      1.0  0.79929  0.62177  0.33502  1.0000
  C   C408      1.0  0.54564  0.48169  0.32964  1.0000
  C   C409      1.0  0.79948  0.62198  0.01001  1.0000
  H   H707      1.0  0.96334  0.79362  0.04140  1.0000
  H   H708      1.0  0.57696  0.48237  0.32893  1.0000
  C   C410      1.0  0.50679  0.51009  0.00826  1.0000
  H   H709      1.0  0.71570  0.49860  0.12891  1.0000
  H   H710      1.0  0.59669  0.49823  0.28148  1.0000
  H   H711      1.0  0.69517  0.97991  0.07629  1.0000
  H   H712      1.0  0.49321  0.49199  0.27662  1.0000
  H   H713      1.0  0.49467  0.48719  0.22837  1.0000
  H   H714      1.0  0.90970  0.48097  0.31573  1.0000
  H   H715      1.0  0.47387  0.97627  0.28369  1.0000
  Fe  Fe57      1.0  0.94083  0.56598  0.59171  1.0000
  S   S115      1.0  0.87266  0.52551  0.60738  1.0000
  H   H716      1.0  0.50639  0.71360  0.42570  1.0000
  H   H717      1.0  0.51119  0.96781  0.45661  1.0000
  Fe  Fe58      1.0  0.90346  0.51536  0.64603  1.0000
  H   H718      1.0  0.93484  0.48385  0.41930  1.0000
  Fe  Fe59      1.0  0.88115  0.58563  0.63003  1.0000
  S   S116      1.0  0.83471  0.61285  0.62823  1.0000
  S   S117      1.0  0.94700  0.62749  0.61058  1.0000
  H   H719      1.0  0.49028  0.72501  0.45880  1.0000
  H   H720      1.0  0.47743  0.67012  0.44993  1.0000
  H   H721      1.0  0.71803  0.58329  0.66493  1.0000
  H   H722      1.0  0.66271  0.58125  0.60879  1.0000
  C   C411      1.0  0.68705  0.55513  0.65800  1.0000
  H   H723      1.0  0.59017  0.66181  0.47736  1.0000
  Fe  Fe60      1.0  0.58405  0.97115  0.64868  1.0000
  C   C412      1.0  0.47343  0.95732  0.50969  1.0000
  Fe  Fe61      1.0  0.50975  0.57438  0.37383  1.0000
  S   S118      1.0  0.54296  0.54411  0.39678  1.0000
  Fe  Fe62      1.0  0.57513  0.66689  0.39336  1.0000
  S   S119      1.0  0.61247  0.64238  0.41842  1.0000
  S   S120      1.0  0.59238  0.73854  0.39530  1.0000
  Fe  Fe63      1.0  0.60432  0.60116  0.38036  1.0000
  S   S121      1.0  0.65184  0.58555  0.35873  1.0000
  Fe  Fe64      1.0  0.54782  0.58710  0.43304  1.0000
  S   S122      1.0  0.53802  0.56699  0.47997  1.0000
  S   S123      1.0  0.57055  0.62845  0.35456  1.0000
  S   S124      1.0  0.51108  0.61473  0.41091  1.0000
  H   H724      1.0  0.61535  0.50196  0.61109  1.0000
  C   C413      1.0  0.61506  0.78136  0.36967  1.0000
  C   C414      1.0  0.62055  0.82235  0.37678  1.0000
  H   H725      1.0  0.64937  0.64895  0.64004  1.0000
  H   H726      1.0  0.61088  0.82717  0.39750  1.0000
  H   H727      1.0  0.72631  0.53219  0.63789  1.0000
  C   C415      1.0  0.51642  0.65561  0.49577  1.0000
  C   C416      1.0  0.61320  0.69536  0.48392  1.0000
  N   N31       1.0  0.65365  0.56885  0.65401  1.0000
  H   H728      1.0  0.58444  0.53801  0.65929  1.0000
  C   C417      1.0  0.64986  0.91299  0.66461  1.0000
  S   S125      1.0  0.90628  0.57172  0.66989  1.0000
  C   C418      1.0  0.47020  0.94930  0.34407  1.0000
  H   H729      1.0  0.79560  0.66647  0.62603  1.0000
  C   C419      1.0  0.49675  0.52007  0.49773  1.0000
  C   C420      1.0  0.81264  0.63100  0.65530  1.0000
  C   C421      1.0  0.59170  0.71761  0.49981  1.0000
  H   H730      1.0  0.55236  0.63760  0.52546  1.0000
  H   H731      1.0  0.53700  0.79063  0.51916  1.0000
  H   H732      1.0  0.76364  0.69266  0.66250  1.0000
  C   C422      1.0  0.73464  0.60600  0.34644  1.0000
  S   S126      1.0  0.57021  0.90804  0.66972  1.0000
  H   H733      1.0  0.49551  0.60255  0.52576  1.0000
  S   S127      1.0  0.85451  0.71280  0.35004  1.0000
  C   C423      1.0  0.72744  0.66303  0.36911  1.0000
  C   C424      1.0  0.52990  0.72762  0.50943  1.0000
  C   C425      1.0  0.69780  0.53542  0.63243  1.0000
  H   H734      1.0  0.71157  0.91588  0.66346  1.0000
  C   C426      1.0  0.86321  0.48322  0.38862  1.0000
  H   H735      1.0  0.53347  0.72252  0.53224  1.0000
  C   C427      1.0  0.66544  0.59862  0.62883  1.0000
  C   C428      1.0  0.55230  0.77723  0.50499  1.0000
  H   H736      1.0  0.48202  0.64708  0.49428  1.0000
  C   C429      1.0  0.59318  0.51017  0.62210  1.0000
  H   H737      1.0  0.52737  0.54104  0.53838  1.0000
  H   H738      1.0  0.54044  0.94365  0.44361  1.0000
  H   H739      1.0  0.66203  0.94559  0.65668  1.0000
  H   H740      1.0  0.47873  0.93011  0.50698  1.0000
  H   H741      1.0  0.63658  0.69273  0.49802  1.0000
  C   C430      1.0  0.48888  0.93649  0.41661  1.0000
  H   H742      1.0  0.58693  0.79375  0.51067  1.0000
  H   H743      1.0  0.69997  0.62459  0.63003  1.0000
  C   C431      1.0  0.93118  0.73282  0.65334  1.0000
  H   H744      1.0  0.58667  0.97347  0.40170  1.0000
  H   H745      1.0  0.91072  0.48453  0.47210  1.0000
  C   C432      1.0  0.79497  0.65733  0.64791  1.0000
  C   C433      1.0  0.62788  0.77586  0.34273  1.0000
  C   C434      1.0  0.50218  0.70498  0.44852  1.0000
  H   H746      1.0  0.52008  0.63633  0.47860  1.0000
  H   H747      1.0  0.88212  0.51465  0.47613  1.0000
  S   S128      1.0  0.52642  0.97245  0.63092  1.0000
  H   H748      1.0  0.87329  0.56588  0.38022  1.0000
  H   H749      1.0  0.64246  0.88849  0.36321  1.0000
  H   H750      1.0  0.67143  0.50216  0.62785  1.0000
  C   C435      1.0  0.60891  0.52984  0.65173  1.0000
  H   H751      1.0  0.61309  0.75289  0.49585  1.0000
  H   H752      1.0  0.90000  0.56028  0.44079  1.0000
  H   H753      1.0  0.60349  0.59885  0.62844  1.0000
  H   H754      1.0  0.74969  0.97940  0.63529  1.0000
  C   C436      1.0  0.79864  0.67618  0.35439  1.0000
  H   H755      1.0  0.49871  0.92022  0.40060  1.0000
  C   C437      1.0  0.63848  0.85730  0.35734  1.0000
  C   C438      1.0  0.63846  0.62129  0.62519  1.0000
  H   H756      1.0  0.49469  0.71448  0.50635  1.0000
  H   H757      1.0  0.63037  0.71420  0.46475  1.0000
  C   C439      1.0  0.77955  0.63355  0.34441  1.0000
  C   C440      1.0  0.52117  0.63717  0.52418  1.0000
  H   H758      1.0  0.47410  0.49289  0.64557  1.0000
  C   C441      1.0  0.93226  0.51297  0.41389  1.0000
  H   H759      1.0  0.54857  0.78606  0.48313  1.0000
  H   H760      1.0  0.70753  0.67467  0.37855  1.0000
  H   H761      1.0  0.83072  0.95122  0.66379  1.0000
  H   H762      1.0  0.64309  0.63483  0.60348  1.0000
  C   C442      1.0  0.96756  0.49651  0.33884  1.0000
  H   H763      1.0  0.59467  0.71429  0.52297  1.0000
  H   H764      1.0  0.57038  0.74819  0.45574  1.0000
  H   H765      1.0  0.55603  0.69440  0.44753  1.0000
  C   C443      1.0  0.70836  0.62067  0.35857  1.0000
  H   H766      1.0  0.72019  0.57321  0.33840  1.0000
  H   H767      1.0  0.92412  0.70009  0.64632  1.0000
  H   H768      1.0  0.84796  0.53331  0.42590  1.0000
  H   H769      1.0  0.78696  0.72349  0.37500  1.0000
  C   C444      1.0  0.77245  0.69062  0.36708  1.0000
  H   H770      1.0  0.94387  0.52070  0.39177  1.0000
  N   N32       1.0  0.54601  0.70368  0.49137  1.0000
  H   H771      1.0  0.90270  0.60782  0.40536  1.0000
  H   H772      1.0  0.96640  0.75572  0.65294  1.0000
  N   N33       1.0  0.88604  0.50296  0.41613  1.0000
  H   H773      1.0  0.58698  0.53181  0.60843  1.0000
  C   C445      1.0  0.87953  0.48359  0.46945  1.0000
  C   C446      1.0  0.77669  0.67216  0.66855  1.0000
  C   C447      1.0  0.67787  0.89626  0.66853  1.0000
  H   H774      1.0  0.51754  0.65440  0.54255  1.0000
  C   C448      1.0  0.89781  0.57633  0.39727  1.0000
  H   H775      1.0  0.47711  0.95606  0.40560  1.0000
  H   H776      1.0  0.95777  0.54873  0.45432  1.0000
  H   H777      1.0  0.87949  0.50577  0.37066  1.0000
  C   C449      1.0  0.54590  0.71387  0.46052  1.0000
  C   C450      1.0  0.49995  0.51598  0.52715  1.0000
  H   H778      1.0  0.70730  0.55626  0.61337  1.0000
  C   C451      1.0  0.80687  0.96248  0.66209  1.0000
  C   C452      1.0  0.88219  0.54275  0.42154  1.0000
  H   H779      1.0  0.49854  0.57020  0.65564  1.0000
  H   H780      1.0  0.92861  0.58209  0.38792  1.0000
  H   H781      1.0  0.60526  0.50317  0.66587  1.0000
  S   S129      1.0  0.96884  0.56509  0.54811  1.0000
  C   C453      1.0  0.49329  0.50811  0.66413  1.0000
  H   H782      1.0  0.91606  0.74411  0.63749  1.0000
  H   H783      1.0  0.78532  0.94424  0.64427  1.0000
  C   C454      1.0  0.52612  0.96393  0.43717  1.0000
  C   C455      1.0  0.96683  0.51977  0.53030  1.0000
  C   C456      1.0  0.96633  0.55099  0.43172  1.0000
  S   S130      1.0  0.94651  0.67975  0.33829  1.0000
  C   C457      1.0  0.50759  0.55209  0.66972  1.0000
  Fe  Fe65      1.0  0.70591  0.70487  0.72543  1.0000
  S   S131      1.0  0.64868  0.67056  0.75493  1.0000
  S   S132      1.0  0.75313  0.67828  0.72412  1.0000
  Fe  Fe66      1.0  0.67815  0.77177  0.70869  1.0000
  S   S133      1.0  0.61890  0.74066  0.73583  1.0000
  C   C458      1.0  0.65202  0.89754  0.79805  1.0000
  Fe  Fe67      1.0  0.66169  0.73702  0.76908  1.0000
  S   S134      1.0  0.67021  0.76378  0.81445  1.0000
  Fe  Fe68      1.0  0.61101  0.67742  0.71926  1.0000
  S   S135      1.0  0.54641  0.62658  0.70114  1.0000
  S   S136      1.0  0.72184  0.77059  0.74239  1.0000
  C   C459      1.0  0.81152  0.61948  0.68370  1.0000
  Fe  Fe69      1.0  0.59406  0.88606  0.92721  1.0000
  S   S137      1.0  0.53484  0.85658  0.95494  1.0000
  S   S138      1.0  0.58465  0.85827  0.88216  1.0000
  Fe  Fe70      1.0  0.64868  0.94745  0.97510  1.0000
  H   H784      1.0  0.72808  0.93792  0.76697  1.0000
  Fe  Fe71      1.0  0.57874  0.85590  0.98870  1.0000
  H   H785      1.0  0.51354  0.63428  0.96629  1.0000
  Fe  Fe72      1.0  0.55460  0.92430  0.96994  1.0000
  H   H786      1.0  0.60613  0.67065  0.95137  1.0000
  S   S139      1.0  0.63655  0.88190  0.96037  1.0000
  S   S140      1.0  0.61102  0.95441  0.93947  1.0000
  H   H787      1.0  0.78840  0.95353  0.68218  1.0000
  C   C460      1.0  0.68840  0.93774  0.81299  1.0000
  H   H788      1.0  0.87708  0.70479  0.68184  1.0000
  C   C461      1.0  0.82481  0.60687  0.99691  1.0000
  H   H789      1.0  0.65888  0.97297  0.76771  1.0000
  H   H790      1.0  0.60622  0.79582  0.69319  1.0000
  H   H791      1.0  0.94361  0.59133  0.88852  1.0000
  H   H792      1.0  0.61044  0.90135  0.75037  1.0000
  H   H793      1.0  0.71374  0.87115  0.80005  1.0000
  H   H794      1.0  0.68242  0.57331  0.71382  1.0000
  C   C462      1.0  0.65517  0.59464  0.67984  1.0000
  H   H795      1.0  0.65777  0.97362  0.73021  1.0000
  H   H796      1.0  0.59155  0.78228  0.95108  1.0000
  H   H797      1.0  0.62452  0.53903  0.70939  1.0000
  C   C463      1.0  0.66873  0.72396  0.89271  1.0000
  C   C464      1.0  0.86873  0.63536  0.99099  1.0000
  H   H798      1.0  0.64057  0.74007  0.98099  1.0000
  H   H799      1.0  0.73049  0.81797  0.97637  1.0000
  H   H800      1.0  0.87579  0.68458  0.73168  1.0000
  C   C465      1.0  0.61865  0.82849  0.68537  1.0000
  C   C466      1.0  0.60616  0.88759  0.67155  1.0000
  C   C467      1.0  0.64532  0.78908  0.83321  1.0000
  C   C468      1.0  0.66827  0.81838  0.85512  1.0000
  C   C469      1.0  0.64981  0.83884  0.87087  1.0000
  C   C470      1.0  0.60788  0.83008  0.86502  1.0000
  C   C471      1.0  0.58483  0.80060  0.84320  1.0000
  C   C472      1.0  0.60326  0.78003  0.82752  1.0000
  H   H801      1.0  0.70095  0.82598  0.85954  1.0000
  H   H802      1.0  0.66843  0.86236  0.88696  1.0000
  H   H803      1.0  0.55251  0.79377  0.83830  1.0000
  H   H804      1.0  0.58488  0.75710  0.81107  1.0000
  C   C473      1.0  0.54472  0.54897  0.71147  1.0000
  C   C474      1.0  0.53327  0.57271  0.69340  1.0000
  H   H805      1.0  0.56384  0.56433  0.73007  1.0000
  H   H806      1.0  0.64824  0.73033  0.87810  1.0000
  H   H807      1.0  0.69459  0.72419  0.87953  1.0000
  H   H808      1.0  0.68547  0.62664  0.68019  1.0000
  H   H809      1.0  0.62210  0.89975  0.79973  1.0000
  S   S141      1.0  0.69959  0.83601  0.68607  1.0000
  H   H810      1.0  0.57815  0.73006  0.96608  1.0000
  N   N34       1.0  0.66010  0.76127  0.93797  1.0000
  C   C475      1.0  0.67817  0.80791  0.94696  1.0000
  C   C476      1.0  0.61559  0.74591  0.92615  1.0000
  C   C477      1.0  0.68948  0.75985  0.91541  1.0000
  C   C478      1.0  0.65882  0.73551  0.96364  1.0000
  C   C479      1.0  0.72572  0.83197  0.95671  1.0000
  C   C480      1.0  0.58277  0.74834  0.94622  1.0000
  C   C481      1.0  0.63953  0.68643  0.95948  1.0000
  H   H811      1.0  0.67535  0.82735  0.92949  1.0000
  H   H812      1.0  0.65945  0.81036  0.96489  1.0000
  H   H813      1.0  0.60026  0.71178  0.91885  1.0000
  H   H814      1.0  0.61780  0.76513  0.90698  1.0000
  H   H815      1.0  0.70514  0.79062  0.90302  1.0000
  H   H816      1.0  0.71652  0.75737  0.92515  1.0000
  H   H817      1.0  0.69172  0.74730  0.97225  1.0000
  H   H818      1.0  0.64683  0.59148  0.72549  1.0000
  H   H819      1.0  0.73510  0.86613  0.96170  1.0000
  H   H820      1.0  0.69937  0.96826  0.80119  1.0000
  C   C482      1.0  0.58408  0.82103  0.76347  1.0000
  H   H821      1.0  0.54643  0.61200  0.97709  1.0000
  H   H822      1.0  0.55092  0.73361  0.93557  1.0000
  C   C483      1.0  0.47286  0.49046  0.98840  1.0000
  H   H823      1.0  0.91039  0.76168  0.68467  1.0000
  H   H824      1.0  0.66012  0.67927  0.94556  1.0000
  H   H825      1.0  0.91842  0.78435  0.73570  1.0000
  C   C484      1.0  0.59070  0.84525  0.68173  1.0000
  N   N35       1.0  0.65980  0.88942  0.76784  1.0000
  H   H826      1.0  0.56895  0.78510  0.76335  1.0000
  H   H827      1.0  0.64934  0.69099  0.90160  1.0000
  C   C485      1.0  0.63355  0.84133  0.76194  1.0000
  S   S142      1.0  0.50965  0.95364  0.96998  1.0000
  H   H828      1.0  0.71116  0.90032  0.73883  1.0000
  H   H829      1.0  0.57140  0.82968  0.74469  1.0000
  C   C486      1.0  0.72387  0.87713  0.77758  1.0000
  H   H830      1.0  0.74823  0.83313  0.94017  1.0000
  H   H831      1.0  0.51108  0.69032  0.99367  1.0000
  H   H832      1.0  0.94735  0.50529  0.85716  1.0000
  N   N36       1.0  0.93395  0.72470  0.70763  1.0000
  H   H833      1.0  0.64816  0.90290  0.72533  1.0000
  C   C487      1.0  0.70634  0.90322  0.76188  1.0000
  C   C488      1.0  0.51422  0.60903  0.97968  1.0000
  H   H834      1.0  0.71304  0.84539  0.76710  1.0000
  H   H835      1.0  0.70388  0.97714  0.74697  1.0000
  H   H836      1.0  0.49032  0.57644  0.97180  1.0000
  C   C489      1.0  0.52992  0.50473  0.70607  1.0000
  H   H837      1.0  0.71652  0.93356  0.81753  1.0000
  H   H838      1.0  0.63836  0.67144  0.98031  1.0000
  H   H839      1.0  0.79236  0.62492  0.72617  1.0000
  C   C490      1.0  0.66842  0.96179  0.74857  1.0000
  C   C491      1.0  0.89157  0.75062  0.73850  1.0000
  C   C492      1.0  0.64515  0.91195  0.74735  1.0000
  H   H840      1.0  0.64161  0.83381  0.74074  1.0000
  C   C493      1.0  0.77554  0.66059  0.69695  1.0000
  H   H841      1.0  0.96539  0.49074  0.82602  1.0000
  H   H842      1.0  0.88791  0.62336  0.98090  1.0000
  C   C494      1.0  0.79322  0.63428  0.70432  1.0000
  H   H843      1.0  0.64168  0.82259  0.77708  1.0000
  H   H844      1.0  0.64600  0.86972  0.81173  1.0000
  C   C495      1.0  0.90582  0.71674  0.73328  1.0000
  H   H845      1.0  0.75966  0.89509  0.77684  1.0000
  H   H846      1.0  0.47970  0.49817  0.96621  1.0000
  H   H847      1.0  0.55688  0.82533  0.68697  1.0000
  H   H848      1.0  0.57353  0.83009  0.78309  1.0000
  H   H849      1.0  0.67619  0.94155  0.83380  1.0000
  S   S143      1.0  0.94223  0.71674  0.99035  1.0000
  C   C496      1.0  0.65190  0.57276  0.70861  1.0000
  H   H850      1.0  0.87914  0.74720  0.76043  1.0000
  H   H851      1.0  0.95191  0.57560  0.85455  1.0000
  C   C497      1.0  0.88747  0.67938  0.99775  1.0000
  S   S144      1.0  0.66735  0.70906  0.68929  1.0000
  C   C498      1.0  0.93729  0.68464  0.70207  1.0000
  H   H852      1.0  0.81043  0.57290  0.99142  1.0000
  H   H853      1.0  0.90475  0.65629  0.69776  1.0000
  H   H854      1.0  0.86459  0.74491  0.72421  1.0000
  H   H855      1.0  0.82439  0.59882  0.68975  1.0000
  C   C499      1.0  0.50371  0.48398  0.68255  1.0000
  C   C500      1.0  0.91135  0.73096  0.68264  1.0000
  H   H856      1.0  0.67747  0.53074  0.67526  1.0000
  C   C501      1.0  0.66255  0.85423  0.67928  1.0000
  H   H857      1.0  0.53925  0.53257  0.00125  1.0000
  H   H858      1.0  0.92159  0.71467  0.75291  1.0000
  H   H859      1.0  0.53820  0.48633  0.72043  1.0000
  C   C502      1.0  0.48246  0.96735  0.99618  1.0000
  H   H860      1.0  0.62863  0.60246  0.67954  1.0000
  H   H861      1.0  0.95681  0.68861  0.68285  1.0000
  H   H862      1.0  0.94287  0.66704  0.74630  1.0000
  C   C503      1.0  0.47768  0.68031  0.00017  1.0000
  H   H863      1.0  0.95468  0.63919  0.71965  1.0000
  H   H864      1.0  0.96639  0.50264  0.68401  1.0000
  C   C504      1.0  0.95824  0.67114  0.72536  1.0000
