data_image0
_chemical_formula_structural       HC2NHCH5CH2C3NHC2H5CH2C2H3SH7CH2C2SHCSCHCH4CH4CHC2HSH7SH2CHCHCH2CHCH3C2H4C2H3SHCHCHSCHC2H7CH4CHCHC2HCHCSH3C4HFeCH3CH2CFeSHFeSHCH2C3H3CH2CHNC4H3SHSCFeS2FeCHCSHC2SHCHCHCFeH3C4HNH5SCH2FeCHSHSHCHC2HCH3SHCH2SH2FeCHSHSH5C2H5CH2C4H2FeSFeS2FeCFeS2H2SCHCH3C2H3CH3NH5C4HCFeCH2CH3C2HC2NHFeS2FeS2C2H2C2H2C2H2C2H4CH6NH6CHCH3SH2CH8CH2CHSH2CHCHCHCFeCHCHS2CSHFeSFeHSH2CH3SFeC4H3CH6NCSC2H6C4H5CH3C2NHSH2CHCH4CSCHCFeCH2CH2C2H2SHNSH3CHFeHFeHCHSCNH3SH2CFeC3FeC2HSCHCHCH2CH2FeS2H4CH2FeSFeS2FeHFeCS2H4CHCH2C6H4SC3HC3H5SHFeCSHCH3C2H4CH2CHNH2CH5CH6C2HC2FeHC2HCHCHNH2CH3CNH2C2HSH3CHCH2FeH2FeCHSHFe2CSCHCSCH4CHCFeSFeSHCFeHS4HSHC8HSHCHC2H2SHCH2FeHNH2C2NH4NFeCHCHCHC2H3FeH3CHCH6CH3CHSHC2HC2SH3C2HC2FeHFeS3CFeHS2H4SHFeCSHCH3CN2SHC4H4CHCH2CHC2H3CH3CHCH2C2FeSH2CH3CH2CH2C2H2C2H2CH6FeHCH4C3HCHC2H2C2H2SHC2FeH4CH2SCNC3HC2H2CSHCSCH2CHC2HCH2C3H2CH8SH3CHSH5CHNH2CNCH2C2SH2CH4C3H2CH4SHC2HCH7CHC2HSCHCHC2H2NC2H4CHCHCSCHCHNHCHCHCHCH5CSH4C2H2SCH6CHCHCHSHCH4CH
_chemical_formula_sum              "H576 C336 N24 S96 Fe48"
_cell_length_a       35.648
_cell_length_b       35.3953
_cell_length_c       38.6422
_cell_angle_alpha    89.7215
_cell_angle_beta     88.3588
_cell_angle_gamma    120.621

_space_group_name_H-M_alt    "P 1"
_space_group_IT_number       1

loop_
  _space_group_symop_operation_xyz
  'x, y, z'

loop_
  _atom_site_type_symbol
  _atom_site_label
  _atom_site_symmetry_multiplicity
  _atom_site_fract_x
  _atom_site_fract_y
  _atom_site_fract_z
  _atom_site_occupancy
  H   H1        1.0  0.05268  0.44899  0.19083  1.0000
  C   C1        1.0  0.51036  0.24264  0.11502  1.0000
  C   C2        1.0  0.47942  0.49895  0.10797  1.0000
  N   N1        1.0  0.50433  0.16620  0.02446  1.0000
  H   H2        1.0  0.47178  0.40082  0.29840  1.0000
  C   C3        1.0  0.46823  0.42896  0.30620  1.0000
  H   H3        1.0  0.46609  0.16341  0.07016  1.0000
  H   H4        1.0  0.07091  0.50017  0.21080  1.0000
  H   H5        1.0  0.42920  0.52400  0.06113  1.0000
  H   H6        1.0  0.50588  0.51833  0.26077  1.0000
  H   H7        1.0  0.49773  0.41426  0.24166  1.0000
  C   C4        1.0  0.47244  0.10715  0.07444  1.0000
  H   H8        1.0  0.43259  0.25521  0.07666  1.0000
  H   H9        1.0  0.52623  0.13293  0.33780  1.0000
  C   C5        1.0  0.46840  0.14063  0.05154  1.0000
  C   C6        1.0  0.47185  0.41675  0.22816  1.0000
  C   C7        1.0  0.43161  0.37022  0.22617  1.0000
  N   N2        1.0  0.46481  0.45196  0.24324  1.0000
  H   H10       1.0  0.03272  0.48469  0.17763  1.0000
  C   C8        1.0  0.38790  0.43374  0.22369  1.0000
  C   C9        1.0  0.46481  0.26195  0.08291  1.0000
  H   H11       1.0  0.44512  0.49663  0.22388  1.0000
  H   H12       1.0  0.52424  0.08221  0.22468  1.0000
  H   H13       1.0  0.43509  0.18787  0.02678  1.0000
  H   H14       1.0  0.43606  0.12259  0.03940  1.0000
  H   H15       1.0  0.50051  0.45763  0.31182  1.0000
  C   C10       1.0  0.46919  0.23549  0.10747  1.0000
  H   H16       1.0  0.49868  0.12408  0.09325  1.0000
  H   H17       1.0  0.41453  0.36633  0.20167  1.0000
  C   C11       1.0  0.50897  0.49309  0.24598  1.0000
  C   C12       1.0  0.43800  0.46247  0.21974  1.0000
  H   H18       1.0  0.37566  0.44044  0.24830  1.0000
  H   H19       1.0  0.44162  0.08743  0.09003  1.0000
  H   H20       1.0  0.41024  0.41167  0.27946  1.0000
  S   S1        1.0  0.49275  0.32502  0.03279  1.0000
  H   H21       1.0  0.37325  0.44264  0.20242  1.0000
  H   H22       1.0  0.44033  0.46738  0.28950  1.0000
  H   H23       1.0  0.44033  0.20865  0.12014  1.0000
  H   H24       1.0  0.40822  0.36088  0.24842  1.0000
  H   H25       1.0  0.44241  0.34580  0.22686  1.0000
  H   H26       1.0  0.48518  0.42576  0.20106  1.0000
  H   H27       1.0  0.44718  0.47003  0.10763  1.0000
  C   C13       1.0  0.50157  0.29661  0.06604  1.0000
  H   H28       1.0  0.44699  0.46150  0.19203  1.0000
  H   H29       1.0  0.37574  0.39826  0.22193  1.0000
  C   C14       1.0  0.52812  0.06385  0.24533  1.0000
  C   C15       1.0  0.44401  0.44007  0.27922  1.0000
  S   S2        1.0  0.51276  0.20562  0.14422  1.0000
  H   H30       1.0  0.47807  0.08400  0.05935  1.0000
  C   C16       1.0  0.04183  0.47167  0.19987  1.0000
  S   S3        1.0  0.10585  0.52429  0.06227  1.0000
  C   C17       1.0  0.52392  0.03426  0.04714  1.0000
  H   H31       1.0  0.50742  0.47344  0.07131  1.0000
  C   C18       1.0  0.51346  0.50084  0.08729  1.0000
  H   H32       1.0  0.50691  0.03068  0.16890  1.0000
  H   H33       1.0  0.51502  0.23009  0.03788  1.0000
  H   H34       1.0  0.45593  0.47784  0.02337  1.0000
  H   H35       1.0  0.44892  0.41943  0.33111  1.0000
  C   C19       1.0  0.49139  0.02662  0.26042  1.0000
  H   H36       1.0  0.53158  0.48650  0.26058  1.0000
  H   H37       1.0  0.52311  0.29736  0.59765  1.0000
  H   H38       1.0  0.51246  0.13914  0.43343  1.0000
  H   H39       1.0  0.52439  0.15959  0.37636  1.0000
  C   C20       1.0  0.04820  0.49642  0.49623  1.0000
  H   H40       1.0  0.34980  0.46505  0.62432  1.0000
  C   C21       1.0  0.41747  0.52258  0.62344  1.0000
  C   C22       1.0  0.04294  0.45477  0.64820  1.0000
  H   H41       1.0  0.46948  0.06503  0.42568  1.0000
  S   S4        1.0  0.08880  0.49183  0.51749  1.0000
  H   H42       1.0  0.52559  0.06127  0.56016  1.0000
  H   H43       1.0  0.33110  0.50760  0.59356  1.0000
  H   H44       1.0  0.11604  0.49612  0.42732  1.0000
  H   H45       1.0  0.27772  0.50611  0.67668  1.0000
  H   H46       1.0  0.39232  0.46036  0.57262  1.0000
  H   H47       1.0  0.37569  0.47771  0.66472  1.0000
  H   H48       1.0  0.49136  0.48000  0.41299  1.0000
  S   S5        1.0  0.52824  0.47702  0.56642  1.0000
  H   H49       1.0  0.43189  0.46235  0.52087  1.0000
  H   H50       1.0  0.34084  0.47338  0.56427  1.0000
  C   C23       1.0  0.42485  0.49029  0.56878  1.0000
  H   H51       1.0  0.39165  0.45195  0.63276  1.0000
  C   C24       1.0  0.43642  0.49423  0.52967  1.0000
  H   H52       1.0  0.44744  0.48233  0.58198  1.0000
  C   C25       1.0  0.34745  0.50696  0.56886  1.0000
  H   H53       1.0  0.03662  0.44569  0.46008  1.0000
  H   H54       1.0  0.07755  0.46917  0.63920  1.0000
  C   C26       1.0  0.38138  0.47653  0.63640  1.0000
  H   H55       1.0  0.49103  0.47890  0.63241  1.0000
  C   C27       1.0  0.51948  0.51107  0.62752  1.0000
  H   H56       1.0  0.43124  0.48601  0.38742  1.0000
  H   H57       1.0  0.33179  0.51406  0.54731  1.0000
  H   H58       1.0  0.47121  0.51903  0.52389  1.0000
  C   C28       1.0  0.46342  0.50284  0.37499  1.0000
  C   C29       1.0  0.53189  0.04300  0.54081  1.0000
  H   H59       1.0  0.41491  0.50137  0.51426  1.0000
  H   H60       1.0  0.49351  0.03930  0.44810  1.0000
  H   H61       1.0  0.25144  0.52490  0.62396  1.0000
  H   H62       1.0  0.04881  0.50566  0.61333  1.0000
  C   C30       1.0  0.49737  0.49937  0.38953  1.0000
  C   C31       1.0  0.49578  0.05685  0.42342  1.0000
  H   H63       1.0  0.52673  0.14948  0.49294  1.0000
  H   H64       1.0  0.50471  0.09195  0.48759  1.0000
  H   H65       1.0  0.04358  0.45553  0.67694  1.0000
  S   S6        1.0  0.52877  0.43299  0.47567  1.0000
  H   H66       1.0  0.10462  0.51901  0.39072  1.0000
  C   C32       1.0  0.51946  0.12813  0.36625  1.0000
  H   H67       1.0  0.48484  0.10211  0.37044  1.0000
  C   C33       1.0  0.12908  0.52616  0.41060  1.0000
  H   H68       1.0  0.53185  0.34053  0.54409  1.0000
  S   S7        1.0  0.52083  0.45241  0.90142  1.0000
  C   C34       1.0  0.50185  0.10031  0.99249  1.0000
  H   H69       1.0  0.41524  0.48819  0.00987  1.0000
  C   C35       1.0  0.48949  0.49063  0.85838  1.0000
  C   C36       1.0  0.49622  0.14063  0.99162  1.0000
  H   H70       1.0  0.42323  0.47118  0.94871  1.0000
  H   H71       1.0  0.52992  0.52454  0.01226  1.0000
  H   H72       1.0  0.41212  0.42767  0.97844  1.0000
  H   H73       1.0  0.46881  0.45779  0.84901  1.0000
  H   H74       1.0  0.47152  0.07036  0.00199  1.0000
  H   H75       1.0  0.50547  0.47593  0.74535  1.0000
  H   H76       1.0  0.51653  0.16211  0.96933  1.0000
  C   C37       1.0  0.44703  0.49212  0.00150  1.0000
  H   H77       1.0  0.44732  0.18186  0.98184  1.0000
  H   H78       1.0  0.46471  0.23475  0.99893  1.0000
  H   H79       1.0  0.46228  0.12800  0.98339  1.0000
  H   H80       1.0  0.46571  0.46044  0.96022  1.0000
  C   C38       1.0  0.48900  0.03597  0.76217  1.0000
  H   H81       1.0  0.52469  0.52287  0.96688  1.0000
  C   C39       1.0  0.51880  0.49764  0.88451  1.0000
  H   H82       1.0  0.46323  0.51982  0.82476  1.0000
  C   C40       1.0  0.45997  0.20187  0.00524  1.0000
  C   C41       1.0  0.43703  0.46177  0.97021  1.0000
  H   H83       1.0  0.51673  0.07751  0.71618  1.0000
  C   C42       1.0  0.52321  0.06907  0.74138  1.0000
  H   H84       1.0  0.50990  0.09417  0.96588  1.0000
  C   C43       1.0  0.50413  0.20772  0.01563  1.0000
  S   S8        1.0  0.52103  0.43965  0.00259  1.0000
  H   H85       1.0  0.52965  0.10530  0.00762  1.0000
  H   H86       1.0  0.52767  0.22639  0.99386  1.0000
  H   H87       1.0  0.51084  0.51767  0.77362  1.0000
  C   C44       1.0  0.52808  0.50124  0.76328  1.0000
  C   C45       1.0  0.05859  0.52450  0.90625  1.0000
  C   C46       1.0  0.48632  0.52567  0.84459  1.0000
  C   C47       1.0  0.50444  0.75287  0.29807  1.0000
  H   H88       1.0  0.51165  0.01129  0.12793  1.0000
  Fe  Fe1       1.0  0.10051  0.57813  0.08869  1.0000
  C   C48       1.0  0.52115  0.01305  0.15526  1.0000
  H   H89       1.0  0.28741  0.72674  0.24673  1.0000
  H   H90       1.0  0.09698  0.59505  0.23501  1.0000
  H   H91       1.0  0.10351  0.59339  0.17089  1.0000
  C   C49       1.0  0.07185  0.58103  0.18356  1.0000
  H   H92       1.0  0.42364  0.73494  0.26097  1.0000
  H   H93       1.0  0.27819  0.60350  0.05481  1.0000
  C   C50       1.0  0.36164  0.73330  0.30486  1.0000
  Fe  Fe2       1.0  0.17542  0.56164  0.07875  1.0000
  S   S9        1.0  0.16873  0.61247  0.10825  1.0000
  H   H94       1.0  0.31884  0.59463  0.03584  1.0000
  Fe  Fe3       1.0  0.18798  0.65003  0.05732  1.0000
  S   S10       1.0  0.23951  0.72218  0.05349  1.0000
  H   H95       1.0  0.34205  0.66471  0.29217  1.0000
  C   C51       1.0  0.31216  0.62064  0.04433  1.0000
  H   H96       1.0  0.32818  0.72545  0.31267  1.0000
  H   H97       1.0  0.47746  0.79802  0.22601  1.0000
  C   C52       1.0  0.25597  0.58584  0.18963  1.0000
  C   C53       1.0  0.23048  0.56867  0.16036  1.0000
  C   C54       1.0  0.24303  0.54951  0.13437  1.0000
  H   H98       1.0  0.24602  0.60045  0.20968  1.0000
  H   H99       1.0  0.20116  0.57023  0.15791  1.0000
  H   H100      1.0  0.37932  0.65921  0.13894  1.0000
  C   C55       1.0  0.37366  0.73516  0.03417  1.0000
  H   H101      1.0  0.41807  0.55533  0.03007  1.0000
  H   H102      1.0  0.51568  0.52817  0.19658  1.0000
  C   C56       1.0  0.44293  0.78995  0.22717  1.0000
  H   H103      1.0  0.34979  0.80231  0.31896  1.0000
  N   N3        1.0  0.33916  0.68405  0.08788  1.0000
  C   C57       1.0  0.48548  0.56688  0.02645  1.0000
  C   C58       1.0  0.42138  0.76514  0.26171  1.0000
  C   C59       1.0  0.06805  0.58193  0.21988  1.0000
  C   C60       1.0  0.34058  0.79985  0.29149  1.0000
  H   H104      1.0  0.29032  0.53178  0.11827  1.0000
  H   H105      1.0  0.39599  0.69628  0.30971  1.0000
  H   H106      1.0  0.30459  0.69253  0.04611  1.0000
  S   S11       1.0  0.49403  0.59945  0.24119  1.0000
  H   H107      1.0  0.44342  0.82142  0.22478  1.0000
  S   S12       1.0  0.38753  0.53889  0.23478  1.0000
  C   C61       1.0  0.38153  0.69126  0.14307  1.0000
  Fe  Fe4       1.0  0.38633  0.60147  0.23258  1.0000
  S   S13       1.0  0.44172  0.63456  0.19339  1.0000
  S   S14       1.0  0.32664  0.60787  0.22907  1.0000
  Fe  Fe5       1.0  0.43511  0.56931  0.27728  1.0000
  C   C62       1.0  0.28068  0.54690  0.13815  1.0000
  H   H108      1.0  0.41356  0.71319  0.15458  1.0000
  C   C63       1.0  0.49603  0.00247  0.28721  1.0000
  S   S15       1.0  0.42805  0.62879  0.27880  1.0000
  H   H109      1.0  0.42713  0.76930  0.20458  1.0000
  C   C64       1.0  0.33494  0.71207  0.06063  1.0000
  C   C65       1.0  0.47089  0.52796  0.34457  1.0000
  S   S16       1.0  0.44946  0.95504  0.30468  1.0000
  H   H110      1.0  0.38097  0.74416  0.11525  1.0000
  C   C66       1.0  0.34707  0.72295  0.24164  1.0000
  H   H111      1.0  0.38325  0.75695  0.32428  1.0000
  C   C67       1.0  0.37856  0.71239  0.10893  1.0000
  H   H112      1.0  0.35599  0.68680  0.16251  1.0000
  C   C68       1.0  0.44301  0.55579  0.04666  1.0000
  Fe  Fe6       1.0  0.44627  0.57361  0.19825  1.0000
  H   H113      1.0  0.47392  0.72293  0.29448  1.0000
  H   H114      1.0  0.31606  0.72668  0.13477  1.0000
  H   H115      1.0  0.35527  0.73972  0.21579  1.0000
  C   C69       1.0  0.50755  0.78246  0.32384  1.0000
  C   C70       1.0  0.29413  0.58405  0.19302  1.0000
  C   C71       1.0  0.29746  0.70190  0.24722  1.0000
  C   C72       1.0  0.51254  0.54961  0.32872  1.0000
  H   H116      1.0  0.47939  0.77508  0.34020  1.0000
  N   N4        1.0  0.37496  0.75401  0.26899  1.0000
  H   H117      1.0  0.27392  0.67923  0.15694  1.0000
  H   H118      1.0  0.29802  0.63871  0.12875  1.0000
  H   H119      1.0  0.49952  0.62559  0.34203  1.0000
  H   H120      1.0  0.26281  0.69822  0.11744  1.0000
  H   H121      1.0  0.40379  0.75995  0.04665  1.0000
  S   S17       1.0  0.11911  0.62087  0.04040  1.0000
  C   C73       1.0  0.34500  0.64843  0.07189  1.0000
  H   H122      1.0  0.28114  0.67942  0.22558  1.0000
  H   H123      1.0  0.26902  0.64234  0.09446  1.0000
  Fe  Fe7       1.0  0.48367  0.65729  0.23998  1.0000
  C   C74       1.0  0.30638  0.56441  0.16727  1.0000
  H   H124      1.0  0.28511  0.68154  0.27134  1.0000
  S   S18       1.0  0.21355  0.53037  0.09630  1.0000
  H   H125      1.0  0.34862  0.67715  0.33702  1.0000
  S   S19       1.0  0.19947  0.60165  0.02941  1.0000
  H   H126      1.0  0.33558  0.56260  0.16980  1.0000
  C   C75       1.0  0.28752  0.69378  0.13078  1.0000
  H   H127      1.0  0.35395  0.69584  0.23875  1.0000
  C   C76       1.0  0.29797  0.66265  0.11024  1.0000
  C   C77       1.0  0.37393  0.79632  0.26733  1.0000
  H   H128      1.0  0.40916  0.72212  0.09354  1.0000
  C   C78       1.0  0.52852  0.57133  0.12938  1.0000
  H   H129      1.0  0.40600  0.82502  0.27400  1.0000
  H   H130      1.0  0.33097  0.73839  0.07274  1.0000
  H   H131      1.0  0.30680  0.77229  0.28922  1.0000
  S   S20       1.0  0.44236  0.53062  0.15336  1.0000
  H   H132      1.0  0.34250  0.62472  0.09218  1.0000
  C   C79       1.0  0.36237  0.69049  0.31061  1.0000
  H   H133      1.0  0.45065  0.58108  0.06654  1.0000
  H   H134      1.0  0.34085  0.83062  0.28496  1.0000
  S   S21       1.0  0.44744  0.85014  0.33996  1.0000
  H   H135      1.0  0.36863  0.80369  0.24046  1.0000
  H   H136      1.0  0.44268  0.78540  0.28283  1.0000
  Fe  Fe8       1.0  0.45612  0.91670  0.34871  1.0000
  C   C80       1.0  0.48674  0.53417  0.12898  1.0000
  H   H137      1.0  0.31193  0.80722  0.03337  1.0000
  S   S22       1.0  0.42755  0.53159  0.32712  1.0000
  H   H138      1.0  0.37823  0.66220  0.05975  1.0000
  S   S23       1.0  0.03725  0.55918  0.11842  1.0000
  H   H139      1.0  0.51888  0.56962  0.30566  1.0000
  H   H140      1.0  0.50491  0.97970  0.16693  1.0000
  H   H141      1.0  0.50627  0.56413  0.04612  1.0000
  H   H142      1.0  0.49263  0.01467  0.06060  1.0000
  H   H143      1.0  0.45927  0.01635  0.25120  1.0000
  C   C81       1.0  0.03456  0.56365  0.16383  1.0000
  C   C82       1.0  0.50869  0.65968  0.34892  1.0000
  H   H144      1.0  0.51205  0.67577  0.32328  1.0000
  H   H145      1.0  0.53041  0.98510  0.21966  1.0000
  H   H146      1.0  0.31488  0.64023  0.02093  1.0000
  H   H147      1.0  0.50243  0.60243  0.01916  1.0000
  H   H148      1.0  0.37985  0.71169  0.01994  1.0000
  C   C83       1.0  0.07365  0.59394  0.66832  1.0000
  H   H149      1.0  0.50833  0.53868  0.67373  1.0000
  H   H150      1.0  0.15659  0.67044  0.42676  1.0000
  C   C84       1.0  0.25311  0.72599  0.48647  1.0000
  C   C85       1.0  0.26093  0.76113  0.46451  1.0000
  C   C86       1.0  0.29018  0.77325  0.43580  1.0000
  C   C87       1.0  0.27453  0.70283  0.47933  1.0000
  H   H151      1.0  0.29594  0.80030  0.41890  1.0000
  H   H152      1.0  0.26980  0.67651  0.49646  1.0000
  Fe  Fe9       1.0  0.13853  0.54855  0.54831  1.0000
  S   S24       1.0  0.12890  0.60080  0.57231  1.0000
  Fe  Fe10      1.0  0.23240  0.58986  0.57232  1.0000
  S   S25       1.0  0.22986  0.64516  0.59790  1.0000
  S   S26       1.0  0.29766  0.59404  0.57140  1.0000
  Fe  Fe11      1.0  0.16314  0.59308  0.61748  1.0000
  C   C88       1.0  0.48531  0.60979  0.59995  1.0000
  Fe  Fe12      1.0  0.19675  0.64742  0.55016  1.0000
  S   S27       1.0  0.21651  0.71172  0.52249  1.0000
  S   S28       1.0  0.20361  0.59550  0.52302  1.0000
  H   H153      1.0  0.24437  0.77911  0.46974  1.0000
  H   H154      1.0  0.12464  0.65636  0.48375  1.0000
  S   S29       1.0  0.51403  0.93984  0.38204  1.0000
  C   C89       1.0  0.31401  0.58141  0.61012  1.0000
  H   H155      1.0  0.08929  0.61271  0.64475  1.0000
  C   C90       1.0  0.19598  0.62307  0.39919  1.0000
  H   H156      1.0  0.36189  0.67819  0.66519  1.0000
  H   H157      1.0  0.25279  0.67719  0.37266  1.0000
  H   H158      1.0  0.05198  0.54778  0.52817  1.0000
  C   C91       1.0  0.30001  0.53456  0.66083  1.0000
  C   C92       1.0  0.15519  0.64192  0.44038  1.0000
  H   H159      1.0  0.46872  0.65619  0.39590  1.0000
  H   H160      1.0  0.06493  0.60835  0.40383  1.0000
  H   H161      1.0  0.47911  0.57913  0.55104  1.0000
  C   C93       1.0  0.47272  0.56830  0.57876  1.0000
  H   H162      1.0  0.46546  0.68600  0.35916  1.0000
  H   H163      1.0  0.41513  0.78957  0.48623  1.0000
  H   H164      1.0  0.08633  0.61016  0.46004  1.0000
  N   N5        1.0  0.15104  0.60782  0.41487  1.0000
  H   H165      1.0  0.18639  0.65549  0.45406  1.0000
  H   H166      1.0  0.52738  0.67272  0.42085  1.0000
  H   H167      1.0  0.49702  0.55852  0.58447  1.0000
  H   H168      1.0  0.52448  0.60609  0.43535  1.0000
  H   H169      1.0  0.15975  0.56869  0.45354  1.0000
  C   C94       1.0  0.34361  0.56055  0.67014  1.0000
  C   C95       1.0  0.49715  0.00894  0.52326  1.0000
  C   C96       1.0  0.34560  0.87896  0.50340  1.0000
  C   C97       1.0  0.46879  0.65777  0.36739  1.0000
  H   H170      1.0  0.46300  0.62254  0.59637  1.0000
  C   C98       1.0  0.37517  0.81480  0.50735  1.0000
  Fe  Fe13      1.0  0.50145  0.87090  0.37651  1.0000
  C   C99       1.0  0.07255  0.58302  0.39524  1.0000
  H   H171      1.0  0.43886  0.62698  0.36027  1.0000
  H   H172      1.0  0.46412  0.98964  0.40576  1.0000
  C   C100      1.0  0.21944  0.66901  0.38137  1.0000
  H   H173      1.0  0.40552  0.61754  0.65613  1.0000
  H   H174      1.0  0.12308  0.60565  0.48894  1.0000
  H   H175      1.0  0.51857  0.63619  0.59134  1.0000
  C   C101      1.0  0.12163  0.60366  0.38600  1.0000
  C   C102      1.0  0.13617  0.56466  0.43349  1.0000
  H   H176      1.0  0.43105  0.81221  0.52819  1.0000
  C   C103      1.0  0.11981  0.62703  0.46960  1.0000
  C   C104      1.0  0.50494  0.98527  0.49782  1.0000
  N   N6        1.0  0.36005  0.82687  0.54023  1.0000
  H   H177      1.0  0.24473  0.61343  0.66621  1.0000
  Fe  Fe14      1.0  0.46476  0.91154  0.42657  1.0000
  S   S30       1.0  0.40717  0.89265  0.39337  1.0000
  S   S31       1.0  0.46024  0.94333  0.47619  1.0000
  Fe  Fe15      1.0  0.40412  0.82835  0.38798  1.0000
  S   S32       1.0  0.34366  0.76098  0.39045  1.0000
  S   S33       1.0  0.45788  0.84476  0.42437  1.0000
  C   C105      1.0  0.31078  0.74939  0.42831  1.0000
  C   C106      1.0  0.30258  0.71394  0.44997  1.0000
  H   H178      1.0  0.31835  0.69531  0.44424  1.0000
  H   H179      1.0  0.38009  0.63509  0.60311  1.0000
  C   C107      1.0  0.40251  0.79265  0.51200  1.0000
  C   C108      1.0  0.32821  0.84084  0.53021  1.0000
  H   H180      1.0  0.13195  0.63654  0.37447  1.0000
  H   H181      1.0  0.41687  0.84870  0.57137  1.0000
  C   C109      1.0  0.35753  0.60715  0.61930  1.0000
  C   C110      1.0  0.37208  0.59716  0.64940  1.0000
  H   H182      1.0  0.31566  0.85075  0.55275  1.0000
  H   H183      1.0  0.36275  0.72105  0.64019  1.0000
  C   C111      1.0  0.33666  0.78594  0.56297  1.0000
  C   C112      1.0  0.31370  0.78851  0.59645  1.0000
  H   H184      1.0  0.34685  0.79229  0.49187  1.0000
  H   H185      1.0  0.38237  0.75864  0.52266  1.0000
  H   H186      1.0  0.31140  0.75809  0.54802  1.0000
  H   H187      1.0  0.35960  0.77550  0.57156  1.0000
  C   C113      1.0  0.28505  0.54522  0.63109  1.0000
  H   H188      1.0  0.33750  0.81074  0.61524  1.0000
  H   H189      1.0  0.29605  0.75536  0.60907  1.0000
  H   H190      1.0  0.28861  0.79734  0.59157  1.0000
  H   H191      1.0  0.41515  0.90087  0.60438  1.0000
  H   H192      1.0  0.39807  0.57080  0.58109  1.0000
  H   H193      1.0  0.29851  0.81259  0.51967  1.0000
  N   N7        1.0  0.42675  0.53000  0.58480  1.0000
  H   H194      1.0  0.42383  0.88569  0.53734  1.0000
  H   H195      1.0  0.22359  0.69521  0.39918  1.0000
  H   H196      1.0  0.37635  0.90790  0.51140  1.0000
  H   H197      1.0  0.32121  0.88940  0.50088  1.0000
  H   H198      1.0  0.39546  0.84428  0.49034  1.0000
  H   H199      1.0  0.35041  0.86883  0.47728  1.0000
  C   C114      1.0  0.39245  0.89233  0.58278  1.0000
  H   H200      1.0  0.35937  0.87781  0.59471  1.0000
  C   C115      1.0  0.39971  0.86275  0.55739  1.0000
  H   H201      1.0  0.40169  0.92423  0.56992  1.0000
  H   H202      1.0  0.10507  0.55297  0.44817  1.0000
  H   H203      1.0  0.15994  0.53151  0.39834  1.0000
  S   S34       1.0  0.14589  0.58566  0.67475  1.0000
  H   H204      1.0  0.44706  0.52832  0.63682  1.0000
  H   H205      1.0  0.29082  0.70331  0.66560  1.0000
  C   C116      1.0  0.39634  0.54203  0.56822  1.0000
  H   H206      1.0  0.48713  0.60397  0.62792  1.0000
  H   H207      1.0  0.19487  0.60012  0.37915  1.0000
  H   H208      1.0  0.21803  0.62351  0.41934  1.0000
  H   H209      1.0  0.49670  0.59613  0.39580  1.0000
  H   H210      1.0  0.45891  0.02528  0.37687  1.0000
  H   H211      1.0  0.46411  0.00118  0.52925  1.0000
  H   H212      1.0  0.32077  0.66584  0.63366  1.0000
  H   H213      1.0  0.40679  0.55406  0.54099  1.0000
  C   C117      1.0  0.34085  0.68915  0.65380  1.0000
  H   H214      1.0  0.29108  0.61003  0.67465  1.0000
  H   H215      1.0  0.40943  0.54671  0.63436  1.0000
  C   C118      1.0  0.31193  0.69523  0.68101  1.0000
  H   H216      1.0  0.12504  0.58558  0.36375  1.0000
  S   S35       1.0  0.16810  0.53730  0.59508  1.0000
  H   H217      1.0  0.05988  0.55625  0.41491  1.0000
  H   H218      1.0  0.05353  0.56728  0.37192  1.0000
  C   C119      1.0  0.48232  0.02322  0.39402  1.0000
  H   H219      1.0  0.20264  0.66997  0.35798  1.0000
  C   C120      1.0  0.52911  0.54492  0.65091  1.0000
  H   H220      1.0  0.51713  0.73507  0.39626  1.0000
  C   C121      1.0  0.52908  0.61536  0.40738  1.0000
  H   H221      1.0  0.50927  0.02483  0.37806  1.0000
  C   C122      1.0  0.03639  0.52683  0.50659  1.0000
  Fe  Fe16      1.0  0.43018  0.59212  0.72535  1.0000
  C   C123      1.0  0.50848  0.84163  0.80927  1.0000
  H   H222      1.0  0.42529  0.78106  0.88891  1.0000
  C   C124      1.0  0.49702  0.02441  0.79483  1.0000
  H   H223      1.0  0.47181  0.90368  0.76550  1.0000
  S   S36       1.0  0.44119  0.63251  0.77274  1.0000
  S   S37       1.0  0.44733  0.87978  0.85798  1.0000
  C   C125      1.0  0.42543  0.68376  0.87967  1.0000
  S   S38       1.0  0.42103  0.92992  0.91517  1.0000
  H   H224      1.0  0.22554  0.63564  0.73828  1.0000
  Fe  Fe17      1.0  0.41132  0.86248  0.90931  1.0000
  S   S39       1.0  0.35045  0.79498  0.91223  1.0000
  Fe  Fe18      1.0  0.46339  0.94896  0.86631  1.0000
  H   H225      1.0  0.33351  0.62901  0.87035  1.0000
  S   S40       1.0  0.46974  0.87653  0.93907  1.0000
  H   H226      1.0  0.36498  0.68299  0.91969  1.0000
  H   H227      1.0  0.37347  0.74339  0.80219  1.0000
  C   C126      1.0  0.43020  0.55702  0.96138  1.0000
  H   H228      1.0  0.28847  0.63634  0.75819  1.0000
  H   H229      1.0  0.35289  0.63596  0.75442  1.0000
  H   H230      1.0  0.07447  0.71836  0.87740  1.0000
  S   S41       1.0  0.48807  0.97353  0.99644  1.0000
  Fe  Fe19      1.0  0.48248  0.94567  0.94239  1.0000
  C   C127      1.0  0.32994  0.80253  0.98043  1.0000
  C   C128      1.0  0.32044  0.77544  0.95183  1.0000
  C   C129      1.0  0.28607  0.73169  0.95457  1.0000
  C   C130      1.0  0.26107  0.71514  0.98559  1.0000
  H   H231      1.0  0.35637  0.83635  0.97853  1.0000
  H   H232      1.0  0.27855  0.71059  0.93254  1.0000
  H   H233      1.0  0.23449  0.68151  0.98726  1.0000
  C   C131      1.0  0.43872  0.75883  0.89124  1.0000
  H   H234      1.0  0.16463  0.67436  0.96312  1.0000
  H   H235      1.0  0.42287  0.67336  0.90728  1.0000
  H   H236      1.0  0.41711  0.74486  0.94623  1.0000
  H   H237      1.0  0.47572  0.81775  0.76132  1.0000
  H   H238      1.0  0.48130  0.67508  0.87274  1.0000
  H   H239      1.0  0.20773  0.57012  0.72122  1.0000
  N   N8        1.0  0.28441  0.65731  0.70603  1.0000
  C   C132      1.0  0.40718  0.72289  0.83717  1.0000
  S   S42       1.0  0.36155  0.54655  0.70761  1.0000
  C   C133      1.0  0.34786  0.64998  0.73041  1.0000
  C   C134      1.0  0.38910  0.75295  0.82760  1.0000
  H   H240      1.0  0.35464  0.71980  0.89748  1.0000
  H   H241      1.0  0.51322  0.95322  0.78348  1.0000
  H   H242      1.0  0.38929  0.69156  0.82303  1.0000
  H   H243      1.0  0.08655  0.53247  0.88942  1.0000
  H   H244      1.0  0.22764  0.70532  0.74305  1.0000
  H   H245      1.0  0.12185  0.76310  0.89632  1.0000
  C   C135      1.0  0.27010  0.74231  0.01408  1.0000
  C   C136      1.0  0.47420  0.55879  0.96301  1.0000
  C   C137      1.0  0.09459  0.57741  0.68806  1.0000
  C   C138      1.0  0.51242  0.56798  0.85697  1.0000
  H   H246      1.0  0.41573  0.78785  0.82592  1.0000
  H   H247      1.0  0.36371  0.75050  0.84615  1.0000
  H   H248      1.0  0.32002  0.66658  0.84980  1.0000
  H   H249      1.0  0.22497  0.65798  0.69719  1.0000
  H   H250      1.0  0.27783  0.73452  0.71861  1.0000
  C   C139      1.0  0.09119  0.70307  0.92784  1.0000
  H   H251      1.0  0.12676  0.72140  0.87643  1.0000
  H   H252      1.0  0.40474  0.65285  0.86573  1.0000
  H   H253      1.0  0.49847  0.86547  0.81224  1.0000
  C   C140      1.0  0.05242  0.62217  0.87030  1.0000
  C   C141      1.0  0.24651  0.66189  0.71891  1.0000
  N   N9        1.0  0.08477  0.65756  0.92944  1.0000
  H   H254      1.0  0.37881  0.68073  0.72315  1.0000
  S   S43       1.0  0.47652  0.56965  0.74084  1.0000
  H   H255      1.0  0.47620  0.70485  0.83796  1.0000
  H   H256      1.0  0.29674  0.64266  0.89133  1.0000
  C   C142      1.0  0.49613  0.81496  0.78013  1.0000
  H   H257      1.0  0.47868  0.54376  0.93916  1.0000
  C   C143      1.0  0.07427  0.55360  0.71885  1.0000
  H   H258      1.0  0.27541  0.71003  0.76069  1.0000
  H   H259      1.0  0.07217  0.60646  0.86535  1.0000
  H   H260      1.0  0.13260  0.66604  0.88890  1.0000
  H   H261      1.0  0.43200  0.58616  0.97369  1.0000
  C   C144      1.0  0.10392  0.72708  0.89228  1.0000
  S   S44       1.0  0.50862  0.61251  0.84093  1.0000
  C   C145      1.0  0.16691  0.68608  0.93603  1.0000
  H   H262      1.0  0.52234  0.91227  0.71525  1.0000
  C   C146      1.0  0.32699  0.65610  0.87471  1.0000
  Fe  Fe20      1.0  0.12918  0.56945  0.01544  1.0000
  C   C147      1.0  0.12474  0.65671  0.91668  1.0000
  H   H263      1.0  0.10199  0.66752  0.98351  1.0000
  H   H264      1.0  0.25708  0.56939  0.73103  1.0000
  C   C148      1.0  0.47268  0.70035  0.86651  1.0000
  H   H265      1.0  0.33383  0.72552  0.69529  1.0000
  H   H266      1.0  0.44046  0.73889  0.82490  1.0000
  C   C149      1.0  0.50156  0.93576  0.75889  1.0000
  C   C150      1.0  0.25834  0.70570  0.73619  1.0000
  H   H267      1.0  0.11519  0.72511  0.94684  1.0000
  H   H268      1.0  0.34115  0.62504  0.71077  1.0000
  S   S45       1.0  0.45338  0.98167  0.81959  1.0000
  H   H269      1.0  0.47074  0.77649  0.87697  1.0000
  N   N10       1.0  0.40895  0.71516  0.87529  1.0000
  S   S46       1.0  0.11637  0.55231  0.95875  1.0000
  H   H270      1.0  0.49123  0.95402  0.74202  1.0000
  H   H271      1.0  0.46294  0.73751  0.93491  1.0000
  H   H272      1.0  0.36594  0.75304  0.01458  1.0000
  C   C151      1.0  0.36447  0.69501  0.89313  1.0000
  H   H273      1.0  0.17602  0.72106  0.93552  1.0000
  Fe  Fe21      1.0  0.49275  0.61632  0.78503  1.0000
  H   H274      1.0  0.07840  0.61225  0.97034  1.0000
  Fe  Fe22      1.0  0.49357  0.68773  0.74032  1.0000
  H   H275      1.0  0.32548  0.69178  0.74863  1.0000
  C   C152      1.0  0.44736  0.75714  0.92990  1.0000
  H   H276      1.0  0.06733  0.65402  0.85618  1.0000
  S   S47       1.0  0.49225  0.75087  0.73892  1.0000
  C   C153      1.0  0.50963  0.78443  0.77539  1.0000
  N   N11       1.0  0.48176  0.53970  0.99517  1.0000
  H   H277      1.0  0.49686  0.73092  0.87905  1.0000
  H   H278      1.0  0.47051  0.79106  0.93818  1.0000
  H   H279      1.0  0.19421  0.68438  0.92306  1.0000
  S   S48       1.0  0.52571  0.96921  0.89362  1.0000
  H   H280      1.0  0.49950  0.59409  0.95952  1.0000
  H   H281      1.0  0.22702  0.54332  0.69367  1.0000
  C   C154      1.0  0.06386  0.53037  0.94211  1.0000
  Fe  Fe23      1.0  0.50661  0.89814  0.88783  1.0000
  C   C155      1.0  0.30470  0.78600  0.01143  1.0000
  C   C156      1.0  0.31014  0.65883  0.73685  1.0000
  C   C157      1.0  0.26546  0.61424  0.68758  1.0000
  Fe  Fe24      1.0  0.52652  0.62902  0.71005  1.0000
  C   C158      1.0  0.52464  0.54117  0.99006  1.0000
  C   C159      1.0  0.07645  0.64247  0.96698  1.0000
  H   H282      1.0  0.06069  0.70214  0.93641  1.0000
  S   S49       1.0  0.47942  0.64851  0.69200  1.0000
  C   C160      1.0  0.53094  0.02157  0.01431  1.0000
  H   H283      1.0  0.11853  0.62256  0.91826  1.0000
  C   C161      1.0  0.23790  0.57242  0.71024  1.0000
  H   H284      1.0  0.09041  0.54085  0.73425  1.0000
  C   C162      1.0  0.04549  0.62571  0.90949  1.0000
  H   H285      1.0  0.42199  0.55658  0.93378  1.0000
  H   H286      1.0  0.45617  0.01906  0.75284  1.0000
  C   C163      1.0  0.03274  0.54555  0.72956  1.0000
  H   H287      1.0  0.40251  0.52674  0.97313  1.0000
  H   H288      1.0  0.57161  0.33134  0.06064  1.0000
  Fe  Fe25      1.0  0.87824  0.43428  0.32251  1.0000
  S   S50       1.0  0.89021  0.49244  0.29030  1.0000
  S   S51       1.0  0.83878  0.36487  0.30295  1.0000
  H   H289      1.0  0.58368  0.06149  0.13392  1.0000
  H   H290      1.0  0.70066  0.10773  0.15527  1.0000
  H   H291      1.0  0.00270  0.47673  0.24131  1.0000
  H   H292      1.0  0.65517  0.34132  0.10518  1.0000
  C   C164      1.0  0.54810  0.17989  0.03926  1.0000
  H   H293      1.0  0.65308  0.10403  0.17519  1.0000
  H   H294      1.0  0.95745  0.35537  0.27168  1.0000
  Fe  Fe26      1.0  0.62963  0.17330  0.11398  1.0000
  S   S52       1.0  0.63975  0.14555  0.06407  1.0000
  Fe  Fe27      1.0  0.67114  0.25383  0.16089  1.0000
  S   S53       1.0  0.61361  0.22433  0.19835  1.0000
  S   S54       1.0  0.72662  0.32332  0.16837  1.0000
  Fe  Fe28      1.0  0.61518  0.16199  0.19249  1.0000
  H   H295      1.0  0.79803  0.46087  0.10996  1.0000
  Fe  Fe29      1.0  0.57413  0.20366  0.15049  1.0000
  C   C165      1.0  0.65768  0.30403  0.30013  1.0000
  S   S55       1.0  0.67583  0.19318  0.15782  1.0000
  S   S56       1.0  0.63123  0.23762  0.11322  1.0000
  H   H296      1.0  0.68999  0.37941  0.15771  1.0000
  H   H297      1.0  0.71928  0.46491  0.11378  1.0000
  H   H298      1.0  0.98979  0.41406  0.15140  1.0000
  H   H299      1.0  0.72912  0.31119  0.34257  1.0000
  C   C166      1.0  0.74585  0.48698  0.06238  1.0000
  H   H300      1.0  0.74144  0.46283  0.28470  1.0000
  C   C167      1.0  0.96454  0.37648  0.20230  1.0000
  H   H301      1.0  0.75299  0.43815  0.14167  1.0000
  H   H302      1.0  0.65414  0.28265  0.27795  1.0000
  C   C168      1.0  0.75686  0.33422  0.20620  1.0000
  C   C169      1.0  0.75304  0.30026  0.22749  1.0000
  C   C170      1.0  0.77864  0.31005  0.25688  1.0000
  C   C171      1.0  0.80761  0.35379  0.26556  1.0000
  C   C172      1.0  0.81090  0.38766  0.24449  1.0000
  C   C173      1.0  0.78584  0.37791  0.21486  1.0000
  H   H303      1.0  0.73080  0.26642  0.22106  1.0000
  H   H304      1.0  0.77577  0.28358  0.27304  1.0000
  H   H305      1.0  0.83310  0.42140  0.25062  1.0000
  H   H306      1.0  0.78901  0.40439  0.19856  1.0000
  S   S57       1.0  0.56950  0.13793  0.14836  1.0000
  C   C174      1.0  0.93259  0.39673  0.25064  1.0000
  C   C175      1.0  0.66209  0.37564  0.10691  1.0000
  C   C176      1.0  0.70999  0.45251  0.08732  1.0000
  H   H307      1.0  0.96335  0.45197  0.17276  1.0000
  C   C177      1.0  0.59736  0.09781  0.04534  1.0000
  C   C178      1.0  0.56970  0.07712  0.25704  1.0000
  C   C179      1.0  0.89745  0.39871  0.17967  1.0000
  H   H308      1.0  0.57889  0.06301  0.17961  1.0000
  H   H309      1.0  0.92694  0.42253  0.26180  1.0000
  H   H310      1.0  0.64601  0.36646  0.33369  1.0000
  H   H311      1.0  0.67887  0.07694  0.19487  1.0000
  H   H312      1.0  0.65694  0.28598  0.32388  1.0000
  S   S58       1.0  0.61693  0.12233  0.23802  1.0000
  H   H313      1.0  0.75484  0.42850  0.25867  1.0000
  Fe  Fe30      1.0  0.95768  0.52459  0.31105  1.0000
  C   C180      1.0  0.68867  0.39309  0.04689  1.0000
  S   S59       1.0  0.60614  0.44014  0.03406  1.0000
  H   H314      1.0  0.77529  0.48399  0.06067  1.0000
  C   C181      1.0  0.53331  0.51555  0.21142  1.0000
  H   H315      1.0  0.69614  0.33462  0.04689  1.0000
  H   H316      1.0  0.63353  0.36098  0.15892  1.0000
  H   H317      1.0  0.93598  0.45665  0.20912  1.0000
  C   C182      1.0  0.75706  0.41961  0.31520  1.0000
  C   C183      1.0  0.94859  0.37968  0.28035  1.0000
  H   H318      1.0  0.57943  0.28315  0.10429  1.0000
  H   H319      1.0  0.89974  0.36892  0.24472  1.0000
  H   H320      1.0  0.67972  0.45357  0.08302  1.0000
  H   H321      1.0  0.63239  0.37536  0.09822  1.0000
  C   C184      1.0  0.66976  0.08541  0.17001  1.0000
  H   H322      1.0  0.98611  0.36909  0.21760  1.0000
  H   H323      1.0  0.71674  0.41334  0.02856  1.0000
  C   C185      1.0  0.55677  0.07239  0.06246  1.0000
  H   H324      1.0  0.67090  0.41801  0.15174  1.0000
  N   N12       1.0  0.71210  0.38085  0.32318  1.0000
  H   H325      1.0  0.55031  0.15144  0.04851  1.0000
  H   H326      1.0  0.76193  0.41085  0.06806  1.0000
  C   C186      1.0  0.57428  0.05324  0.28402  1.0000
  H   H327      1.0  0.87140  0.38137  0.19992  1.0000
  H   H328      1.0  0.88648  0.41635  0.16264  1.0000
  H   H329      1.0  0.92174  0.36279  0.30025  1.0000
  H   H330      1.0  0.72945  0.36690  0.09790  1.0000
  H   H331      1.0  0.64346  0.05667  0.12169  1.0000
  C   C187      1.0  0.94146  0.43248  0.19488  1.0000
  H   H332      1.0  0.66063  0.43918  0.34877  1.0000
  H   H333      1.0  0.79619  0.47492  0.27996  1.0000
  H   H334      1.0  0.73334  0.48471  0.03607  1.0000
  H   H335      1.0  0.55286  0.19963  0.06289  1.0000
  H   H336      1.0  0.93200  0.34570  0.20391  1.0000
  H   H337      1.0  0.97606  0.40697  0.29375  1.0000
  C   C188      1.0  0.73997  0.40176  0.09160  1.0000
  C   C189      1.0  0.67835  0.39451  0.32492  1.0000
  H   H338      1.0  0.90004  0.37432  0.16356  1.0000
  C   C190      1.0  0.70089  0.34811  0.29476  1.0000
  C   C191      1.0  0.76950  0.43025  0.12081  1.0000
  Fe  Fe31      1.0  0.87116  0.51364  0.33940  1.0000
  H   H339      1.0  0.63996  0.32212  0.04975  1.0000
  C   C192      1.0  0.54326  0.30500  0.07413  1.0000
  C   C193      1.0  0.00583  0.45022  0.22863  1.0000
  H   H340      1.0  0.72733  0.34064  0.29031  1.0000
  C   C194      1.0  0.76183  0.44751  0.28271  1.0000
  H   H341      1.0  0.78360  0.41218  0.13336  1.0000
  C   C195      1.0  0.57142  0.04019  0.15775  1.0000
  H   H342      1.0  0.78111  0.40873  0.31119  1.0000
  N   N13       1.0  0.96165  0.41382  0.21820  1.0000
  H   H343      1.0  0.67318  0.40404  0.29876  1.0000
  H   H344      1.0  0.69846  0.36199  0.26961  1.0000
  C   C196      1.0  0.66522  0.38495  0.14589  1.0000
  H   H345      1.0  0.60642  0.06328  0.29308  1.0000
  H   H346      1.0  0.62901  0.30840  0.30039  1.0000
  H   H347      1.0  0.75586  0.52045  0.07147  1.0000
  C   C197      1.0  0.54763  0.27764  0.09851  1.0000
  N   N14       1.0  0.70101  0.40619  0.08389  1.0000
  H   H348      1.0  0.55057  0.08206  0.08740  1.0000
  H   H349      1.0  0.66245  0.39950  0.03924  1.0000
  C   C198      1.0  0.67307  0.34480  0.03842  1.0000
  C   C199      1.0  0.64182  0.04425  0.14860  1.0000
  H   H350      1.0  0.76902  0.44193  0.33757  1.0000
  S   S60       1.0  0.94709  0.46505  0.34098  1.0000
  H   H351      1.0  0.71792  0.46323  0.34168  1.0000
  H   H352      1.0  0.01063  0.37934  0.16199  1.0000
  H   H353      1.0  0.95614  0.35589  0.14815  1.0000
  C   C200      1.0  0.68776  0.43233  0.34957  1.0000
  H   H354      1.0  0.61770  0.21178  0.02760  1.0000
  C   C201      1.0  0.98114  0.38244  0.16398  1.0000
  H   H355      1.0  0.60946  0.03274  0.21506  1.0000
  H   H356      1.0  0.01988  0.43830  0.24816  1.0000
  Fe  Fe32      1.0  0.58639  0.48958  0.02188  1.0000
  H   H357      1.0  0.53982  0.49384  0.19495  1.0000
  H   H358      1.0  0.97895  0.52513  0.57133  1.0000
  Fe  Fe33      1.0  0.58270  0.48566  0.44168  1.0000
  C   C202      1.0  0.99130  0.41279  0.57788  1.0000
  H   H359      1.0  0.56880  0.08029  0.45983  1.0000
  S   S61       1.0  0.60607  0.44003  0.52528  1.0000
  H   H360      1.0  0.97990  0.45186  0.42877  1.0000
  Fe  Fe34      1.0  0.56800  0.47447  0.52010  1.0000
  Fe  Fe35      1.0  0.65380  0.49013  0.48651  1.0000
  C   C203      1.0  0.96318  0.49308  0.62319  1.0000
  S   S62       1.0  0.62060  0.45080  0.44058  1.0000
  C   C204      1.0  0.67872  0.31943  0.54966  1.0000
  H   H361      1.0  0.64974  0.35421  0.48638  1.0000
  C   C205      1.0  0.53297  0.12481  0.48058  1.0000
  S   S63       1.0  0.85487  0.45335  0.37013  1.0000
  C   C206      1.0  0.54565  0.51880  0.59736  1.0000
  H   H362      1.0  0.69757  0.40527  0.60142  1.0000
  H   H363      1.0  0.75054  0.39107  0.52005  1.0000
  H   H364      1.0  0.63208  0.30548  0.60840  1.0000
  H   H365      1.0  0.68729  0.30445  0.57118  1.0000
  C   C207      1.0  0.94823  0.42212  0.64507  1.0000
  H   H366      1.0  0.02681  0.42716  0.58120  1.0000
  C   C208      1.0  0.55106  0.11590  0.38242  1.0000
  Fe  Fe36      1.0  0.61468  0.13939  0.59533  1.0000
  S   S64       1.0  0.61955  0.09637  0.55397  1.0000
  Fe  Fe37      1.0  0.67424  0.22984  0.62640  1.0000
  S   S65       1.0  0.55769  0.12476  0.63135  1.0000
  H   H367      1.0  0.02881  0.50583  0.65586  1.0000
  C   C209      1.0  0.94429  0.43256  0.68336  1.0000
  Fe  Fe38      1.0  0.57767  0.19537  0.61934  1.0000
  H   H368      1.0  0.61129  0.05782  0.42481  1.0000
  S   S66       1.0  0.66339  0.16280  0.63765  1.0000
  S   S67       1.0  0.63093  0.20785  0.58079  1.0000
  S   S68       1.0  0.62204  0.22203  0.66406  1.0000
  S   S69       1.0  0.72518  0.51156  0.48891  1.0000
  H   H369      1.0  0.66499  0.41089  0.48888  1.0000
  S   S70       1.0  0.73745  0.29533  0.62526  1.0000
  H   H370      1.0  0.56283  0.12871  0.49227  1.0000
  C   C210      1.0  0.78434  0.50716  0.44465  1.0000
  C   C211      1.0  0.66825  0.38257  0.53794  1.0000
  C   C212      1.0  0.53856  0.31397  0.54328  1.0000
  C   C213      1.0  0.54203  0.25484  0.57297  1.0000
  C   C214      1.0  0.57471  0.05332  0.53324  1.0000
  C   C215      1.0  0.74970  0.51512  0.44780  1.0000
  C   C216      1.0  0.74298  0.39482  0.54737  1.0000
  C   C217      1.0  0.99571  0.47292  0.45031  1.0000
  H   H371      1.0  0.57006  0.16582  0.43654  1.0000
  S   S71       1.0  0.58277  0.51754  0.39028  1.0000
  H   H372      1.0  0.76149  0.38339  0.56280  1.0000
  C   C218      1.0  0.55895  0.26831  0.51112  1.0000
  H   H373      1.0  0.56832  0.25974  0.48687  1.0000
  C   C219      1.0  0.97729  0.44659  0.58528  1.0000
  C   C220      1.0  0.74046  0.33971  0.35972  1.0000
  H   H374      1.0  0.61857  0.34765  0.60036  1.0000
  H   H375      1.0  0.72452  0.38683  0.37804  1.0000
  S   S72       1.0  0.55589  0.33252  0.47323  1.0000
  H   H376      1.0  0.55329  0.09264  0.36464  1.0000
  C   C221      1.0  0.76685  0.30695  0.66349  1.0000
  H   H377      1.0  0.56103  0.21747  0.54083  1.0000
  H   H378      1.0  0.61548  0.03703  0.50216  1.0000
  Fe  Fe39      1.0  0.60762  0.15310  0.67285  1.0000
  H   H379      1.0  0.67400  0.41458  0.54772  1.0000
  N   N15       1.0  0.53979  0.09846  0.41931  1.0000
  H   H380      1.0  0.99897  0.47499  0.56784  1.0000
  H   H381      1.0  0.83332  0.50724  0.41057  1.0000
  C   C222      1.0  0.58298  0.05781  0.41347  1.0000
  C   C223      1.0  0.67285  0.38603  0.49808  1.0000
  N   N16       1.0  0.97934  0.46099  0.62221  1.0000
  H   H382      1.0  0.95664  0.39606  0.64522  1.0000
  H   H383      1.0  0.97207  0.38190  0.59325  1.0000
  H   H384      1.0  0.73264  0.24019  0.68306  1.0000
  H   H385      1.0  0.96545  0.50626  0.64964  1.0000
  N   N17       1.0  0.69488  0.36720  0.55655  1.0000
  Fe  Fe40      1.0  0.92488  0.49100  0.38521  1.0000
  C   C224      1.0  0.02558  0.48390  0.63431  1.0000
  H   H386      1.0  0.76377  0.45285  0.58014  1.0000
  C   C225      1.0  0.55500  0.24446  0.54164  1.0000
  H   H387      1.0  0.64252  0.30042  0.54907  1.0000
  C   C226      1.0  0.80610  0.51259  0.41243  1.0000
  H   H388      1.0  0.71191  0.36474  0.60969  1.0000
  C   C227      1.0  0.57549  0.09170  0.43232  1.0000
  C   C228      1.0  0.71223  0.36125  0.35790  1.0000
  H   H389      1.0  0.98583  0.40385  0.55017  1.0000
  H   H390      1.0  0.79463  0.49714  0.46724  1.0000
  H   H391      1.0  0.79834  0.46148  0.54310  1.0000
  Fe  Fe41      1.0  0.57083  0.40248  0.47901  1.0000
  H   H392      1.0  0.63291  0.36001  0.54387  1.0000
  H   H393      1.0  0.77529  0.36347  0.35347  1.0000
  H   H394      1.0  0.64340  0.34656  0.63938  1.0000
  C   C229      1.0  0.98324  0.50265  0.46121  1.0000
  H   H395      1.0  0.94364  0.43289  0.57575  1.0000
  C   C230      1.0  0.76370  0.44465  0.55249  1.0000
  H   H396      1.0  0.92791  0.47635  0.61720  1.0000
  H   H397      1.0  0.70632  0.39806  0.48774  1.0000
  H   H398      1.0  0.74757  0.45861  0.53719  1.0000
  H   H399      1.0  0.80696  0.37604  0.65107  1.0000
  H   H400      1.0  0.73082  0.31799  0.51888  1.0000
  H   H401      1.0  0.59091  0.06528  0.38544  1.0000
  C   C231      1.0  0.79948  0.35025  0.66993  1.0000
  H   H402      1.0  0.73854  0.32739  0.38659  1.0000
  H   H403      1.0  0.91474  0.40584  0.63474  1.0000
  H   H404      1.0  0.58428  0.14576  0.38059  1.0000
  C   C232      1.0  0.69617  0.30861  0.51648  1.0000
  H   H405      1.0  0.69254  0.32390  0.49284  1.0000
  S   S73       1.0  0.53499  0.22457  0.61152  1.0000
  H   H406      1.0  0.02560  0.42036  0.63992  1.0000
  C   C233      1.0  0.02765  0.46935  0.46817  1.0000
  C   C234      1.0  0.68922  0.37132  0.59503  1.0000
  H   H407      1.0  0.67744  0.27249  0.51305  1.0000
  C   C235      1.0  0.64301  0.34077  0.61114  1.0000
  C   C236      1.0  0.55083  0.30319  0.51186  1.0000
  S   S74       1.0  0.94087  0.50573  0.44164  1.0000
  H   H408      1.0  0.67848  0.33629  0.36692  1.0000
  H   H409      1.0  0.60722  0.12339  0.43169  1.0000
  H   H410      1.0  0.68964  0.42396  0.37691  1.0000
  C   C237      1.0  0.53354  0.28943  0.57359  1.0000
  C   C238      1.0  0.58242  0.02929  0.50805  1.0000
  H   H411      1.0  0.63753  0.03369  0.68050  1.0000
  C   C239      1.0  0.53926  0.13367  0.44100  1.0000
  C   C240      1.0  0.53894  0.52072  0.37344  1.0000
  Fe  Fe42      1.0  0.90992  0.47389  0.84153  1.0000
  H   H412      1.0  0.91383  0.34052  0.80611  1.0000
  Fe  Fe43      1.0  0.86345  0.40976  0.78336  1.0000
  S   S75       1.0  0.85102  0.45726  0.75518  1.0000
  S   S76       1.0  0.83628  0.33987  0.76651  1.0000
  S   S77       1.0  0.69740  0.45523  0.96940  1.0000
  C   C241      1.0  0.61195  0.28360  0.74770  1.0000
  Fe  Fe44      1.0  0.83338  0.47261  0.80726  1.0000
  H   H413      1.0  0.67067  0.34107  0.00988  1.0000
  S   S78       1.0  0.93424  0.45776  0.79244  1.0000
  S   S79       1.0  0.84020  0.42091  0.83457  1.0000
  H   H414      1.0  0.01365  0.50428  0.86437  1.0000
  H   H415      1.0  0.61167  0.25424  0.73782  1.0000
  H   H416      1.0  0.92871  0.40590  0.94950  1.0000
  H   H417      1.0  0.72919  0.32968  0.83945  1.0000
  S   S80       1.0  0.61943  0.50705  0.96867  1.0000
  H   H418      1.0  0.68049  0.33415  0.83981  1.0000
  Fe  Fe45      1.0  0.63333  0.45280  0.97908  1.0000
  C   C242      1.0  0.69847  0.28160  0.77926  1.0000
  S   S81       1.0  0.57152  0.40011  0.95677  1.0000
  H   H419      1.0  0.67736  0.24346  0.73083  1.0000
  C   C243      1.0  0.57355  0.08008  0.78622  1.0000
  H   H420      1.0  0.63579  0.10459  0.99909  1.0000
  H   H421      1.0  0.70977  0.37603  0.69070  1.0000
  H   H422      1.0  0.60961  0.06294  0.68532  1.0000
  C   C244      1.0  0.56565  0.09123  0.75338  1.0000
  N   N18       1.0  0.69129  0.31872  0.76938  1.0000
  N   N19       1.0  0.89579  0.33831  0.89640  1.0000
  S   S82       1.0  0.92869  0.47724  0.89756  1.0000
  H   H423      1.0  0.97643  0.45264  0.69509  1.0000
  C   C245      1.0  0.01743  0.50868  0.89200  1.0000
  C   C246      1.0  0.82161  0.36052  0.70116  1.0000
  C   C247      1.0  0.81174  0.32742  0.72590  1.0000
  C   C248      1.0  0.78038  0.28387  0.71879  1.0000
  H   H424      1.0  0.92541  0.44950  0.68634  1.0000
  H   H425      1.0  0.68444  0.30553  0.71410  1.0000
  H   H426      1.0  0.84612  0.39405  0.70611  1.0000
  H   H427      1.0  0.77279  0.25801  0.73762  1.0000
  C   C249      1.0  0.98654  0.50409  0.94952  1.0000
  H   H428      1.0  0.57842  0.27252  0.75799  1.0000
  C   C250      1.0  0.57136  0.04723  0.99697  1.0000
  H   H429      1.0  0.61820  0.30640  0.72560  1.0000
  H   H430      1.0  0.68607  0.21684  0.76595  1.0000
  C   C251      1.0  0.60450  0.08505  0.01257  1.0000
  H   H431      1.0  0.96568  0.36573  0.89785  1.0000
  C   C252      1.0  0.67332  0.23871  0.75928  1.0000
  C   C253      1.0  0.91603  0.35694  0.83105  1.0000
  H   H432      1.0  0.82813  0.23618  0.93817  1.0000
  H   H433      1.0  0.73813  0.40376  0.72837  1.0000
  H   H434      1.0  0.73856  0.33653  0.72719  1.0000
  C   C254      1.0  0.70802  0.37447  0.71947  1.0000
  H   H435      1.0  0.59339  0.23972  0.00852  1.0000
  H   H436      1.0  0.63826  0.22041  0.76735  1.0000
  H   H437      1.0  0.68900  0.27159  0.80691  1.0000
  C   C255      1.0  0.98129  0.49847  0.91367  1.0000
  H   H438      1.0  0.88246  0.30953  0.94869  1.0000
  C   C256      1.0  0.70559  0.33177  0.73198  1.0000
  H   H439      1.0  0.89617  0.37267  0.82863  1.0000
  H   H440      1.0  0.94507  0.36627  0.96067  1.0000
  C   C257      1.0  0.64449  0.30640  0.77681  1.0000
  C   C258      1.0  0.71738  0.46071  0.92618  1.0000
  Fe  Fe46      1.0  0.92043  0.50659  0.76705  1.0000
  S   S83       1.0  0.77122  0.47456  0.81454  1.0000
  H   H441      1.0  0.73383  0.29259  0.77658  1.0000
  H   H442      1.0  0.85679  0.39629  0.93380  1.0000
  C   C259      1.0  0.77410  0.46713  0.88546  1.0000
  H   H443      1.0  0.03138  0.52444  0.99138  1.0000
  H   H444      1.0  0.63094  0.28454  0.80027  1.0000
  H   H445      1.0  0.64234  0.33592  0.78329  1.0000
  C   C260      1.0  0.94892  0.39166  0.94169  1.0000
  H   H446      1.0  0.75580  0.36989  0.78400  1.0000
  H   H447      1.0  0.91901  0.30689  0.86049  1.0000
  C   C261      1.0  0.58809  0.20666  0.01458  1.0000
  H   H448      1.0  0.87840  0.38606  0.88137  1.0000
  H   H449      1.0  0.80506  0.46902  0.88073  1.0000
  C   C262      1.0  0.75108  0.46962  0.85766  1.0000
  C   C263      1.0  0.71109  0.46748  0.86424  1.0000
  H   H450      1.0  0.81071  0.26867  0.91602  1.0000
  H   H451      1.0  0.63843  0.05994  0.72120  1.0000
  C   C264      1.0  0.72079  0.35754  0.79109  1.0000
  C   C265      1.0  0.71506  0.34954  0.83070  1.0000
  H   H452      1.0  0.71573  0.38562  0.78610  1.0000
  H   H453      1.0  0.66345  0.46151  0.90322  1.0000
  C   C266      1.0  0.89831  0.32219  0.86070  1.0000
  H   H454      1.0  0.95862  0.49609  0.96643  1.0000
  H   H455      1.0  0.69310  0.46933  0.84287  1.0000
  H   H456      1.0  0.90614  0.28892  0.91994  1.0000
  H   H457      1.0  0.77542  0.46108  0.94092  1.0000
  H   H458      1.0  0.85670  0.35113  0.95430  1.0000
  H   H459      1.0  0.83551  0.24228  0.89232  1.0000
  Fe  Fe47      1.0  0.55507  0.45322  0.95028  1.0000
  H   H460      1.0  0.98338  0.41880  0.94304  1.0000
  C   C267      1.0  0.84636  0.36104  0.93106  1.0000
  H   H461      1.0  0.81012  0.34252  0.93188  1.0000
  H   H462      1.0  0.95004  0.40483  0.88778  1.0000
  H   H463      1.0  0.60630  0.09718  0.79569  1.0000
  H   H464      1.0  0.86552  0.29615  0.85264  1.0000
  C   C268      1.0  0.86377  0.35424  0.89586  1.0000
  C   C269      1.0  0.88212  0.30025  0.92140  1.0000
  C   C270      1.0  0.75752  0.27374  0.68793  1.0000
  H   H465      1.0  0.58580  0.18898  0.99041  1.0000
  C   C271      1.0  0.69424  0.46304  0.89839  1.0000
  H   H466      1.0  0.53330  0.48368  0.78453  1.0000
  C   C272      1.0  0.94096  0.37527  0.90425  1.0000
  C   C273      1.0  0.75727  0.46268  0.91957  1.0000
  H   H467      1.0  0.83477  0.33178  0.88075  1.0000
  H   H468      1.0  0.73335  0.38157  0.84368  1.0000
  C   C274      1.0  0.61819  0.04103  0.69935  1.0000
  C   C275      1.0  0.83645  0.25990  0.91624  1.0000
  H   H469      1.0  0.67929  0.37647  0.72846  1.0000
  H   H470      1.0  0.57713  0.03777  0.97168  1.0000
  S   S84       1.0  0.61010  0.13198  0.72805  1.0000
  H   H471      1.0  0.95086  0.38220  0.83377  1.0000
  C   C276      1.0  0.02766  0.52004  0.96373  1.0000
  C   C277      1.0  0.53948  0.04658  0.80678  1.0000
  Fe  Fe48      1.0  0.54326  0.39137  0.01075  1.0000
  H   H472      1.0  0.59388  0.48266  0.80124  1.0000
  H   H473      1.0  0.54599  0.03813  0.83194  1.0000
  H   H474      1.0  0.92603  0.40132  0.69871  1.0000
  H   H475      1.0  0.58096  0.51384  0.72791  1.0000
  C   C278      1.0  0.61066  0.51698  0.81036  1.0000
  H   H476      1.0  0.63586  0.52075  0.82860  1.0000
  H   H477      1.0  0.58745  0.52193  0.82639  1.0000
  S   S85       1.0  0.53990  0.72651  0.24481  1.0000
  C   C279      1.0  0.54769  0.82079  0.32923  1.0000
  N   N20       1.0  0.59497  0.01505  0.16132  1.0000
  C   C280      1.0  0.57586  0.97420  0.13994  1.0000
  C   C281      1.0  0.55507  0.53833  0.08710  1.0000
  C   C282      1.0  0.59460  0.69253  0.30921  1.0000
  H   H478      1.0  0.56550  0.54454  0.21709  1.0000
  C   C283      1.0  0.57733  0.98197  0.10044  1.0000
  C   C284      1.0  0.53763  0.01604  0.29905  1.0000
  H   H479      1.0  0.61982  0.68617  0.29792  1.0000
  H   H480      1.0  0.60937  0.80803  0.26665  1.0000
  C   C285      1.0  0.58421  0.82940  0.30864  1.0000
  S   S86       1.0  0.59775  0.54332  0.05941  1.0000
  H   H481      1.0  0.56597  0.67561  0.29262  1.0000
  C   C286      1.0  0.54116  0.76214  0.27720  1.0000
  S   S87       1.0  0.02319  0.56393  0.28246  1.0000
  C   C287      1.0  0.58349  0.67440  0.34691  1.0000
  H   H482      1.0  0.59463  0.60253  0.10835  1.0000
  H   H483      1.0  0.61538  0.85859  0.31290  1.0000
  C   C288      1.0  0.58081  0.80068  0.28248  1.0000
  H   H484      1.0  0.61076  0.99526  0.08903  1.0000
  C   C289      1.0  0.54628  0.54566  0.34293  1.0000
  C   C290      1.0  0.99364  0.54774  0.18065  1.0000
  H   H485      1.0  0.61718  0.98905  0.20156  1.0000
  C   C291      1.0  0.55137  0.97053  0.21669  1.0000
  H   H486      1.0  0.56543  0.00433  0.09363  1.0000
  H   H487      1.0  0.60826  0.72851  0.30739  1.0000
  C   C292      1.0  0.98982  0.54833  0.21696  1.0000
  C   C293      1.0  0.59556  0.00305  0.19877  1.0000
  C   C294      1.0  0.56251  0.57341  0.10839  1.0000
  H   H488      1.0  0.59315  0.95590  0.14457  1.0000
  H   H489      1.0  0.55610  0.95023  0.08777  1.0000
  C   C295      1.0  0.02701  0.56514  0.23672  1.0000
  H   H490      1.0  0.95814  0.53582  0.22962  1.0000
  H   H491      1.0  0.57119  0.63869  0.34510  1.0000
  H   H492      1.0  0.57844  0.56236  0.33045  1.0000
  H   H493      1.0  0.96471  0.53455  0.16551  1.0000
  H   H494      1.0  0.56451  0.74338  0.34213  1.0000
  H   H495      1.0  0.54143  0.95059  0.14751  1.0000
  H   H496      1.0  0.65918  0.02548  0.14738  1.0000
  H   H497      1.0  0.54168  0.99757  0.31943  1.0000
  S   S88       1.0  0.82217  0.53613  0.34289  1.0000
  H   H498      1.0  0.55725  0.96355  0.24344  1.0000
  H   H499      1.0  0.53449  0.59870  0.14541  1.0000
  H   H500      1.0  0.53401  0.93853  0.20375  1.0000
  C   C296      1.0  0.91060  0.68133  0.47868  1.0000
  H   H501      1.0  0.01661  0.59985  0.66428  1.0000
  S   S89       1.0  0.55485  0.85658  0.36338  1.0000
  H   H502      1.0  0.62083  0.62634  0.61017  1.0000
  H   H503      1.0  0.55405  0.97716  0.47101  1.0000
  H   H504      1.0  0.56372  0.74657  0.42177  1.0000
  H   H505      1.0  0.87088  0.62027  0.38023  1.0000
  H   H506      1.0  0.61489  0.68841  0.36048  1.0000
  C   C297      1.0  0.98742  0.53376  0.59872  1.0000
  H   H507      1.0  0.95316  0.66927  0.42258  1.0000
  N   N21       1.0  0.55143  0.68261  0.36703  1.0000
  H   H508      1.0  0.78258  0.61399  0.46856  1.0000
  H   H509      1.0  0.94643  0.62065  0.50079  1.0000
  C   C298      1.0  0.58261  0.56034  0.59147  1.0000
  N   N22       1.0  0.89242  0.64430  0.45327  1.0000
  C   C299      1.0  0.56530  0.58678  0.64450  1.0000
  H   H510      1.0  0.55179  0.60544  0.39648  1.0000
  H   H511      1.0  0.81099  0.59515  0.49370  1.0000
  C   C300      1.0  0.93382  0.60620  0.47527  1.0000
  C   C301      1.0  0.89033  0.60393  0.46858  1.0000
  S   S90       1.0  0.57765  0.63040  0.67280  1.0000
  H   H512      1.0  0.91951  0.68923  0.40922  1.0000
  H   H513      1.0  0.89799  0.59357  0.39862  1.0000
  C   C302      1.0  0.84640  0.63277  0.44583  1.0000
  H   H514      1.0  0.60297  0.56670  0.56834  1.0000
  H   H515      1.0  0.89866  0.70436  0.47326  1.0000
  H   H516      1.0  0.92602  0.63811  0.36815  1.0000
  H   H517      1.0  0.60604  0.74950  0.36964  1.0000
  C   C303      1.0  0.81544  0.62329  0.47770  1.0000
  C   C304      1.0  0.91853  0.65920  0.41943  1.0000
  C   C305      1.0  0.59250  0.59411  0.61511  1.0000
  H   H518      1.0  0.97753  0.69212  0.48247  1.0000
  H   H519      1.0  0.99379  0.55231  0.49809  1.0000
  C   C306      1.0  0.96071  0.71080  0.47932  1.0000
  H   H520      1.0  0.87235  0.59490  0.49407  1.0000
  H   H521      1.0  0.84657  0.65957  0.43040  1.0000
  H   H522      1.0  0.58056  0.68202  0.41522  1.0000
  H   H523      1.0  0.71039  0.53503  0.42070  1.0000
  S   S91       1.0  0.61971  0.52906  0.48578  1.0000
  H   H524      1.0  0.02328  0.55105  0.60117  1.0000
  C   C307      1.0  0.90194  0.62544  0.39033  1.0000
  C   C308      1.0  0.54770  0.99546  0.49030  1.0000
  H   H525      1.0  0.96925  0.73313  0.50160  1.0000
  C   C309      1.0  0.75916  0.53465  0.38643  1.0000
  H   H526      1.0  0.95916  0.62354  0.45461  1.0000
  H   H527      1.0  0.83007  0.60311  0.42967  1.0000
  H   H528      1.0  0.82608  0.65243  0.49404  1.0000
  H   H529      1.0  0.97395  0.73204  0.45562  1.0000
  H   H530      1.0  0.89865  0.66844  0.50559  1.0000
  H   H531      1.0  0.92818  0.57230  0.47544  1.0000
  H   H532      1.0  0.87047  0.57446  0.45297  1.0000
  C   C310      1.0  0.55290  0.74988  0.39587  1.0000
  H   H533      1.0  0.56726  0.78568  0.39105  1.0000
  C   C311      1.0  0.54788  0.66525  0.40347  1.0000
  C   C312      1.0  0.56994  0.73170  0.36717  1.0000
  H   H534      1.0  0.74955  0.54580  0.36407  1.0000
  S   S92       1.0  0.94001  0.55257  0.35645  1.0000
  C   C313      1.0  0.73682  0.52838  0.41848  1.0000
  H   H535      1.0  0.97692  0.55751  0.60563  1.0000
  C   C314      1.0  0.03255  0.58664  0.67942  1.0000
  H   H536      1.0  0.55474  0.02421  0.41789  1.0000
  C   C315      1.0  0.79382  0.52669  0.38323  1.0000
  C   C316      1.0  0.00350  0.52940  0.48948  1.0000
  H   H537      1.0  0.62488  0.97482  0.81428  1.0000
  H   H538      1.0  0.66977  0.57231  0.71119  1.0000
  N   N23       1.0  0.58063  0.96761  0.73489  1.0000
  C   C317      1.0  0.63823  0.60479  0.73799  1.0000
  C   C318      1.0  0.56590  0.58724  0.98616  1.0000
  H   H539      1.0  0.53656  0.90176  0.75558  1.0000
  H   H540      1.0  0.66504  0.57676  0.78847  1.0000
  H   H541      1.0  0.56017  0.54983  0.72323  1.0000
  H   H542      1.0  0.55581  0.01130  0.72529  1.0000
  C   C319      1.0  0.60969  0.95473  0.71556  1.0000
  H   H543      1.0  0.56267  0.60795  0.89227  1.0000
  C   C320      1.0  0.61725  0.92004  0.73303  1.0000
  H   H544      1.0  0.03186  0.59173  0.92003  1.0000
  C   C321      1.0  0.53577  0.92773  0.74046  1.0000
  S   S93       1.0  0.54976  0.87117  0.87097  1.0000
  C   C322      1.0  0.53491  0.83852  0.83375  1.0000
  H   H545      1.0  0.58731  0.01123  0.77613  1.0000
  C   C323      1.0  0.63292  0.55005  0.77971  1.0000
  H   H546      1.0  0.56983  0.80601  0.84742  1.0000
  N   N24       1.0  0.60756  0.56842  0.76311  1.0000
  H   H547      1.0  0.64293  0.98372  0.71089  1.0000
  C   C324      1.0  0.65297  0.59049  0.70508  1.0000
  H   H548      1.0  0.56587  0.56345  0.80716  1.0000
  C   C325      1.0  0.60073  0.99021  0.76813  1.0000
  H   H549      1.0  0.59489  0.58331  0.98385  1.0000
  C   C326      1.0  0.59401  0.96059  0.80017  1.0000
  H   H550      1.0  0.58677  0.88838  0.73872  1.0000
  C   C327      1.0  0.54570  0.54017  0.89627  1.0000
  H   H551      1.0  0.63644  0.01316  0.76395  1.0000
  H   H552      1.0  0.63722  0.91244  0.71496  1.0000
  H   H553      1.0  0.63645  0.93282  0.75663  1.0000
  H   H554      1.0  0.66867  0.62892  0.75069  1.0000
  H   H555      1.0  0.56951  0.54611  0.91545  1.0000
  C   C328      1.0  0.01180  0.56211  0.70986  1.0000
  S   S94       1.0  0.95953  0.55233  0.72198  1.0000
  H   H556      1.0  0.64209  0.53287  0.76021  1.0000
  H   H557      1.0  0.54709  0.75792  0.79616  1.0000
  H   H558      1.0  0.62325  0.62397  0.72910  1.0000
  H   H559      1.0  0.56967  0.96038  0.81892  1.0000
  C   C329      1.0  0.57037  0.53387  0.74282  1.0000
  C   C330      1.0  0.54202  0.57513  0.88290  1.0000
  H   H560      1.0  0.00418  0.60401  0.97169  1.0000
  H   H561      1.0  0.56614  0.60492  0.96234  1.0000
  S   S95       1.0  0.54624  0.67456  0.75521  1.0000
  C   C331      1.0  0.57564  0.99932  0.71183  1.0000
  H   H562      1.0  0.64864  0.65405  0.79594  1.0000
  H   H563      1.0  0.02806  0.66118  0.98340  1.0000
  H   H564      1.0  0.58459  0.92639  0.79475  1.0000
  H   H565      1.0  0.57298  0.60245  0.77554  1.0000
  H   H566      1.0  0.62544  0.57078  0.68796  1.0000
  H   H567      1.0  0.57068  0.60758  0.00920  1.0000
  C   C332      1.0  0.62506  0.62456  0.81149  1.0000
  H   H568      1.0  0.01867  0.63300  0.91274  1.0000
  C   C333      1.0  0.59058  0.58838  0.78896  1.0000
  H   H569      1.0  0.64244  0.61226  0.82707  1.0000
  C   C334      1.0  0.53624  0.78121  0.79974  1.0000
  H   H570      1.0  0.55760  0.98274  0.68824  1.0000
  S   S96       1.0  0.90164  0.52686  0.81688  1.0000
  H   H571      1.0  0.60829  0.63553  0.83001  1.0000
  C   C335      1.0  0.54915  0.80851  0.82870  1.0000
  H   H572      1.0  0.02015  0.60036  0.85899  1.0000
  H   H573      1.0  0.67653  0.62032  0.68971  1.0000
  H   H574      1.0  0.03115  0.62275  0.01139  1.0000
  H   H575      1.0  0.59667  0.94232  0.68951  1.0000
  C   C336      1.0  0.03228  0.63227  0.98375  1.0000
  H   H576      1.0  0.01713  0.52688  0.75316  1.0000
