data_image0
_chemical_formula_structural       HSCFeSCFeHFeNSCHSHCHCHFeH3C5H3CSCH3CH3FeH5SH5C2HCSH3CHSHCH2CFeSHCH4CHCSH3C2H2CHCNHC2S2NHFeC2FeH2CSCHNHSH3CSH3C2SH2CH3CH2C2HCSCFeHSH4CHFeH5S3FeH2CH2CFeH4CHSHC2H3C2HC2HCHFeC5FeH3SC2H5C4H3NCFeSCH2N2CFeHCHS2H2CHSH5CHCSHCHCH3CH4CHCH2S2CH3CSCHSC2H5C3NHFeHFe2H2SFeCSH3SH3FeSHSHSFeSFeSHC6H4CHCHCHC2FeCH5CH5SH2SC2H4C2SHC2NH2NH2C2H2C2H3CH2CHCHCHC2H2CHC2H2NHSH3CHCH4C2HCH8NHC2FeSC2H3CH4SH7C3H4SHCH2C2H2CHFeSC2SH3CHCHCH2SC2FeCH2C2SH8CH3CHCHCSHCHCH2NH4FeHCH2CSH2C5HC2H2CH3SH3FeCH3CHCH2C2HCNH2CH4CH7CH3C2HC2HC2H3C2H2SCSHCHC2H2FeHSH2SC2SC2HC6H7SHC3FeC3H2CSH2CHCH3C2HFeH2C2HCH3CH5NHCHSHCH4NC2HCH3SHC2H3CH3CH4SHSHSCHCH2CHC4H2C2HCHSH3NCHC2H3CH2SH5CFeH2FeH2CH4CH2SC2H2Fe2S2FeSHFeSFeS3HSC7H5C6H2C2HCNH4SC5NSC2H5CH2CH4CH14C4HCNCH3C2SH9C2FeH3CH10CHCH2CH6C2S3FeSFeS2FeS2FeSFeHS2HSHC6HCHC6H4C2NH7CHCH3CNCH8C3H3CHFeCH2CH2C4H4CH3CHCH7CH2CH2C6HCHCH2SC3FeCHNH4C3H2C2H3CH3C2H3CHCHNH4CH3CHCH2CH5SH2CHS2Fe
_chemical_formula_sum              "H576 S96 C336 Fe48 N24"
_cell_length_a       35.1943
_cell_length_b       35.2771
_cell_length_c       40.7055
_cell_angle_alpha    90.0621
_cell_angle_beta     89.7078
_cell_angle_gamma    120.061

_space_group_name_H-M_alt    "P 1"
_space_group_IT_number       1

loop_
  _space_group_symop_operation_xyz
  'x, y, z'

loop_
  _atom_site_type_symbol
  _atom_site_label
  _atom_site_symmetry_multiplicity
  _atom_site_fract_x
  _atom_site_fract_y
  _atom_site_fract_z
  _atom_site_occupancy
  H   H1        1.0  0.42672  0.12355  0.20257  1.0000
  S   S1        1.0  0.37264  0.37595  0.30540  1.0000
  C   C1        1.0  0.41902  0.13469  0.15165  1.0000
  Fe  Fe1       1.0  0.42554  0.44636  0.31288  1.0000
  S   S2        1.0  0.46963  0.06650  0.17007  1.0000
  C   C2        1.0  0.45983  0.20624  0.22885  1.0000
  Fe  Fe2       1.0  0.43701  0.04715  0.22056  1.0000
  H   H2        1.0  0.33922  0.35306  0.02643  1.0000
  Fe  Fe3       1.0  0.38223  0.07351  0.26439  1.0000
  N   N1        1.0  0.46632  0.19352  0.19479  1.0000
  S   S3        1.0  0.35719  0.12244  0.26298  1.0000
  C   C3        1.0  0.42284  0.22579  0.32614  1.0000
  H   H3        1.0  0.39526  0.14866  0.19622  1.0000
  S   S4        1.0  0.45401  0.09623  0.26109  1.0000
  H   H4        1.0  0.45251  0.17934  0.24660  1.0000
  C   C4        1.0  0.47105  0.22733  0.16997  1.0000
  H   H5        1.0  0.25165  0.22181  0.30412  1.0000
  C   C5        1.0  0.27509  0.25426  0.31456  1.0000
  H   H6        1.0  0.25881  0.27352  0.31986  1.0000
  Fe  Fe4       1.0  0.41080  0.36011  0.34174  1.0000
  H   H7        1.0  0.01014  0.49341  0.14162  1.0000
  H   H8        1.0  0.37927  0.00725  0.14625  1.0000
  H   H9        1.0  0.42935  0.24632  0.14339  1.0000
  C   C6        1.0  0.40736  0.25431  0.31752  1.0000
  C   C7        1.0  0.37712  0.24214  0.29187  1.0000
  C   C8        1.0  0.36169  0.20149  0.27585  1.0000
  C   C9        1.0  0.37692  0.17281  0.28471  1.0000
  C   C10       1.0  0.40799  0.18547  0.30978  1.0000
  H   H10       1.0  0.44897  0.13757  0.14016  1.0000
  H   H11       1.0  0.36539  0.26392  0.28454  1.0000
  H   H12       1.0  0.33799  0.19231  0.25629  1.0000
  C   C11       1.0  0.42597  0.14974  0.18784  1.0000
  S   S5        1.0  0.36557  0.02758  0.22118  1.0000
  C   C12       1.0  0.34968  0.38838  0.02650  1.0000
  H   H13       1.0  0.39309  0.09960  0.15057  1.0000
  H   H14       1.0  0.29951  0.27235  0.29485  1.0000
  H   H15       1.0  0.43048  0.21031  0.22980  1.0000
  C   C13       1.0  0.01319  0.48580  0.03624  1.0000
  H   H16       1.0  0.03058  0.43828  0.10572  1.0000
  H   H17       1.0  0.31200  0.22817  0.33575  1.0000
  H   H18       1.0  0.07589  0.45681  0.18463  1.0000
  Fe  Fe5       1.0  0.43930  0.04064  0.29573  1.0000
  H   H19       1.0  0.01279  0.44773  0.15717  1.0000
  H   H20       1.0  0.40064  0.20864  0.17534  1.0000
  H   H21       1.0  0.40748  0.15332  0.13684  1.0000
  H   H22       1.0  0.32765  0.39437  0.04251  1.0000
  H   H23       1.0  0.26849  0.37630  0.01227  1.0000
  S   S6        1.0  0.36753  0.01985  0.30117  1.0000
  H   H24       1.0  0.42027  0.16403  0.31683  1.0000
  H   H25       1.0  0.08201  0.45276  0.08740  1.0000
  H   H26       1.0  0.07213  0.43379  0.12914  1.0000
  H   H27       1.0  0.38272  0.40573  0.03796  1.0000
  H   H28       1.0  0.43920  0.26444  0.18572  1.0000
  C   C14       1.0  0.43289  0.23713  0.16881  1.0000
  C   C15       1.0  0.02590  0.48339  0.16076  1.0000
  H   H29       1.0  0.48865  0.44824  0.24787  1.0000
  C   C16       1.0  0.06623  0.45360  0.11092  1.0000
  S   S7        1.0  0.48493  0.06275  0.34001  1.0000
  H   H30       1.0  0.47700  0.21891  0.14484  1.0000
  H   H31       1.0  0.06037  0.49523  0.34092  1.0000
  H   H32       1.0  0.01385  0.46876  0.21360  1.0000
  C   C17       1.0  0.09702  0.49268  0.18032  1.0000
  H   H33       1.0  0.48749  0.25528  0.26710  1.0000
  S   S8        1.0  0.42597  0.30373  0.34035  1.0000
  H   H34       1.0  0.19431  0.19720  0.33709  1.0000
  C   C18       1.0  0.00738  0.48689  0.19425  1.0000
  H   H35       1.0  0.12106  0.49683  0.23020  1.0000
  H   H36       1.0  0.12805  0.49657  0.16975  1.0000
  C   C19       1.0  0.29931  0.24967  0.34430  1.0000
  Fe  Fe6       1.0  0.01091  0.41228  0.46937  1.0000
  S   S9        1.0  0.26402  0.35374  0.35048  1.0000
  H   H37       1.0  0.09741  0.48260  0.49904  1.0000
  C   C20       1.0  0.11584  0.48195  0.57875  1.0000
  H   H38       1.0  0.23256  0.26218  0.36971  1.0000
  H   H39       1.0  0.45967  0.02319  0.52677  1.0000
  H   H40       1.0  0.40483  0.02435  0.44413  1.0000
  H   H41       1.0  0.34449  0.20496  0.41606  1.0000
  C   C21       1.0  0.44369  0.01676  0.50217  1.0000
  H   H42       1.0  0.16513  0.40294  0.53083  1.0000
  C   C22       1.0  0.01275  0.48354  0.57393  1.0000
  S   S10       1.0  0.00266  0.43004  0.52183  1.0000
  H   H43       1.0  0.28481  0.43228  0.38911  1.0000
  H   H44       1.0  0.44656  0.04834  0.49475  1.0000
  H   H45       1.0  0.14396  0.37945  0.49161  1.0000
  C   C23       1.0  0.02172  0.48189  0.54041  1.0000
  C   C24       1.0  0.14023  0.39795  0.51233  1.0000
  H   H46       1.0  0.37859  0.00108  0.51931  1.0000
  H   H47       1.0  0.17523  0.18743  0.37896  1.0000
  C   C25       1.0  0.45086  0.99893  0.44327  1.0000
  H   H48       1.0  0.17529  0.45586  0.48269  1.0000
  C   C26       1.0  0.49334  0.02821  0.64648  1.0000
  N   N2        1.0  0.14752  0.47440  0.52319  1.0000
  H   H49       1.0  0.46098  0.06615  0.43688  1.0000
  C   C27       1.0  0.32807  0.20737  0.39356  1.0000
  C   C28       1.0  0.11576  0.45183  0.55118  1.0000
  S   S11       1.0  0.38907  0.45715  0.35425  1.0000
  S   S12       1.0  0.37419  0.36546  0.38552  1.0000
  N   N3        1.0  0.46682  0.00244  0.47818  1.0000
  H   H50       1.0  0.22939  0.16687  0.39492  1.0000
  Fe  Fe7       1.0  0.42640  0.43664  0.38763  1.0000
  C   C29       1.0  0.25723  0.26261  0.38678  1.0000
  C   C30       1.0  0.23114  0.37332  0.36923  1.0000
  Fe  Fe8       1.0  0.07002  0.39889  0.42056  1.0000
  H   H51       1.0  0.12147  0.42720  0.56354  1.0000
  H   H52       1.0  0.21459  0.21890  0.42658  1.0000
  C   C31       1.0  0.23699  0.25417  0.42157  1.0000
  S   S13       1.0  0.01488  0.36290  0.38453  1.0000
  C   C32       1.0  0.23651  0.18552  0.37145  1.0000
  H   H53       1.0  0.46978  0.00229  0.59805  1.0000
  N   N4        1.0  0.27330  0.23223  0.37572  1.0000
  H   H54       1.0  0.12246  0.34323  0.37832  1.0000
  S   S14       1.0  0.14378  0.42248  0.41677  1.0000
  H   H55       1.0  0.46324  0.02696  0.65408  1.0000
  H   H56       1.0  0.28463  0.29711  0.38639  1.0000
  H   H57       1.0  0.08164  0.43253  0.54163  1.0000
  C   C33       1.0  0.17617  0.40222  0.39816  1.0000
  S   S15       1.0  0.44574  0.47019  0.43779  1.0000
  H   H58       1.0  0.21801  0.27145  0.42424  1.0000
  H   H59       1.0  0.35445  0.22467  0.37506  1.0000
  H   H60       1.0  0.19067  0.45714  0.57318  1.0000
  C   C34       1.0  0.15773  0.36268  0.38083  1.0000
  C   C35       1.0  0.18507  0.34838  0.36650  1.0000
  S   S16       1.0  0.05511  0.45386  0.42834  1.0000
  H   H61       1.0  0.11721  0.43082  0.48191  1.0000
  H   H62       1.0  0.30518  0.17359  0.38510  1.0000
  C   C36       1.0  0.22220  0.42696  0.40108  1.0000
  H   H63       1.0  0.09103  0.46146  0.59759  1.0000
  H   H64       1.0  0.10673  0.37677  0.52253  1.0000
  H   H65       1.0  0.23695  0.45760  0.41436  1.0000
  C   C37       1.0  0.30456  0.23334  0.40154  1.0000
  H   H66       1.0  0.26313  0.26793  0.44050  1.0000
  H   H67       1.0  0.28716  0.21983  0.42528  1.0000
  C   C38       1.0  0.24952  0.41269  0.38674  1.0000
  C   C39       1.0  0.21421  0.48248  0.55616  1.0000
  H   H68       1.0  0.33056  0.26779  0.40674  1.0000
  C   C40       1.0  0.43622  0.03157  0.43236  1.0000
  S   S17       1.0  0.02887  0.35952  0.46388  1.0000
  C   C41       1.0  0.14555  0.44115  0.49877  1.0000
  Fe  Fe9       1.0  0.99749  0.41515  0.39487  1.0000
  H   H69       1.0  0.23003  0.46838  0.54052  1.0000
  S   S18       1.0  0.46624  0.43046  0.34668  1.0000
  H   H70       1.0  0.32883  0.28239  0.34855  1.0000
  H   H71       1.0  0.47393  0.42279  0.65049  1.0000
  H   H72       1.0  0.49538  0.38548  0.64739  1.0000
  H   H73       1.0  0.43039  0.02825  0.40541  1.0000
  C   C42       1.0  0.19183  0.17869  0.35964  1.0000
  H   H74       1.0  0.16980  0.14344  0.35406  1.0000
  Fe  Fe10      1.0  0.33924  0.38588  0.34963  1.0000
  H   H75       1.0  0.24648  0.16776  0.35389  1.0000
  H   H76       1.0  0.44635  0.23482  0.34584  1.0000
  H   H77       1.0  0.47648  0.00212  0.42557  1.0000
  H   H78       1.0  0.17042  0.31791  0.35301  1.0000
  H   H79       1.0  0.41762  0.36731  0.67571  1.0000
  S   S19       1.0  0.03350  0.36426  0.97312  1.0000
  S   S20       1.0  0.01801  0.34891  0.89432  1.0000
  S   S21       1.0  0.05433  0.44800  0.92658  1.0000
  Fe  Fe11      1.0  0.01013  0.41304  0.96988  1.0000
  H   H80       1.0  0.03713  0.33619  0.82491  1.0000
  H   H81       1.0  0.03886  0.36884  0.79117  1.0000
  C   C43       1.0  0.05984  0.36271  0.80802  1.0000
  H   H82       1.0  0.06841  0.41211  0.84250  1.0000
  H   H83       1.0  0.07803  0.34964  0.79428  1.0000
  C   C44       1.0  0.00151  0.46673  0.82417  1.0000
  Fe  Fe12      1.0  0.99844  0.40081  0.89491  1.0000
  H   H84       1.0  0.29241  0.42871  0.99513  1.0000
  H   H85       1.0  0.34873  0.03564  0.90277  1.0000
  H   H86       1.0  0.46187  0.40591  0.75732  1.0000
  H   H87       1.0  0.48524  0.04787  0.92829  1.0000
  C   C45       1.0  0.45008  0.29424  0.72536  1.0000
  H   H88       1.0  0.36962  0.47583  0.94867  1.0000
  S   S22       1.0  0.14658  0.42134  0.91705  1.0000
  H   H89       1.0  0.17673  0.46052  0.77431  1.0000
  C   C46       1.0  0.46880  0.37958  0.74974  1.0000
  C   C47       1.0  0.10074  0.46001  0.78886  1.0000
  H   H90       1.0  0.45041  0.32140  0.67787  1.0000
  H   H91       1.0  0.13627  0.49363  0.74375  1.0000
  H   H92       1.0  0.34508  0.46554  0.90940  1.0000
  C   C48       1.0  0.33845  0.45506  0.93551  1.0000
  C   C49       1.0  0.09036  0.40359  0.82854  1.0000
  H   H93       1.0  0.10597  0.39325  0.84758  1.0000
  C   C50       1.0  0.35508  0.18045  0.78254  1.0000
  C   C51       1.0  0.46758  0.33386  0.70174  1.0000
  H   H94       1.0  0.31253  0.46180  0.94424  1.0000
  C   C52       1.0  0.49180  0.02463  0.91585  1.0000
  H   H95       1.0  0.35533  0.15363  0.87494  1.0000
  Fe  Fe13      1.0  0.33491  0.37248  0.84710  1.0000
  C   C53       1.0  0.15474  0.47662  0.83387  1.0000
  C   C54       1.0  0.32372  0.40590  0.93752  1.0000
  C   C55       1.0  0.32980  0.07567  0.84743  1.0000
  C   C56       1.0  0.37267  0.06081  0.91976  1.0000
  C   C57       1.0  0.37904  0.32816  0.71541  1.0000
  Fe  Fe14      1.0  0.07306  0.39515  0.92707  1.0000
  H   H96       1.0  0.41951  0.39835  0.71073  1.0000
  H   H97       1.0  0.37336  0.29824  0.70221  1.0000
  H   H98       1.0  0.47487  0.20010  0.84976  1.0000
  S   S23       1.0  0.36457  0.36169  0.80105  1.0000
  C   C58       1.0  0.47597  0.16964  0.85379  1.0000
  C   C59       1.0  0.47869  0.01335  0.88301  1.0000
  H   H99       1.0  0.27802  0.32015  0.99235  1.0000
  H   H100      1.0  0.20992  0.34462  0.97638  1.0000
  H   H101      1.0  0.46716  0.15007  0.83092  1.0000
  H   H102      1.0  0.46188  0.16259  0.90569  1.0000
  H   H103      1.0  0.19234  0.40132  0.78544  1.0000
  C   C60       1.0  0.27821  0.39362  0.98824  1.0000
  C   C61       1.0  0.41384  0.24918  0.80457  1.0000
  C   C62       1.0  0.37779  0.10627  0.91327  1.0000
  C   C63       1.0  0.49648  0.49074  0.94870  1.0000
  H   H104      1.0  0.45262  0.11439  0.88570  1.0000
  H   H105      1.0  0.22142  0.40056  0.97710  1.0000
  H   H106      1.0  0.39701  0.12752  0.93417  1.0000
  N   N5        1.0  0.46410  0.37287  0.71304  1.0000
  C   C64       1.0  0.44732  0.14274  0.88315  1.0000
  Fe  Fe15      1.0  0.46119  0.04137  0.73697  1.0000
  S   S24       1.0  0.39453  0.02484  0.71812  1.0000
  C   C65       1.0  0.38427  0.16467  0.77699  1.0000
  H   H107      1.0  0.34480  0.10296  0.91607  1.0000
  H   H108      1.0  0.41593  0.28195  0.73361  1.0000
  N   N6        1.0  0.31173  0.38557  0.97131  1.0000
  N   N7        1.0  0.39895  0.12740  0.88094  1.0000
  C   C66       1.0  0.35324  0.40683  0.99150  1.0000
  Fe  Fe16      1.0  0.39311  0.06553  0.76108  1.0000
  H   H109      1.0  0.28554  0.31933  0.91720  1.0000
  C   C67       1.0  0.15086  0.43089  0.78720  1.0000
  H   H110      1.0  0.47760  0.25447  0.80417  1.0000
  S   S25       1.0  0.45190  0.03787  0.86279  1.0000
  S   S26       1.0  0.43413  0.30125  0.82382  1.0000
  H   H111      1.0  0.44415  0.35018  0.76330  1.0000
  H   H112      1.0  0.40437  0.06131  0.91802  1.0000
  C   C68       1.0  0.18377  0.33787  0.87696  1.0000
  H   H113      1.0  0.37895  0.32326  0.74223  1.0000
  S   S27       1.0  0.26042  0.34251  0.85494  1.0000
  H   H114      1.0  0.31108  0.07177  0.87025  1.0000
  H   H115      1.0  0.45171  0.18080  0.77980  1.0000
  H   H116      1.0  0.15156  0.37851  0.81694  1.0000
  H   H117      1.0  0.07930  0.43511  0.77056  1.0000
  H   H118      1.0  0.31589  0.04223  0.83705  1.0000
  C   C69       1.0  0.22883  0.36564  0.87038  1.0000
  H   H119      1.0  0.32074  0.15987  0.77650  1.0000
  C   C70       1.0  0.42101  0.36877  0.70286  1.0000
  S   S28       1.0  0.37420  0.35316  0.87976  1.0000
  H   H120      1.0  0.38746  0.06867  0.85468  1.0000
  C   C71       1.0  0.36967  0.22233  0.79628  1.0000
  H   H121      1.0  0.28172  0.43238  0.87147  1.0000
  C   C72       1.0  0.24739  0.41042  0.87693  1.0000
  H   H122      1.0  0.16581  0.46129  0.85256  1.0000
  H   H123      1.0  0.19954  0.43215  0.82191  1.0000
  H   H124      1.0  0.40433  0.22879  0.89150  1.0000
  C   C73       1.0  0.44325  0.23387  0.79822  1.0000
  H   H125      1.0  0.35980  0.05009  0.94506  1.0000
  H   H126      1.0  0.39530  0.11164  0.82925  1.0000
  H   H127      1.0  0.34659  0.23356  0.80082  1.0000
  H   H128      1.0  0.35035  0.40152  0.92674  1.0000
  C   C74       1.0  0.29602  0.33708  0.96949  1.0000
  H   H129      1.0  0.23829  0.38212  0.94317  1.0000
  C   C75       1.0  0.26631  0.31121  0.94041  1.0000
  H   H130      1.0  0.29643  0.38930  0.91994  1.0000
  H   H131      1.0  0.35041  0.33235  0.71011  1.0000
  S   S29       1.0  0.46157  0.41956  0.83663  1.0000
  S   S30       1.0  0.43290  0.47264  0.75857  1.0000
  C   C76       1.0  0.22163  0.42676  0.89096  1.0000
  H   H132      1.0  0.25285  0.27563  0.94462  1.0000
  H   H133      1.0  0.32454  0.33154  0.96781  1.0000
  H   H134      1.0  0.40104  0.19349  0.92427  1.0000
  C   C77       1.0  0.23469  0.37896  0.97006  1.0000
  S   S31       1.0  0.46176  0.08630  0.77677  1.0000
  C   C78       1.0  0.37967  0.09553  0.85289  1.0000
  H   H135      1.0  0.37987  0.40414  0.97871  1.0000
  S   S32       1.0  0.44421  0.45560  0.93123  1.0000
  C   C79       1.0  0.41296  0.20365  0.89877  1.0000
  C   C80       1.0  0.17458  0.40950  0.80424  1.0000
  H   H136      1.0  0.32348  0.09610  0.83000  1.0000
  H   H137      1.0  0.23667  0.46131  0.89648  1.0000
  H   H138      1.0  0.23806  0.31629  0.93702  1.0000
  H   H139      1.0  0.16889  0.30321  0.87185  1.0000
  H   H140      1.0  0.40186  0.17816  0.84945  1.0000
  C   C81       1.0  0.15784  0.35429  0.89059  1.0000
  C   C82       1.0  0.39111  0.16498  0.87457  1.0000
  C   C83       1.0  0.42865  0.19197  0.78454  1.0000
  N   N8        1.0  0.12426  0.44284  0.80955  1.0000
  H   H141      1.0  0.12343  0.33230  0.89586  1.0000
  Fe  Fe17      1.0  0.41661  0.43270  0.80576  1.0000
  H   H142      1.0  0.44927  0.21999  0.89794  1.0000
  Fe  Fe18      1.0  0.43094  0.02658  0.80908  1.0000
  Fe  Fe19      1.0  0.40783  0.34838  0.83385  1.0000
  H   H143      1.0  0.13025  0.40877  0.76715  1.0000
  H   H144      1.0  0.46855  0.49095  0.99594  1.0000
  S   S33       1.0  0.36361  0.11084  0.76072  1.0000
  Fe  Fe20      1.0  0.42465  0.42522  0.88005  1.0000
  C   C84       1.0  0.17675  0.39882  0.89811  1.0000
  S   S34       1.0  0.38369  0.44427  0.84926  1.0000
  H   H145      1.0  0.45069  0.26666  0.71264  1.0000
  H   H146      1.0  0.36592  0.44249  0.99462  1.0000
  H   H147      1.0  0.10405  0.47782  0.86519  1.0000
  S   S35       1.0  0.36163  0.00729  0.79538  1.0000
  H   H148      1.0  0.47117  0.30182  0.74732  1.0000
  H   H149      1.0  0.07714  0.46519  0.80372  1.0000
  H   H150      1.0  0.05093  0.68294  0.31359  1.0000
  Fe  Fe21      1.0  0.35685  0.97581  0.25741  1.0000
  S   S36       1.0  0.30850  0.90175  0.25242  1.0000
  H   H151      1.0  0.31080  0.81782  0.13332  1.0000
  S   S37       1.0  0.09816  0.66481  0.17749  1.0000
  H   H152      1.0  0.14287  0.78461  0.27235  1.0000
  S   S38       1.0  0.02756  0.68418  0.14018  1.0000
  Fe  Fe22      1.0  0.04919  0.63410  0.13671  1.0000
  S   S39       1.0  0.07100  0.61936  0.08798  1.0000
  Fe  Fe23      1.0  0.07272  0.71107  0.18402  1.0000
  S   S40       1.0  0.11594  0.78522  0.19186  1.0000
  H   H153      1.0  0.14283  0.59219  0.12349  1.0000
  C   C85       1.0  0.25522  0.87040  0.23487  1.0000
  C   C86       1.0  0.23048  0.88924  0.22467  1.0000
  C   C87       1.0  0.18825  0.86278  0.21122  1.0000
  C   C88       1.0  0.17041  0.81732  0.20727  1.0000
  C   C89       1.0  0.19569  0.79868  0.21660  1.0000
  C   C90       1.0  0.23754  0.82495  0.23067  1.0000
  H   H154      1.0  0.24355  0.92409  0.22759  1.0000
  H   H155      1.0  0.16911  0.87765  0.20400  1.0000
  H   H156      1.0  0.18277  0.76399  0.21315  1.0000
  H   H157      1.0  0.25650  0.81003  0.23817  1.0000
  C   C91       1.0  0.38483  0.89866  0.12575  1.0000
  H   H158      1.0  0.30450  0.88804  0.13491  1.0000
  C   C92       1.0  0.36048  0.97113  0.14306  1.0000
  H   H159      1.0  0.05305  0.61742  0.32781  1.0000
  C   C93       1.0  0.03916  0.54773  0.27895  1.0000
  H   H160      1.0  0.18964  0.71405  0.25154  1.0000
  C   C94       1.0  0.04711  0.56789  0.06799  1.0000
  C   C95       1.0  0.06770  0.56323  0.03983  1.0000
  Fe  Fe24      1.0  0.04314  0.61920  0.21127  1.0000
  C   C96       1.0  0.42894  0.90699  0.19378  1.0000
  H   H161      1.0  0.36965  0.84952  0.18136  1.0000
  H   H162      1.0  0.32577  0.96023  0.14947  1.0000
  H   H163      1.0  0.15639  0.66591  0.27442  1.0000
  H   H164      1.0  0.13723  0.54908  0.21278  1.0000
  H   H165      1.0  0.09715  0.59128  0.03036  1.0000
  C   C97       1.0  0.43054  0.93673  0.11562  1.0000
  H   H166      1.0  0.43327  0.89319  0.21706  1.0000
  H   H167      1.0  0.44710  0.90003  0.17463  1.0000
  H   H168      1.0  0.36842  0.95184  0.19153  1.0000
  H   H169      1.0  0.07143  0.66612  0.28055  1.0000
  H   H170      1.0  0.07455  0.51773  0.10389  1.0000
  S   S41       1.0  0.01981  0.66734  0.22016  1.0000
  H   H171      1.0  0.38688  0.86816  0.12547  1.0000
  H   H172      1.0  0.41526  0.97131  0.16629  1.0000
  S   S42       1.0  0.06834  0.59022  0.24983  1.0000
  C   C98       1.0  0.48672  0.50754  0.24016  1.0000
  C   C99       1.0  0.15863  0.69688  0.26595  1.0000
  H   H173      1.0  0.07717  0.77926  0.30368  1.0000
  H   H174      1.0  0.18908  0.75916  0.29061  1.0000
  H   H175      1.0  0.44207  0.92717  0.09332  1.0000
  H   H176      1.0  0.07317  0.77969  0.26008  1.0000
  C   C100      1.0  0.31648  0.87736  0.15628  1.0000
  C   C101      1.0  0.04153  0.50337  0.32437  1.0000
  S   S43       1.0  0.45324  0.50123  0.27470  1.0000
  H   H177      1.0  0.12177  0.51735  0.11801  1.0000
  C   C102      1.0  0.13942  0.58806  0.15061  1.0000
  C   C103      1.0  0.07398  0.76017  0.28122  1.0000
  N   N9        1.0  0.36603  0.90305  0.15810  1.0000
  H   H178      1.0  0.13154  0.68915  0.24872  1.0000
  H   H179      1.0  0.10736  0.73511  0.25239  1.0000
  N   N10       1.0  0.11994  0.72706  0.30326  1.0000
  H   H180      1.0  0.36266  0.96398  0.11683  1.0000
  H   H181      1.0  0.08213  0.51481  0.22757  1.0000
  C   C104      1.0  0.11292  0.75217  0.27633  1.0000
  C   C105      1.0  0.16118  0.72560  0.29560  1.0000
  H   H182      1.0  0.30171  0.88379  0.17830  1.0000
  H   H183      1.0  0.09854  0.55393  0.29917  1.0000
  C   C106      1.0  0.37914  0.94976  0.16611  1.0000
  C   C107      1.0  0.37958  0.88432  0.18603  1.0000
  H   H184      1.0  0.49138  0.56854  0.22573  1.0000
  H   H185      1.0  0.26000  0.81308  0.14683  1.0000
  H   H186      1.0  0.16147  0.57642  0.15964  1.0000
  C   C108      1.0  0.06308  0.53665  0.30064  1.0000
  H   H187      1.0  0.42945  0.96668  0.10907  1.0000
  H   H188      1.0  0.15072  0.62101  0.16119  1.0000
  C   C109      1.0  0.08566  0.50166  0.12188  1.0000
  H   H189      1.0  0.29615  0.81208  0.17672  1.0000
  C   C110      1.0  0.29529  0.82723  0.15304  1.0000
  H   H190      1.0  0.44395  0.94264  0.19782  1.0000
  C   C111      1.0  0.05083  0.52242  0.02396  1.0000
  H   H191      1.0  0.36272  0.89486  0.10496  1.0000
  C   C112      1.0  0.00903  0.53145  0.07997  1.0000
  C   C113      1.0  0.08037  0.68163  0.30520  1.0000
  H   H192      1.0  0.36242  0.88433  0.20913  1.0000
  H   H193      1.0  0.07080  0.56637  0.14503  1.0000
  C   C114      1.0  0.09100  0.55700  0.16032  1.0000
  H   H194      1.0  0.17114  0.71349  0.31732  1.0000
  C   C115      1.0  0.12549  0.74922  0.33602  1.0000
  C   C116      1.0  0.16076  0.79829  0.33733  1.0000
  H   H195      1.0  0.08670  0.56543  0.18577  1.0000
  H   H196      1.0  0.45581  0.94527  0.13458  1.0000
  N   N11       1.0  0.07518  0.50880  0.15664  1.0000
  H   H197      1.0  0.47503  0.97522  0.33477  1.0000
  S   S44       1.0  0.42821  0.99328  0.25463  1.0000
  H   H198      1.0  0.01928  0.52105  0.20194  1.0000
  H   H199      1.0  0.15258  0.81867  0.32143  1.0000
  H   H200      1.0  0.04204  0.72917  0.28136  1.0000
  C   C117      1.0  0.08427  0.64932  0.32855  1.0000
  H   H201      1.0  0.19390  0.80411  0.33085  1.0000
  C   C118      1.0  0.10967  0.51485  0.21444  1.0000
  H   H202      1.0  0.11050  0.64251  0.32089  1.0000
  H   H203      1.0  0.46932  0.50488  0.50274  1.0000
  H   H204      1.0  0.13549  0.52923  0.52184  1.0000
  H   H205      1.0  0.35677  0.79165  0.67140  1.0000
  C   C119      1.0  0.48291  0.93907  0.46943  1.0000
  C   C120      1.0  0.05259  0.56315  0.57279  1.0000
  H   H206      1.0  0.13464  0.73290  0.35526  1.0000
  C   C121      1.0  0.35047  0.89741  0.64866  1.0000
  H   H207      1.0  0.47231  0.91264  0.60653  1.0000
  H   H208      1.0  0.34204  0.87143  0.63029  1.0000
  H   H209      1.0  0.48251  0.94245  0.65571  1.0000
  H   H210      1.0  0.38039  0.84016  0.62823  1.0000
  H   H211      1.0  0.21651  0.51814  0.51348  1.0000
  H   H212      1.0  0.19727  0.53299  0.54802  1.0000
  H   H213      1.0  0.15594  0.50170  0.45497  1.0000
  H   H214      1.0  0.19271  0.54988  0.47857  1.0000
  N   N12       1.0  0.41683  0.88844  0.66625  1.0000
  H   H215      1.0  0.14256  0.54325  0.46288  1.0000
  C   C122      1.0  0.41459  0.86412  0.63513  1.0000
  C   C123      1.0  0.39437  0.98399  0.50749  1.0000
  Fe  Fe25      1.0  0.05298  0.62839  0.64242  1.0000
  S   S45       1.0  0.03345  0.68029  0.64350  1.0000
  C   C124      1.0  0.45859  0.95798  0.48908  1.0000
  C   C125      1.0  0.02807  0.52392  0.59008  1.0000
  H   H216      1.0  0.05282  0.52035  0.49719  1.0000
  H   H217      1.0  0.42932  0.87136  0.58273  1.0000
  H   H218      1.0  0.32585  0.88463  0.66885  1.0000
  C   C126      1.0  0.43605  0.89288  0.60444  1.0000
  H   H219      1.0  0.38966  0.95725  0.52439  1.0000
  H   H220      1.0  0.42256  0.91461  0.59903  1.0000
  H   H221      1.0  0.47828  0.93953  0.44254  1.0000
  H   H222      1.0  0.16267  0.81032  0.36285  1.0000
  S   S46       1.0  0.07105  0.61483  0.59148  1.0000
  H   H223      1.0  0.41893  0.94693  0.64695  1.0000
  H   H224      1.0  0.43043  0.84390  0.63898  1.0000
  H   H225      1.0  0.08038  0.59174  0.52568  1.0000
  H   H226      1.0  0.02078  0.52470  0.61585  1.0000
  H   H227      1.0  0.34700  0.92310  0.63552  1.0000
  H   H228      1.0  0.47017  0.90444  0.47678  1.0000
  H   H229      1.0  0.42316  0.93299  0.48728  1.0000
  C   C127      1.0  0.15789  0.52532  0.47383  1.0000
  C   C128      1.0  0.06167  0.56152  0.53928  1.0000
  C   C129      1.0  0.04610  0.52112  0.52307  1.0000
  H   H230      1.0  0.42230  0.96579  0.43835  1.0000
  H   H231      1.0  0.37708  0.96956  0.48412  1.0000
  H   H232      1.0  0.08921  0.66053  0.35442  1.0000
  H   H233      1.0  0.46747  0.95873  0.51545  1.0000
  S   S47       1.0  0.99791  0.58168  0.67551  1.0000
  H   H234      1.0  0.23959  0.50785  0.57230  1.0000
  C   C130      1.0  0.39751  0.91790  0.66230  1.0000
  H   H235      1.0  0.09392  0.74595  0.34470  1.0000
  H   H236      1.0  0.10622  0.50562  0.56996  1.0000
  C   C131      1.0  0.19383  0.50373  0.53483  1.0000
  C   C132      1.0  0.13276  0.50255  0.50571  1.0000
  H   H237      1.0  0.14803  0.49962  0.59125  1.0000
  H   H238      1.0  0.32665  0.82068  0.67542  1.0000
  C   C133      1.0  0.46489  0.91669  0.67461  1.0000
  H   H239      1.0  0.48152  0.89684  0.67488  1.0000
  Fe  Fe26      1.0  0.04455  0.61641  0.71741  1.0000
  S   S48       1.0  0.02276  0.66624  0.72289  1.0000
  C   C134      1.0  0.03854  0.54557  0.78718  1.0000
  C   C135      1.0  0.05498  0.54435  0.81839  1.0000
  S   S49       1.0  0.06417  0.59557  0.76476  1.0000
  H   H240      1.0  0.06315  0.71487  0.80660  1.0000
  H   H241      1.0  0.06932  0.74172  0.76817  1.0000
  H   H242      1.0  0.10173  0.77309  0.80168  1.0000
  C   C136      1.0  0.08752  0.74048  0.78998  1.0000
  H   H243      1.0  0.06719  0.51920  0.00245  1.0000
  C   C137      1.0  0.03634  0.50529  0.83694  1.0000
  H   H244      1.0  0.04896  0.50493  0.86103  1.0000
  C   C138      1.0  0.00341  0.50716  0.77457  1.0000
  H   H245      1.0  0.08213  0.57386  0.82840  1.0000
  H   H246      1.0  0.20650  0.75106  0.76981  1.0000
  S   S50       1.0  0.10143  0.65926  0.68380  1.0000
  C   C139      1.0  0.48723  0.98318  0.86721  1.0000
  C   C140      1.0  0.48507  0.50200  0.73932  1.0000
  Fe  Fe27      1.0  0.07791  0.70752  0.68762  1.0000
  C   C141      1.0  0.19806  0.81419  0.80324  1.0000
  H   H247      1.0  0.46276  0.96446  0.70826  1.0000
  H   H248      1.0  0.13073  0.52351  0.83702  1.0000
  C   C142      1.0  0.48818  0.52032  0.70805  1.0000
  C   C143      1.0  0.13548  0.50085  0.85307  1.0000
  S   S51       1.0  0.12151  0.78122  0.69756  1.0000
  H   H249      1.0  0.10546  0.66111  0.81398  1.0000
  H   H250      1.0  0.15872  0.52081  0.87274  1.0000
  H   H251      1.0  0.12845  0.65524  0.86965  1.0000
  H   H252      1.0  0.10207  0.69784  0.84163  1.0000
  H   H253      1.0  0.19227  0.76033  0.70397  1.0000
  H   H254      1.0  0.39656  0.93252  0.68633  1.0000
  H   H255      1.0  0.18572  0.50175  0.82197  1.0000
  H   H256      1.0  0.45909  0.51754  0.69682  1.0000
  C   C144      1.0  0.17370  0.77168  0.82377  1.0000
  H   H257      1.0  0.17665  0.81758  0.78502  1.0000
  H   H258      1.0  0.21021  0.84283  0.81993  1.0000
  H   H259      1.0  0.46196  0.91858  0.72903  1.0000
  C   C145      1.0  0.24048  0.88355  0.72537  1.0000
  H   H260      1.0  0.11334  0.52152  0.76664  1.0000
  C   C146      1.0  0.13011  0.50199  0.76880  1.0000
  H   H261      1.0  0.19842  0.77273  0.84121  1.0000
  C   C147      1.0  0.18881  0.72473  0.78830  1.0000
  S   S52       1.0  0.32330  0.89558  0.74056  1.0000
  H   H262      1.0  0.41703  0.84545  0.70431  1.0000
  C   C148      1.0  0.17408  0.68137  0.76987  1.0000
  H   H263      1.0  0.16207  0.52396  0.78041  1.0000
  C   C149      1.0  0.19620  0.85759  0.71566  1.0000
  H   H264      1.0  0.38827  0.87305  0.71524  1.0000
  H   H265      1.0  0.25357  0.91776  0.73130  1.0000
  N   N13       1.0  0.15282  0.72947  0.80456  1.0000
  H   H266      1.0  0.21429  0.72907  0.80639  1.0000
  H   H267      1.0  0.10458  0.69690  0.76627  1.0000
  H   H268      1.0  0.17358  0.67155  0.84220  1.0000
  H   H269      1.0  0.17559  0.87221  0.71429  1.0000
  Fe  Fe28      1.0  0.36796  0.96827  0.75396  1.0000
  H   H270      1.0  0.22736  0.81700  0.79062  1.0000
  C   C150      1.0  0.15204  0.68249  0.85361  1.0000
  H   H271      1.0  0.26996  0.80564  0.72159  1.0000
  H   H272      1.0  0.14174  0.75250  0.75831  1.0000
  C   C151      1.0  0.12597  0.69200  0.82775  1.0000
  S   S53       1.0  0.43526  0.98321  0.77083  1.0000
  H   H273      1.0  0.47718  0.97411  0.84199  1.0000
  H   H274      1.0  0.17177  0.71101  0.86970  1.0000
  C   C152      1.0  0.26748  0.86508  0.72761  1.0000
  C   C153      1.0  0.39485  0.85667  0.69433  1.0000
  C   C154      1.0  0.20545  0.79457  0.70986  1.0000
  C   C155      1.0  0.12272  0.72949  0.77837  1.0000
  C   C156      1.0  0.35130  0.81439  0.68693  1.0000
  H   H275      1.0  0.15268  0.67757  0.74876  1.0000
  C   C157      1.0  0.24961  0.82044  0.71975  1.0000
  C   C158      1.0  0.17828  0.81292  0.70795  1.0000
  H   H276      1.0  0.20348  0.68159  0.75959  1.0000
  H   H277      1.0  0.15726  0.65233  0.78610  1.0000
  C   C159      1.0  0.47505  0.94110  0.70769  1.0000
  H   H278      1.0  0.14904  0.77412  0.83949  1.0000
  H   H279      1.0  0.33683  0.79705  0.71045  1.0000
  H   H280      1.0  0.55088  0.23300  0.15776  1.0000
  S   S54       1.0  0.68601  0.02458  0.04570  1.0000
  H   H281      1.0  0.91594  0.31068  0.07849  1.0000
  H   H282      1.0  0.86937  0.23636  0.06730  1.0000
  H   H283      1.0  0.50951  0.17461  0.21884  1.0000
  Fe  Fe29      1.0  0.61447  0.00354  0.05294  1.0000
  C   C160      1.0  0.94609  0.31797  0.03139  1.0000
  H   H284      1.0  0.51067  0.01897  0.19716  1.0000
  H   H285      1.0  0.94214  0.28483  0.02942  1.0000
  H   H286      1.0  0.78733  0.20883  0.02393  1.0000
  C   C161      1.0  0.54105  0.04019  0.10434  1.0000
  H   H287      1.0  0.52646  0.24341  0.24902  1.0000
  C   C162      1.0  0.55026  0.22573  0.18436  1.0000
  H   H288      1.0  0.86979  0.23380  0.02430  1.0000
  H   H289      1.0  0.96316  0.46241  0.07390  1.0000
  C   C163      1.0  0.50544  0.18646  0.19447  1.0000
  C   C164      1.0  0.80521  0.20591  0.04519  1.0000
  H   H290      1.0  0.54966  0.04645  0.07857  1.0000
  C   C165      1.0  0.51436  0.05485  0.11909  1.0000
  N   N14       1.0  0.86379  0.28830  0.04269  1.0000
  H   H291      1.0  0.80229  0.27457  0.11264  1.0000
  H   H292      1.0  0.97882  0.33978  0.04234  1.0000
  C   C166      1.0  0.49830  0.24809  0.24333  1.0000
  H   H293      1.0  0.50050  0.15967  0.17752  1.0000
  H   H294      1.0  0.85912  0.31774  0.11454  1.0000
  H   H295      1.0  0.97110  0.47111  0.19245  1.0000
  H   H296      1.0  0.50091  0.25939  0.17463  1.0000
  C   C167      1.0  0.83543  0.28722  0.10161  1.0000
  H   H297      1.0  0.92570  0.33687  0.33855  1.0000
  H   H298      1.0  0.84273  0.35109  0.01157  1.0000
  H   H299      1.0  0.84230  0.33106  0.06312  1.0000
  H   H300      1.0  0.78843  0.20613  0.06825  1.0000
  H   H301      1.0  0.91772  0.35318  0.05450  1.0000
  H   H302      1.0  0.50862  0.27712  0.22743  1.0000
  H   H303      1.0  0.79919  0.27775  0.05605  1.0000
  C   C168      1.0  0.51865  0.02462  0.17127  1.0000
  H   H304      1.0  0.57620  0.21708  0.18847  1.0000
  H   H305      1.0  0.80247  0.17318  0.04355  1.0000
  H   H306      1.0  0.84461  0.26204  0.10659  1.0000
  C   C169      1.0  0.54553  0.01020  0.15658  1.0000
  C   C170      1.0  0.83387  0.29621  0.06460  1.0000
  H   H307      1.0  0.55923  0.25564  0.19876  1.0000
  C   C171      1.0  0.50033  0.47740  0.23296  1.0000
  C   C172      1.0  0.91048  0.31867  0.05313  1.0000
  H   H308      1.0  0.54077  0.46238  0.20173  1.0000
  C   C173      1.0  0.55701  0.01801  0.12309  1.0000
  C   C174      1.0  0.85422  0.24159  0.04511  1.0000
  H   H309      1.0  0.50251  0.07231  0.10444  1.0000
  H   H310      1.0  0.84661  0.31032  0.33094  1.0000
  H   H311      1.0  0.82393  0.23757  0.32354  1.0000
  C   C175      1.0  0.50306  0.04717  0.15260  1.0000
  C   C176      1.0  0.52983  0.48550  0.20680  1.0000
  H   H312      1.0  0.62146  0.47133  0.23470  1.0000
  H   H313      1.0  0.93631  0.47435  0.30634  1.0000
  S   S55       1.0  0.59158  0.99968  0.10618  1.0000
  C   C177      1.0  0.99236  0.49055  0.06428  1.0000
  S   S56       1.0  0.99170  0.43315  0.01841  1.0000
  H   H314      1.0  0.79691  0.18548  0.34341  1.0000
  C   C178      1.0  0.79989  0.21837  0.34306  1.0000
  H   H315      1.0  0.76708  0.21327  0.33658  1.0000
  C   C179      1.0  0.99569  0.48068  0.32662  1.0000
  C   C180      1.0  0.97177  0.49167  0.30479  1.0000
  H   H316      1.0  0.61957  0.49559  0.29077  1.0000
  H   H317      1.0  0.57879  0.49551  0.26584  1.0000
  Fe  Fe30      1.0  0.68982  0.06438  0.50512  1.0000
  H   H318      1.0  0.87457  0.05898  0.56218  1.0000
  S   S57       1.0  0.74843  0.13444  0.50990  1.0000
  H   H319      1.0  0.83999  0.08894  0.59274  1.0000
  H   H320      1.0  0.82319  0.29329  0.46665  1.0000
  S   S58       1.0  0.62170  0.05186  0.49414  1.0000
  C   C181      1.0  0.89383  0.10488  0.52252  1.0000
  C   C182      1.0  0.56505  0.04201  0.39959  1.0000
  S   S59       1.0  0.92151  0.25415  0.42425  1.0000
  C   C183      1.0  0.49961  0.41570  0.65914  1.0000
  C   C184      1.0  0.80677  0.27933  0.44284  1.0000
  H   H321      1.0  0.75526  0.26265  0.38855  1.0000
  C   C185      1.0  0.79613  0.16698  0.48545  1.0000
  C   C186      1.0  0.80442  0.15193  0.45596  1.0000
  C   C187      1.0  0.84314  0.17881  0.43783  1.0000
  C   C188      1.0  0.87380  0.22128  0.44863  1.0000
  C   C189      1.0  0.86543  0.23637  0.47805  1.0000
  C   C190      1.0  0.82697  0.20930  0.49636  1.0000
  H   H322      1.0  0.78104  0.11958  0.44712  1.0000
  H   H323      1.0  0.84925  0.16671  0.41514  1.0000
  H   H324      1.0  0.88864  0.26885  0.48679  1.0000
  H   H325      1.0  0.82099  0.22135  0.51914  1.0000
  H   H326      1.0  0.52751  0.03249  0.50546  1.0000
  H   H327      1.0  0.53467  0.49196  0.41778  1.0000
  H   H328      1.0  0.52944  0.08724  0.44615  1.0000
  S   S60       1.0  0.66742  0.02111  0.55044  1.0000
  H   H329      1.0  0.90064  0.13392  0.53741  1.0000
  C   C191      1.0  0.81441  0.23913  0.37740  1.0000
  C   C192      1.0  0.56791  0.04645  0.65779  1.0000
  C   C193      1.0  0.85962  0.31545  0.35641  1.0000
  Fe  Fe31      1.0  0.59872  0.00459  0.53671  1.0000
  C   C194      1.0  0.82061  0.08999  0.57159  1.0000
  C   C195      1.0  0.53640  0.01638  0.60438  1.0000
  C   C196      1.0  0.51182  0.03746  0.35895  1.0000
  H   H330      1.0  0.84309  0.23602  0.38489  1.0000
  H   H331      1.0  0.86844  0.29619  0.42080  1.0000
  C   C197      1.0  0.52851  0.04378  0.66834  1.0000
  S   S61       1.0  0.96686  0.43845  0.35607  1.0000
  H   H332      1.0  0.60219  0.03446  0.61840  1.0000
  H   H333      1.0  0.59545  0.05881  0.67443  1.0000
  C   C198      1.0  0.79361  0.03843  0.48467  1.0000
  H   H334      1.0  0.55403  0.09517  0.38704  1.0000
  C   C199      1.0  0.55287  0.99831  0.39376  1.0000
  H   H335      1.0  0.83975  0.12394  0.56171  1.0000
  H   H336      1.0  0.79419  0.24362  0.44423  1.0000
  H   H337      1.0  0.59032  0.06087  0.41737  1.0000
  C   C200      1.0  0.53212  0.08217  0.47266  1.0000
  C   C201      1.0  0.78404  0.01089  0.55684  1.0000
  H   H338      1.0  0.81611  0.10114  0.50813  1.0000
  Fe  Fe32      1.0  0.97213  0.32759  0.42870  1.0000
  H   H339      1.0  0.56774  0.10132  0.47835  1.0000
  H   H340      1.0  0.99391  0.45334  0.58753  1.0000
  C   C202      1.0  0.49725  0.01448  0.61470  1.0000
  C   C203      1.0  0.49712  0.49591  0.45811  1.0000
  H   H341      1.0  0.75898  0.09138  0.56627  1.0000
  C   C204      1.0  0.79685  0.06596  0.51517  1.0000
  H   H342      1.0  0.91702  0.31775  0.37983  1.0000
  H   H343      1.0  0.51613  0.09638  0.48776  1.0000
  H   H344      1.0  0.89500  0.27934  0.34632  1.0000
  C   C205      1.0  0.54455  0.06140  0.38229  1.0000
  H   H345      1.0  0.78627  0.11173  0.60426  1.0000
  H   H346      1.0  0.77315  0.27865  0.34757  1.0000
  H   H347      1.0  0.82556  0.04213  0.47716  1.0000
  H   H348      1.0  0.77888  0.28540  0.44113  1.0000
  H   H349      1.0  0.88401  0.10874  0.49746  1.0000
  N   N15       1.0  0.81524  0.05707  0.54567  1.0000
  H   H350      1.0  0.76304  0.05967  0.51983  1.0000
  C   C206      1.0  0.85947  0.06154  0.53895  1.0000
  H   H351      1.0  0.79310  0.34299  0.40507  1.0000
  S   S62       1.0  0.95186  0.37782  0.43685  1.0000
  H   H352      1.0  0.92529  0.10492  0.51992  1.0000
  C   C207      1.0  0.77782  0.08587  0.58547  1.0000
  H   H353      1.0  0.87120  0.35052  0.36190  1.0000
  H   H354      1.0  0.75655  0.05402  0.59775  1.0000
  H   H355      1.0  0.53144  0.44344  0.65039  1.0000
  H   H356      1.0  0.85443  0.33750  0.41703  1.0000
  N   N16       1.0  0.82445  0.28585  0.38052  1.0000
  C   C208      1.0  0.51559  0.03366  0.48039  1.0000
  C   C209      1.0  0.84069  0.30149  0.41485  1.0000
  H   H357      1.0  0.78202  0.04983  0.46359  1.0000
  C   C210      1.0  0.57187  0.03277  0.62600  1.0000
  H   H358      1.0  0.74984  0.00480  0.55861  1.0000
  H   H359      1.0  0.85616  0.03406  0.52340  1.0000
  H   H360      1.0  0.78759  0.21729  0.39452  1.0000
  S   S63       1.0  0.68351  0.01073  0.47175  1.0000
  H   H361      1.0  0.76918  0.00325  0.48831  1.0000
  C   C211      1.0  0.78656  0.33237  0.37908  1.0000
  C   C212      1.0  0.78329  0.28750  0.37359  1.0000
  H   H362      1.0  0.81206  0.35828  0.36326  1.0000
  H   H363      1.0  0.79627  0.01789  0.61053  1.0000
  H   H364      1.0  0.75469  0.32972  0.37258  1.0000
  C   C213      1.0  0.90134  0.31157  0.35549  1.0000
  H   H365      1.0  0.53383  0.02388  0.46331  1.0000
  H   H366      1.0  0.86182  0.49555  0.60007  1.0000
  H   H367      1.0  0.88234  0.16337  0.98243  1.0000
  C   C214      1.0  0.72474  0.13288  0.85155  1.0000
  H   H368      1.0  0.59659  0.08761  0.94576  1.0000
  H   H369      1.0  0.69906  0.12263  0.90036  1.0000
  H   H370      1.0  0.90038  0.36866  0.00533  1.0000
  H   H371      1.0  0.65231  0.12600  0.93650  1.0000
  S   S64       1.0  0.95206  0.36990  0.93788  1.0000
  H   H372      1.0  0.80217  0.11371  0.99100  1.0000
  S   S65       1.0  0.93362  0.24970  0.95506  1.0000
  H   H373      1.0  0.72189  0.14566  0.82738  1.0000
  S   S66       1.0  0.52460  0.05987  0.70900  1.0000
  C   C215      1.0  0.68893  0.12818  0.87591  1.0000
  H   H374      1.0  0.69144  0.16085  0.87820  1.0000
  C   C216      1.0  0.62456  0.09338  0.92967  1.0000
  H   H375      1.0  0.75742  0.15700  0.86158  1.0000
  H   H376      1.0  0.53780  0.42749  0.76013  1.0000
  C   C217      1.0  0.78387  0.15684  0.96765  1.0000
  H   H377      1.0  0.86237  0.34561  0.97254  1.0000
  C   C218      1.0  0.84545  0.22533  0.94609  1.0000
  C   C219      1.0  0.87563  0.21378  0.95780  1.0000
  C   C220      1.0  0.85943  0.17292  0.97350  1.0000
  C   C221      1.0  0.81391  0.14462  0.97841  1.0000
  H   H378      1.0  0.53320  0.41854  0.70336  1.0000
  H   H379      1.0  0.85723  0.25628  0.93352  1.0000
  C   C222      1.0  0.51315  0.00581  0.93282  1.0000
  C   C223      1.0  0.98519  0.46796  0.79293  1.0000
  H   H380      1.0  0.63263  0.06773  0.93564  1.0000
  C   C224      1.0  0.65492  0.03109  0.88903  1.0000
  H   H381      1.0  0.55956  0.08303  0.84200  1.0000
  S   S67       1.0  0.72637  0.12465  0.97569  1.0000
  H   H382      1.0  0.51131  0.38582  0.79065  1.0000
  H   H383      1.0  0.72471  0.10165  0.84834  1.0000
  H   H384      1.0  0.77712  0.20699  0.94263  1.0000
  N   N17       1.0  0.64254  0.09373  0.86742  1.0000
  C   C225      1.0  0.63090  0.10758  0.83562  1.0000
  H   H385      1.0  0.68286  0.05619  0.90324  1.0000
  C   C226      1.0  0.61115  0.09216  0.89353  1.0000
  C   C227      1.0  0.63744  0.04905  0.86212  1.0000
  H   H386      1.0  0.57197  0.04510  0.82108  1.0000
  H   H387      1.0  0.57855  0.09258  0.80058  1.0000
  H   H388      1.0  0.50240  0.34339  0.69665  1.0000
  C   C228      1.0  0.79997  0.19720  0.95120  1.0000
  H   H389      1.0  0.63860  0.14229  0.83709  1.0000
  H   H390      1.0  0.65087  0.10635  0.81480  1.0000
  S   S68       1.0  0.97843  0.41598  0.84552  1.0000
  H   H391      1.0  0.52267  0.01435  0.95818  1.0000
  H   H392      1.0  0.60528  0.12025  0.89071  1.0000
  H   H393      1.0  0.57857  0.06225  0.89060  1.0000
  H   H394      1.0  0.62814  0.00989  0.90628  1.0000
  H   H395      1.0  0.52807  0.37281  0.75262  1.0000
  C   C229      1.0  0.58243  0.08013  0.82468  1.0000
  Fe  Fe33      1.0  0.68277  0.05628  0.99846  1.0000
  H   H396      1.0  0.95823  0.43833  0.78284  1.0000
  H   H397      1.0  0.52099  0.49200  0.77769  1.0000
  Fe  Fe34      1.0  0.97618  0.32204  0.94005  1.0000
  H   H398      1.0  0.94682  0.33095  0.00650  1.0000
  H   H399      1.0  0.50006  0.44318  0.70623  1.0000
  C   C230      1.0  0.51428  0.39202  0.76374  1.0000
  H   H400      1.0  0.82234  0.27405  0.99991  1.0000
  H   H401      1.0  0.60215  0.02390  0.85933  1.0000
  H   H402      1.0  0.87724  0.28961  0.99061  1.0000
  H   H403      1.0  0.65230  0.04738  0.83832  1.0000
  C   C231      1.0  0.86628  0.34337  0.99942  1.0000
  H   H404      1.0  0.66729  0.01076  0.87751  1.0000
  H   H405      1.0  0.51071  0.17961  0.85893  1.0000
  S   S69       1.0  0.61269  0.04010  0.00810  1.0000
  C   C232      1.0  0.85676  0.29671  0.00754  1.0000
  C   C233      1.0  0.50036  0.41374  0.69700  1.0000
  H   H406      1.0  0.60295  0.85063  0.04372  1.0000
  H   H407      1.0  0.57582  0.84475  0.14920  1.0000
  Fe  Fe35      1.0  0.97662  0.63710  0.17564  1.0000
  Fe  Fe36      1.0  0.71497  0.65735  0.09996  1.0000
  S   S70       1.0  0.66918  0.66270  0.13638  1.0000
  S   S71       1.0  0.78929  0.68841  0.10830  1.0000
  Fe  Fe37      1.0  0.64064  0.60995  0.04906  1.0000
  S   S72       1.0  0.59004  0.61105  0.08219  1.0000
  H   H408      1.0  0.86257  0.54662  0.06907  1.0000
  Fe  Fe38      1.0  0.64192  0.68130  0.09284  1.0000
  S   S73       1.0  0.61820  0.73148  0.09301  1.0000
  Fe  Fe39      1.0  0.62130  0.59268  0.12267  1.0000
  S   S74       1.0  0.58751  0.53485  0.15813  1.0000
  S   S75       1.0  0.69087  0.68098  0.05746  1.0000
  S   S76       1.0  0.66877  0.58664  0.08846  1.0000
  H   H409      1.0  0.61749  0.89604  0.18688  1.0000
  S   S77       1.0  0.90251  0.61095  0.17222  1.0000
  C   C234      1.0  0.61498  0.58047  0.25389  1.0000
  C   C235      1.0  0.81963  0.66678  0.12786  1.0000
  C   C236      1.0  0.86533  0.69389  0.13170  1.0000
  C   C237      1.0  0.89114  0.67773  0.14569  1.0000
  C   C238      1.0  0.87153  0.63409  0.15607  1.0000
  C   C239      1.0  0.82576  0.60714  0.15263  1.0000
  C   C240      1.0  0.79997  0.62327  0.13859  1.0000
  H   H410      1.0  0.88091  0.72764  0.12364  1.0000
  H   H411      1.0  0.92617  0.69906  0.14838  1.0000
  H   H412      1.0  0.81013  0.57336  0.16061  1.0000
  H   H413      1.0  0.76493  0.60197  0.13582  1.0000
  H   H414      1.0  0.67187  0.52088  0.24156  1.0000
  C   C241      1.0  0.66966  0.86443  0.03998  1.0000
  C   C242      1.0  0.62528  0.83862  0.04853  1.0000
  C   C243      1.0  0.60995  0.79762  0.06404  1.0000
  C   C244      1.0  0.63854  0.78155  0.07080  1.0000
  C   C245      1.0  0.68251  0.80654  0.06105  1.0000
  C   C246      1.0  0.94464  0.65345  0.07747  1.0000
  H   H415      1.0  0.57577  0.77841  0.07118  1.0000
  H   H416      1.0  0.70499  0.79478  0.06611  1.0000
  C   C247      1.0  0.86826  0.62641  0.05905  1.0000
  C   C248      1.0  0.54618  0.52382  0.18772  1.0000
  H   H417      1.0  0.61052  0.63062  0.28396  1.0000
  C   C249      1.0  0.82561  0.59124  0.04274  1.0000
  N   N18       1.0  0.64100  0.89872  0.13732  1.0000
  H   H418      1.0  0.55001  0.54038  0.34005  1.0000
  H   H419      1.0  0.57918  0.55990  0.25013  1.0000
  H   H420      1.0  0.73225  0.86718  0.03916  1.0000
  H   H421      1.0  0.63008  0.58148  0.22959  1.0000
  S   S78       1.0  0.58968  0.93944  0.02614  1.0000
  C   C250      1.0  0.70106  0.56851  0.30469  1.0000
  C   C251      1.0  0.53156  0.55335  0.19427  1.0000
  C   C252      1.0  0.56596  0.89165  0.12325  1.0000
  C   C253      1.0  0.67939  0.58695  0.28174  1.0000
  C   C254      1.0  0.56053  0.54116  0.31415  1.0000
  N   N19       1.0  0.90525  0.61649  0.06066  1.0000
  S   S79       1.0  0.69182  0.91817  0.02322  1.0000
  C   C255      1.0  0.61083  0.56061  0.31293  1.0000
  C   C256      1.0  0.62480  0.62759  0.26049  1.0000
  H   H422      1.0  0.97474  0.65139  0.07255  1.0000
  H   H423      1.0  0.69423  0.53546  0.29726  1.0000
  H   H424      1.0  0.63763  0.94776  0.16742  1.0000
  H   H425      1.0  0.69309  0.96604  0.20395  1.0000
  H   H426      1.0  0.54447  0.68224  0.04523  1.0000
  C   C257      1.0  0.68708  0.93676  0.18956  1.0000
  H   H427      1.0  0.60957  0.63705  0.24062  1.0000
  H   H428      1.0  0.94005  0.65069  0.10465  1.0000
  C   C258      1.0  0.64093  0.82999  0.15939  1.0000
  H   H429      1.0  0.57461  0.90912  0.09932  1.0000
  H   H430      1.0  0.54014  0.54056  0.02231  1.0000
  H   H431      1.0  0.61811  0.54153  0.33106  1.0000
  H   H432      1.0  0.95145  0.58900  0.10523  1.0000
  C   C259      1.0  0.64385  0.91988  0.17020  1.0000
  H   H433      1.0  0.87781  0.65750  0.04605  1.0000
  H   H434      1.0  0.97448  0.53322  0.26461  1.0000
  H   H435      1.0  0.89160  0.57524  0.01740  1.0000
  H   H436      1.0  0.66339  0.85961  0.11185  1.0000
  H   H437      1.0  0.53061  0.86646  0.12190  1.0000
  H   H438      1.0  0.87494  0.57909  0.10501  1.0000
  H   H439      1.0  0.58955  0.84922  0.10688  1.0000
  H   H440      1.0  0.61004  0.80376  0.14839  1.0000
  H   H441      1.0  0.63445  0.83759  0.18451  1.0000
  H   H442      1.0  0.72894  0.94434  0.10986  1.0000
  H   H443      1.0  0.54384  0.58291  0.17976  1.0000
  H   H444      1.0  0.65177  0.91680  0.08595  1.0000
  H   H445      1.0  0.71679  0.94683  0.17451  1.0000
  H   H446      1.0  0.80912  0.56061  0.05739  1.0000
  C   C260      1.0  0.66258  0.87094  0.13719  1.0000
  C   C261      1.0  0.66076  0.93279  0.11047  1.0000
  C   C262      1.0  0.92425  0.56323  0.09063  1.0000
  C   C263      1.0  0.69792  0.84771  0.04583  1.0000
  H   H447      1.0  0.69752  0.88963  0.14432  1.0000
  C   C264      1.0  0.88939  0.57580  0.08150  1.0000
  N   N20       1.0  0.63006  0.56046  0.27973  1.0000
  C   C265      1.0  0.61474  0.51362  0.27029  1.0000
  H   H448      1.0  0.80214  0.60364  0.04162  1.0000
  H   H449      1.0  0.66320  0.81626  0.16140  1.0000
  H   H450      1.0  0.66052  0.65146  0.25965  1.0000
  C   C266      1.0  0.59308  0.86896  0.12918  1.0000
  C   C267      1.0  0.91765  0.60715  0.02736  1.0000
  S   S80       1.0  0.99621  0.58521  0.16972  1.0000
  H   H451      1.0  0.64710  0.95524  0.11113  1.0000
  H   H452      1.0  0.85943  0.63165  0.08421  1.0000
  H   H453      1.0  0.68377  0.91212  0.20806  1.0000
  H   H454      1.0  0.56972  0.91461  0.14325  1.0000
  H   H455      1.0  0.69462  0.59172  0.25690  1.0000
  H   H456      1.0  0.62914  0.52059  0.21687  1.0000
  H   H457      1.0  0.54232  0.50701  0.30504  1.0000
  H   H458      1.0  0.93768  0.55517  0.06874  1.0000
  H   H459      1.0  0.69013  0.62059  0.29080  1.0000
  C   C268      1.0  0.71101  0.96268  0.11045  1.0000
  C   C269      1.0  0.63598  0.50701  0.23912  1.0000
  Fe  Fe40      1.0  0.66062  0.96153  0.01708  1.0000
  H   H460      1.0  0.94652  0.60239  0.02942  1.0000
  H   H461      1.0  0.72092  0.98251  0.08758  1.0000
  H   H462      1.0  0.96022  0.70796  0.04268  1.0000
  C   C270      1.0  0.50191  0.54515  0.22038  1.0000
  H   H463      1.0  0.99272  0.53472  0.10145  1.0000
  H   H464      1.0  0.61587  0.72037  0.02304  1.0000
  H   H465      1.0  0.60136  0.66518  0.02257  1.0000
  H   H466      1.0  0.98765  0.72387  0.08119  1.0000
  H   H467      1.0  0.72192  0.98637  0.13101  1.0000
  H   H468      1.0  0.73727  0.59036  0.30351  1.0000
  H   H469      1.0  0.93116  0.70809  0.07944  1.0000
  H   H470      1.0  0.90856  0.53347  0.10636  1.0000
  H   H471      1.0  0.54992  0.56126  0.30026  1.0000
  H   H472      1.0  0.62623  0.59436  0.32314  1.0000
  C   C271      1.0  0.95605  0.70071  0.06924  1.0000
  H   H473      1.0  0.83120  0.58424  0.01718  1.0000
  C   C272      1.0  0.99333  0.52505  0.28109  1.0000
  H   H474      1.0  0.55788  0.99327  0.17134  1.0000
  H   H475      1.0  0.69113  0.56783  0.33068  1.0000
  C   C273      1.0  0.54680  0.67648  0.01863  1.0000
  H   H476      1.0  0.52410  0.64104  0.01432  1.0000
  H   H477      1.0  0.68483  0.74711  0.01096  1.0000
  H   H478      1.0  0.89814  0.58349  0.52094  1.0000
  H   H479      1.0  0.75659  0.64800  0.67267  1.0000
  H   H480      1.0  0.56735  0.72602  0.52513  1.0000
  H   H481      1.0  0.72917  0.86998  0.53043  1.0000
  C   C274      1.0  0.88754  0.57007  0.54619  1.0000
  C   C275      1.0  0.89082  0.51827  0.61460  1.0000
  S   S81       1.0  0.53823  0.99567  0.56498  1.0000
  S   S82       1.0  0.57664  0.97196  0.41564  1.0000
  S   S83       1.0  0.58766  0.94680  0.50579  1.0000
  Fe  Fe41      1.0  0.65773  0.96637  0.51629  1.0000
  S   S84       1.0  0.68919  0.92357  0.52492  1.0000
  Fe  Fe42      1.0  0.72463  0.66517  0.60231  1.0000
  S   S85       1.0  0.68348  0.67966  0.63719  1.0000
  S   S86       1.0  0.79888  0.69622  0.61082  1.0000
  Fe  Fe43      1.0  0.64426  0.60534  0.56024  1.0000
  S   S87       1.0  0.59750  0.61359  0.59329  1.0000
  S   S88       1.0  0.62953  0.56748  0.51206  1.0000
  Fe  Fe44      1.0  0.64909  0.68580  0.59260  1.0000
  S   S89       1.0  0.62195  0.73294  0.58743  1.0000
  Fe  Fe45      1.0  0.63554  0.60721  0.63530  1.0000
  H   H482      1.0  0.51923  0.59565  0.41392  1.0000
  S   S90       1.0  0.69410  0.67746  0.55765  1.0000
  S   S91       1.0  0.67829  0.59285  0.60213  1.0000
  H   H483      1.0  0.53031  0.65076  0.41751  1.0000
  S   S92       1.0  0.90672  0.61243  0.67386  1.0000
  H   H484      1.0  0.82433  0.51737  0.56489  1.0000
  C   C276      1.0  0.82927  0.67177  0.62575  1.0000
  C   C277      1.0  0.81042  0.62643  0.62973  1.0000
  C   C278      1.0  0.83506  0.60883  0.64356  1.0000
  C   C279      1.0  0.87892  0.63616  0.65333  1.0000
  C   C280      1.0  0.89828  0.68131  0.64816  1.0000
  C   C281      1.0  0.87355  0.69892  0.63455  1.0000
  H   H485      1.0  0.77664  0.60502  0.62266  1.0000
  C   C282      1.0  0.53579  0.50306  0.44272  1.0000
  H   H486      1.0  0.88865  0.73399  0.63136  1.0000
  C   C283      1.0  0.66940  0.87018  0.54201  1.0000
  C   C284      1.0  0.69688  0.85175  0.54146  1.0000
  C   C285      1.0  0.68310  0.80993  0.55511  1.0000
  C   C286      1.0  0.64162  0.78602  0.56982  1.0000
  C   C287      1.0  0.61410  0.80440  0.57026  1.0000
  C   C288      1.0  0.62774  0.84604  0.55639  1.0000
  H   H487      1.0  0.70470  0.79640  0.55449  1.0000
  H   H488      1.0  0.58193  0.78628  0.58151  1.0000
  H   H489      1.0  0.60618  0.85961  0.55711  1.0000
  H   H490      1.0  0.59002  0.63137  0.51631  1.0000
  C   C289      1.0  0.62225  0.68868  0.46466  1.0000
  C   C290      1.0  0.64475  0.66079  0.46305  1.0000
  N   N21       1.0  0.92533  0.57445  0.56637  1.0000
  H   H491      1.0  0.51136  0.94087  0.36510  1.0000
  H   H492      1.0  0.64455  0.71828  0.47920  1.0000
  H   H493      1.0  0.91718  0.50965  0.55766  1.0000
  H   H494      1.0  0.62577  0.63012  0.44890  1.0000
  H   H495      1.0  0.67704  0.67998  0.45054  1.0000
  H   H496      1.0  0.65174  0.65319  0.48792  1.0000
  H   H497      1.0  0.81975  0.57383  0.64725  1.0000
  C   C291      1.0  0.54296  0.62855  0.42381  1.0000
  H   H498      1.0  0.51843  0.95665  0.47507  1.0000
  C   C292      1.0  0.57863  0.65558  0.51440  1.0000
  H   H499      1.0  0.61438  0.75613  0.49845  1.0000
  H   H500      1.0  0.94226  0.58430  0.61812  1.0000
  H   H501      1.0  0.96978  0.54958  0.57020  1.0000
  C   C293      1.0  0.55889  0.69761  0.47552  1.0000
  N   N22       1.0  0.57646  0.66656  0.47897  1.0000
  C   C294      1.0  0.54640  0.62459  0.46123  1.0000
  H   H502      1.0  0.53040  0.55556  0.66687  1.0000
  H   H503      1.0  0.71389  0.57407  0.66788  1.0000
  H   H504      1.0  0.89030  0.57850  0.60889  1.0000
  H   H505      1.0  0.93194  0.70284  0.65550  1.0000
  H   H506      1.0  0.82879  0.52213  0.52074  1.0000
  H   H507      1.0  0.87954  0.51708  0.64034  1.0000
  H   H508      1.0  0.76890  0.96307  0.59548  1.0000
  H   H509      1.0  0.54023  0.54222  0.53278  1.0000
  C   C295      1.0  0.53925  0.53174  0.50767  1.0000
  C   C296      1.0  0.95735  0.55058  0.51853  1.0000
  C   C297      1.0  0.57795  0.53920  0.49220  1.0000
  H   H510      1.0  0.60414  0.68442  0.52802  1.0000
  H   H511      1.0  0.94739  0.65254  0.60423  1.0000
  H   H512      1.0  0.78245  0.98685  0.53838  1.0000
  C   C298      1.0  0.94190  0.54477  0.55462  1.0000
  H   H513      1.0  0.56513  0.71176  0.45030  1.0000
  Fe  Fe46      1.0  0.61378  0.99516  0.46398  1.0000
  C   C299      1.0  0.91275  0.56602  0.60229  1.0000
  H   H514      1.0  0.55625  0.59967  0.46549  1.0000
  H   H515      1.0  0.92822  0.65913  0.56459  1.0000
  C   C300      1.0  0.53489  0.63541  0.53387  1.0000
  H   H516      1.0  0.97186  0.63003  0.53688  1.0000
  H   H517      1.0  0.56575  0.75925  0.49285  1.0000
  C   C301      1.0  0.57599  0.52461  0.45973  1.0000
  C   C302      1.0  0.57805  0.73676  0.49946  1.0000
  C   C303      1.0  0.84675  0.52403  0.54362  1.0000
  C   C304      1.0  0.96281  0.62103  0.56310  1.0000
  H   H518      1.0  0.62284  0.70106  0.43942  1.0000
  H   H519      1.0  0.91474  0.50646  0.61520  1.0000
  H   H520      1.0  0.87502  0.59096  0.55659  1.0000
  H   H521      1.0  0.54159  0.64738  0.55963  1.0000
  C   C305      1.0  0.52072  0.97459  0.36996  1.0000
  H   H522      1.0  0.60577  0.53004  0.44766  1.0000
  H   H523      1.0  0.93171  0.54741  0.50124  1.0000
  H   H524      1.0  0.57472  0.63924  0.41118  1.0000
  C   C306      1.0  0.95468  0.65693  0.57754  1.0000
  H   H525      1.0  0.96481  0.52430  0.51227  1.0000
  C   C307      1.0  0.50016  0.99400  0.35266  1.0000
  H   H526      1.0  0.51856  0.59911  0.53402  1.0000
  H   H527      1.0  0.76572  0.71965  0.67620  1.0000
  H   H528      1.0  0.98824  0.58208  0.51461  1.0000
  H   H529      1.0  0.98507  0.68924  0.57458  1.0000
  H   H530      1.0  0.52252  0.68025  0.47814  1.0000
  H   H531      1.0  0.85449  0.49744  0.54126  1.0000
  H   H532      1.0  0.51238  0.60942  0.47130  1.0000
  C   C308      1.0  0.49911  0.51043  0.49062  1.0000
  H   H533      1.0  0.51124  0.64457  0.52439  1.0000
  H   H534      1.0  0.99291  0.62472  0.57515  1.0000
  C   C309      1.0  0.79517  0.99711  0.58973  1.0000
  H   H535      1.0  0.82639  0.99665  0.58822  1.0000
  H   H536      1.0  0.75184  0.62891  0.77733  1.0000
  C   C310      1.0  0.49853  0.50317  0.98180  1.0000
  C   C311      1.0  0.52854  0.54184  0.69099  1.0000
  C   C312      1.0  0.70101  0.64186  0.76353  1.0000
  C   C313      1.0  0.57615  0.53502  0.94577  1.0000
  C   C314      1.0  0.74597  0.65532  0.69645  1.0000
  C   C315      1.0  0.72068  0.58327  0.72152  1.0000
  H   H537      1.0  0.59225  0.52966  0.74758  1.0000
  C   C316      1.0  0.57817  0.54730  0.97890  1.0000
  H   H538      1.0  0.57388  0.62135  0.97491  1.0000
  C   C317      1.0  0.56624  0.54520  0.70507  1.0000
  H   H539      1.0  0.51124  0.96092  0.71073  1.0000
  H   H540      1.0  0.80855  0.63700  0.69647  1.0000
  S   S93       1.0  0.54643  0.94938  0.93766  1.0000
  C   C318      1.0  0.74684  0.64716  0.75715  1.0000
  C   C319      1.0  0.57450  0.64776  0.95962  1.0000
  C   C320      1.0  0.52132  0.97531  0.91709  1.0000
  Fe  Fe47      1.0  0.59374  0.97789  0.98062  1.0000
  C   C321      1.0  0.59961  0.72640  0.95623  1.0000
  H   H541      1.0  0.70435  0.66883  0.77959  1.0000
  N   N23       1.0  0.60545  0.69217  0.97415  1.0000
  H   H542      1.0  0.84710  0.62334  0.74044  1.0000
  H   H543      1.0  0.91139  0.65960  0.00161  1.0000
  H   H544      1.0  0.54010  0.64120  0.95978  1.0000
  H   H545      1.0  0.75644  0.71646  0.71949  1.0000
  C   C322      1.0  0.93019  0.64227  0.00048  1.0000
  C   C323      1.0  0.58407  0.63998  0.92399  1.0000
  C   C324      1.0  0.61335  0.76984  0.97467  1.0000
  H   H546      1.0  0.66026  0.70113  0.94373  1.0000
  H   H547      1.0  0.56438  0.71290  0.94989  1.0000
  C   C325      1.0  0.50811  0.96400  0.88429  1.0000
  C   C326      1.0  0.81163  0.61215  0.74383  1.0000
  H   H548      1.0  0.65445  0.67313  0.98135  1.0000
  H   H549      1.0  0.80601  0.71993  0.70244  1.0000
  H   H550      1.0  0.61761  0.73481  0.93235  1.0000
  C   C327      1.0  0.72309  0.56125  0.68946  1.0000
  H   H551      1.0  0.55558  0.60923  0.91474  1.0000
  H   H552      1.0  0.72346  0.56480  0.74261  1.0000
  H   H553      1.0  0.82356  0.67525  0.72843  1.0000
  C   C328      1.0  0.53553  0.50682  0.93071  1.0000
  C   C329      1.0  0.79993  0.64057  0.72205  1.0000
  H   H554      1.0  0.58423  0.76972  0.98547  1.0000
  H   H555      1.0  0.68452  0.64381  0.74106  1.0000
  H   H556      1.0  0.67885  0.60998  0.77567  1.0000
  C   C330      1.0  0.52291  0.50583  0.75361  1.0000
  H   H557      1.0  0.60617  0.54748  0.93163  1.0000
  C   C331      1.0  0.77015  0.70567  0.69933  1.0000
  H   H558      1.0  0.77239  0.68183  0.76187  1.0000
  N   N24       1.0  0.75327  0.63149  0.72428  1.0000
  H   H559      1.0  0.96591  0.66645  0.00113  1.0000
  H   H560      1.0  0.68654  0.57721  0.72318  1.0000
  H   H561      1.0  0.58909  0.66689  0.90727  1.0000
  H   H562      1.0  0.72027  0.74321  0.98180  1.0000
  C   C332      1.0  0.68891  0.74339  0.98439  1.0000
  H   H563      1.0  0.79359  0.57719  0.73654  1.0000
  H   H564      1.0  0.51393  0.94011  0.87206  1.0000
  H   H565      1.0  0.71050  0.64350  0.69281  1.0000
  C   C333      1.0  0.56324  0.52718  0.73647  1.0000
  H   H566      1.0  0.75585  0.56482  0.68542  1.0000
  C   C334      1.0  0.53911  0.53125  0.99685  1.0000
  H   H567      1.0  0.80636  0.61534  0.77030  1.0000
  H   H568      1.0  0.61274  0.63488  0.92287  1.0000
  C   C335      1.0  0.65165  0.70040  0.97011  1.0000
  H   H569      1.0  0.63842  0.77875  0.99386  1.0000
  H   H570      1.0  0.69314  0.77227  0.97048  1.0000
  H   H571      1.0  0.62730  0.79731  0.95672  1.0000
  H   H572      1.0  0.92233  0.62612  0.97603  1.0000
  H   H573      1.0  0.53444  0.49759  0.90523  1.0000
  S   S94       1.0  0.62982  0.58498  0.99617  1.0000
  H   H574      1.0  0.69892  0.52565  0.69086  1.0000
  H   H575      1.0  0.53563  0.69608  0.00479  1.0000
  C   C336      1.0  0.59459  0.68937  0.01024  1.0000
  H   H576      1.0  0.99049  0.50755  0.75059  1.0000
  S   S95       1.0  0.61747  0.57022  0.68420  1.0000
  S   S96       1.0  0.66321  0.99516  0.96928  1.0000
  Fe  Fe48      1.0  0.98032  0.63531  0.67844  1.0000
