data_image0
_chemical_formula_structural       FeS2FeS2FeSFeS3FeSHFeSFeHFeSHSFeS2FeS2HFeS3CHC3HSC4HCNC6H4C6H6CH2C2H8CH4NHCH2CH2CH4CH5FeHCH2CNHCH2CH4CH5CNC7HC2H4CSH3CH3CH3C3H2C2HCH2CHCH4CH2CH3NH2CHCHCH4CHCSH10CHCHCH2CH2CH3C2H2FeCSFeS2FeSHS2H2FeS2FeS2FeSFeS3H3FeS2H3CHC6H8CH2C4H5C3H2C2H2C2H4C2H2CH11CH3CNH2CH2C3HCH4CHCH2SCH5C3H2CHCSH2NHCH2FeCH2CHC2H4NC4H2CSCH2CHCH2C3HCHC2H4NC2HCH4C2SH4SCH3CHCHSFeC2HCS2FeS2FeS2FeSFeHS2CHCH3CHC6H7C3H4C2H4C2H2CSCHCH3NC7H12CH4C2HNHCHSHC2H4NH4C2HSHC2HNSH3SH4C2H2C2HCHCH5CFeSCFeSHFeSFeS2HSHFeSHFeSNCSCH4CNH3C3H2C6H4CHCHCHCH2CHCH3CH2SH2NCH2CH2NH8C2H5CH3CH4SH3CHC2FeHCHC2HSHC2H5CHC3H5CH2NSH2CHCH3C6HCH3CHSH2FeSCHSHFeS2CSFeS2FeCSFeSHSH4CH2CH2C5HCHC2SCH2SC6H3C4HC4H5C2HCHFeCHCH3CHC2H4CHCH8CSH4CHFeH2CHC2NH6CH6CH4SHC2HNC3FeCHCSCH3CHCH4C2HC2HNH5CHCH3CSH2SCSCFeHSCFeS3FeS2FeS2FeSCHSHFeSHSHC6H7CH2C6H6C4HCHCH3CH4CH2CH2C2H2SH3FeH5SCH3CHC2HFeCH2CHC2H5NH2CH2CH2C2H4CH4CHCH2CHCH4CH3NH3CH2NC4FeSHCH4CH6CH3CH4CHCH2CFeC2H4SCH3CHNHC4H2FeS2FeS2FeSFeS2CHC3H2C2HCNC5H11CHCH5CH3CH2CHSCHCH2CHCHC2H2SC3H3SH4CH2SH5C2H4CHFeNH2CHCH2S2H3CNC2NHCFeHFeSCFeCH3FeSC3H3C3HNH2CFeH2C3HCSCH2CH2CHCH4C2SCHSHCHSC2H2SHCH2CH2CH3CH2C2H2CH2CH8SH4FeHFeSCH2C2SCHC3FeH4SFeS2FeSFeS2HSHFeHSFeS2FeS2FeS2FeSFeHS2C6H4CH4C2H2CH2CH2CHC6H4CH2C3H12CH4CH5C2HC2HCSHCH2CH3C2NC8H22CH3C2HCHNH4NHC3H7NSH4SH3CH2CHC3H2CH2CNCHC3HC2HCHCHC3H3C2HCH4CHCH2CH4FeSFeS2FeSFeS4FeS2FeS2FeHFeS3H2SFeS2C2H2SC6H5CH2C2HCH4NH3C9H4C2H2CH3CHCH2CH4CH2CHCHCHCH7NC8H9CH10NCH2CSCH5CHFeHC2H5CHC3H2CH3NHC2H4CH3C2H3C3HCH3CHCH3C2H3C2H2FeS2FeSHFeSFeS3FeS2FeSFeSFeS3FeS2FeCH2S2CH2CHCH2NC6H9CHCHCH2C6H4C6H4CH2CH3CH4NC4H2CH6CHC2H4CHCHC3HCH3C2H3CHCH2NHC3H2C2H4NH2C3H2C2HC2H10CH5NH3SHC2FeH3CHCH6SH3CH8CH4CH2CH2SFeSHFeSFeS2CFeS2FeH2S2HS2FeS2HC6H6C6H4CHSH2NC3H2CH2C2H2FeH2CH5CFeH2C3H2CNCH5SH2CH3CHNCH7C2HC3HC2H4CH3CH3CHCHCH4C3HSH4NHC3H3CHCH3CH7CFeHCH2CH2FeCHC3H3CH2FeSH2SFeSFeSHNFeSFeS2FeSFeS3H2CH3CHCHC2HC4HNHCH3C6H4CSH2C3H7CHCH5CH13C2H3C2H2C2HCSCHNH4C2H3CH4CSH6CH5CFeC3H7CHCH8C2HCHCH3C3HCHC2H2CHC3H2C2NHCHC2HCHNHCHCHC2HC4HSFeSHFeSCFeSFeS3H2FeSFeCSH2C3HCH7CH2C3H2C6H7C4H4NHC2HC2HCHCH3C2H2NH2CHC2HCH4CNH3C2HCHSH2CH3NHC3H5C4H6C2NH9CHCHS2CHC3SC2SH7FeCHC3HCH4CH10CH7CH4CH2C2SHSFeSCFeSHFeSFeSHSH2SH2C2H3C3H5C7H4CHC2H3CHC2H2C2SHC2H2NH8CH3CH4C2H3CH4CH4CH3CSH2CH2CH3CHCH3CHNH3CHC3H4SHNCH2NCFeC2H2C2SHSH4CHCSC2HSFeSCFeSFeS3HFeSHFeS2FeSFeS3CS2HSNC6H5C2H2CHC2H4C3H5SH7C3HNHCH9C2H2C2H2CHCHC2H3NC4H2CH2CHNC8H12CH7CHCHC2H2FeCHCHCFeHC2H2CH3CH3CH6SH3CH5CHCH2CSFeS2FeS2FeH2S2FeS2FeS2FeSFeS3FeSCFeSFeSFeS2C2SC2H2C6H4CHCH3C6H8CH2C2H2CHCH6NC8H8SCH4CHCH4CH2CH2C2HCH4NCH6CH2CH3CH5CH2CH7CH4NHC3HNCHC2H3CH5CHC2H7NC2H10CNC3HSHCHC4H2
_chemical_formula_sum              "Fe144 S288 H1728 C1008 N72"
_cell_length_a       58.5216
_cell_length_b       58.4788
_cell_length_c       37.1075
_cell_angle_alpha    90.477
_cell_angle_beta     91.9635
_cell_angle_gamma    118.645

_space_group_name_H-M_alt    "P 1"
_space_group_IT_number       1

loop_
  _space_group_symop_operation_xyz
  'x, y, z'

loop_
  _atom_site_type_symbol
  _atom_site_label
  _atom_site_symmetry_multiplicity
  _atom_site_fract_x
  _atom_site_fract_y
  _atom_site_fract_z
  _atom_site_occupancy
  Fe  Fe1       1.0  0.18044  0.10824  0.08283  1.0000
  S   S1        1.0  0.20870  0.14411  0.05411  1.0000
  S   S2        1.0  0.15356  0.06844  0.05535  1.0000
  Fe  Fe2       1.0  0.18758  0.13944  0.15396  1.0000
  S   S3        1.0  0.21581  0.17665  0.12920  1.0000
  S   S4        1.0  0.18294  0.14210  0.21453  1.0000
  Fe  Fe3       1.0  0.18809  0.16358  0.08053  1.0000
  S   S5        1.0  0.17597  0.19284  0.05884  1.0000
  Fe  Fe4       1.0  0.23395  0.15386  0.10584  1.0000
  S   S6        1.0  0.27888  0.17450  0.10913  1.0000
  S   S7        1.0  0.15867  0.12756  0.10692  1.0000
  S   S8        1.0  0.20687  0.11680  0.13282  1.0000
  Fe  Fe5       1.0  0.45059  0.19446  0.17117  1.0000
  S   S9        1.0  0.42246  0.15670  0.19463  1.0000
  H   H1        1.0  0.48113  0.16296  0.13814  1.0000
  Fe  Fe6       1.0  0.45635  0.22483  0.24283  1.0000
  S   S10       1.0  0.42808  0.18829  0.27034  1.0000
  Fe  Fe7       1.0  0.44935  0.16948  0.24416  1.0000
  H   H2        1.0  0.11524  0.99707  0.43327  1.0000
  Fe  Fe8       1.0  0.40366  0.17895  0.21792  1.0000
  S   S11       1.0  0.35885  0.15826  0.21425  1.0000
  H   H3        1.0  0.42487  0.01923  0.37529  1.0000
  S   S12       1.0  0.43069  0.21657  0.19203  1.0000
  Fe  Fe9       1.0  0.11196  0.18866  0.34959  1.0000
  S   S13       1.0  0.15212  0.21695  0.37073  1.0000
  S   S14       1.0  0.10596  0.17431  0.29085  1.0000
  Fe  Fe10      1.0  0.08738  0.19115  0.42120  1.0000
  S   S15       1.0  0.12675  0.22041  0.44579  1.0000
  S   S16       1.0  0.05226  0.16986  0.45729  1.0000
  H   H4        1.0  0.11522  0.14960  0.06969  1.0000
  Fe  Fe11      1.0  0.14129  0.19436  0.42208  1.0000
  S   S17       1.0  0.17005  0.18189  0.44668  1.0000
  S   S18       1.0  0.09344  0.21259  0.36876  1.0000
  S   S19       1.0  0.10209  0.16456  0.39924  1.0000
  C   C1        1.0  0.08120  0.14330  0.03660  1.0000
  H   H5        1.0  0.18856  0.21459  0.25915  1.0000
  C   C2        1.0  0.47529  0.17946  0.05214  1.0000
  C   C3        1.0  0.34472  0.15052  0.07894  1.0000
  C   C4        1.0  0.09978  0.15554  0.07013  1.0000
  H   H6        1.0  0.39083  0.20440  0.12067  1.0000
  S   S20       1.0  0.45926  0.19567  0.11143  1.0000
  C   C5        1.0  0.26913  0.20813  0.20530  1.0000
  C   C6        1.0  0.14970  0.07708  0.43947  1.0000
  C   C7        1.0  0.23707  0.17387  0.28486  1.0000
  C   C8        1.0  0.15967  0.04690  0.02809  1.0000
  H   H7        1.0  0.35974  0.11721  0.05648  1.0000
  C   C9        1.0  0.47334  0.17846  0.08985  1.0000
  N   N1        1.0  0.37259  0.15577  0.08009  1.0000
  C   C10       1.0  0.16159  0.15151  0.23492  1.0000
  C   C11       1.0  0.16403  0.15635  0.27245  1.0000
  C   C12       1.0  0.14727  0.16350  0.28988  1.0000
  C   C13       1.0  0.12753  0.16539  0.27002  1.0000
  C   C14       1.0  0.12503  0.16048  0.23252  1.0000
  C   C15       1.0  0.14216  0.15388  0.21495  1.0000
  H   H8        1.0  0.17881  0.15434  0.28822  1.0000
  H   H9        1.0  0.14935  0.16711  0.31877  1.0000
  H   H10       1.0  0.10973  0.16176  0.21695  1.0000
  H   H11       1.0  0.13996  0.15004  0.18612  1.0000
  C   C16       1.0  0.33730  0.16299  0.18394  1.0000
  C   C17       1.0  0.31151  0.14278  0.17834  1.0000
  C   C18       1.0  0.29333  0.14600  0.15587  1.0000
  C   C19       1.0  0.30076  0.16952  0.13847  1.0000
  C   C20       1.0  0.32660  0.18973  0.14395  1.0000
  C   C21       1.0  0.34473  0.18656  0.16666  1.0000
  H   H12       1.0  0.30549  0.12447  0.19161  1.0000
  H   H13       1.0  0.27361  0.13020  0.15177  1.0000
  H   H14       1.0  0.33258  0.20805  0.13075  1.0000
  H   H15       1.0  0.36429  0.20251  0.17130  1.0000
  H   H16       1.0  0.31421  0.16245  0.26982  1.0000
  H   H17       1.0  0.08400  0.18459  0.00594  1.0000
  C   C22       1.0  0.48290  0.14479  0.30292  1.0000
  H   H18       1.0  0.23689  0.12645  0.20095  1.0000
  H   H19       1.0  0.41167  0.18814  0.07719  1.0000
  C   C23       1.0  0.02102  0.19392  0.46124  1.0000
  C   C24       1.0  0.02582  0.17381  0.47259  1.0000
  H   H20       1.0  0.26528  0.17132  0.18754  1.0000
  H   H21       1.0  0.13354  0.22190  0.17166  1.0000
  H   H22       1.0  0.48065  0.17732  0.32662  1.0000
  H   H23       1.0  0.03382  0.20793  0.44254  1.0000
  H   H24       1.0  0.23334  0.10538  0.23715  1.0000
  H   H25       1.0  0.43315  0.04217  0.32241  1.0000
  H   H26       1.0  0.37080  0.14237  0.02506  1.0000
  H   H27       1.0  0.15532  0.22134  0.29065  1.0000
  C   C25       1.0  0.18465  0.05316  0.01733  1.0000
  H   H28       1.0  0.40251  0.22422  0.08240  1.0000
  H   H29       1.0  0.41742  0.15820  0.04611  1.0000
  H   H30       1.0  0.13256  0.10164  0.45698  1.0000
  H   H31       1.0  0.46798  0.19043  0.03685  1.0000
  N   N2        1.0  0.13603  0.05222  0.46011  1.0000
  H   H32       1.0  0.11914  0.01772  0.02466  1.0000
  C   C26       1.0  0.18835  0.03548  0.99533  1.0000
  H   H33       1.0  0.07413  0.12188  0.03709  1.0000
  H   H34       1.0  0.26575  0.21790  0.22862  1.0000
  C   C27       1.0  0.15690  0.18795  0.01855  1.0000
  H   H35       1.0  0.15491  0.07311  0.41242  1.0000
  H   H36       1.0  0.15315  0.02879  0.40999  1.0000
  C   C28       1.0  0.19424  0.23006  0.28037  1.0000
  H   H37       1.0  0.04288  0.19233  0.04361  1.0000
  H   H38       1.0  0.08981  0.14863  0.09580  1.0000
  H   H39       1.0  0.31560  0.18833  0.29874  1.0000
  H   H40       1.0  0.41068  0.06666  0.30937  1.0000
  C   C29       1.0  0.48053  0.09431  0.42506  1.0000
  H   H41       1.0  0.47621  0.07952  0.44578  1.0000
  H   H42       1.0  0.33926  0.19504  0.26559  1.0000
  H   H43       1.0  0.19586  0.22130  0.30616  1.0000
  H   H44       1.0  0.40148  0.99927  0.04238  1.0000
  H   H45       1.0  0.02313  0.13378  0.99837  1.0000
  Fe  Fe12      1.0  0.13374  0.24026  0.39171  1.0000
  H   H46       1.0  0.22596  0.15250  0.28748  1.0000
  C   C30       1.0  0.31826  0.18302  0.27107  1.0000
  H   H47       1.0  0.14476  0.10767  0.41305  1.0000
  H   H48       1.0  0.11446  0.07908  0.41983  1.0000
  C   C31       1.0  0.14880  0.23982  0.18589  1.0000
  N   N3        1.0  0.27277  0.17387  0.24531  1.0000
  H   H49       1.0  0.11002  0.17713  0.07003  1.0000
  C   C32       1.0  0.04383  0.14098  0.06735  1.0000
  H   H50       1.0  0.40674  0.13250  0.07850  1.0000
  H   H51       1.0  0.18364  0.05684  0.42430  1.0000
  C   C33       1.0  0.01493  0.13459  0.06528  1.0000
  H   H52       1.0  0.43831  0.04000  0.45221  1.0000
  H   H53       1.0  0.05384  0.15637  0.08889  1.0000
  H   H54       1.0  0.33125  0.12966  0.08398  1.0000
  H   H55       1.0  0.27610  0.20499  0.28090  1.0000
  C   C34       1.0  0.11175  0.03308  0.43867  1.0000
  H   H56       1.0  0.36692  0.10879  0.11398  1.0000
  H   H57       1.0  0.20108  0.07159  0.02603  1.0000
  H   H58       1.0  0.31887  0.16137  0.04898  1.0000
  H   H59       1.0  0.16847  0.09101  0.45373  1.0000
  H   H60       1.0  0.08090  0.18909  0.05162  1.0000
  C   C35       1.0  0.26615  0.18330  0.27935  1.0000
  N   N4        1.0  0.45302  0.06053  0.37366  1.0000
  C   C36       1.0  0.44094  0.06121  0.33726  1.0000
  C   C37       1.0  0.99945  0.19578  0.47389  1.0000
  C   C38       1.0  0.45957  0.08553  0.39416  1.0000
  C   C39       1.0  0.43337  0.03712  0.39300  1.0000
  C   C40       1.0  0.41829  0.06776  0.33756  1.0000
  C   C41       1.0  0.10200  0.00370  0.44446  1.0000
  C   C42       1.0  0.44249  0.03057  0.42912  1.0000
  H   H61       1.0  0.46329  0.03581  0.43081  1.0000
  C   C43       1.0  0.40162  0.13863  0.05262  1.0000
  C   C44       1.0  0.14739  0.20542  0.01058  1.0000
  H   H62       1.0  0.43200  0.00912  0.43252  1.0000
  H   H63       1.0  0.44181  0.08449  0.40577  1.0000
  H   H64       1.0  0.41618  0.03952  0.39925  1.0000
  H   H65       1.0  0.42484  0.08798  0.34761  1.0000
  C   C45       1.0  0.16384  0.15883  0.48104  1.0000
  S   S21       1.0  0.46170  0.14016  0.26504  1.0000
  H   H66       1.0  0.30936  0.21017  0.24425  1.0000
  H   H67       1.0  0.22154  0.12821  0.24131  1.0000
  H   H68       1.0  0.17611  0.02519  0.43951  1.0000
  C   C46       1.0  0.13414  0.09186  0.43220  1.0000
  H   H69       1.0  0.30753  0.18495  0.21557  1.0000
  H   H70       1.0  0.40103  0.12486  0.03134  1.0000
  H   H71       1.0  0.45588  0.07582  0.31988  1.0000
  C   C47       1.0  0.04982  0.18764  0.01855  1.0000
  H   H72       1.0  0.46178  0.01629  0.36229  1.0000
  H   H73       1.0  0.40180  0.05377  0.35319  1.0000
  H   H74       1.0  0.09917  0.99827  0.47300  1.0000
  C   C48       1.0  0.15513  0.04213  0.46673  1.0000
  C   C49       1.0  0.06942  0.17768  0.02720  1.0000
  C   C50       1.0  0.04132  0.13245  0.00140  1.0000
  H   H75       1.0  0.00250  0.11573  0.05062  1.0000
  H   H76       1.0  0.39053  0.18681  0.04162  1.0000
  C   C51       1.0  0.26469  0.14510  0.24692  1.0000
  C   C52       1.0  0.39117  0.18358  0.07104  1.0000
  H   H77       1.0  0.26609  0.13941  0.27515  1.0000
  C   C53       1.0  0.33433  0.15613  0.04312  1.0000
  H   H78       1.0  0.34329  0.11679  0.13310  1.0000
  H   H79       1.0  0.25732  0.20929  0.18206  1.0000
  C   C54       1.0  0.37485  0.13779  0.05286  1.0000
  H   H80       1.0  0.40084  0.15709  0.12070  1.0000
  C   C55       1.0  0.13853  0.02281  0.01643  1.0000
  H   H81       1.0  0.34916  0.17291  0.02886  1.0000
  H   H82       1.0  0.11452  0.03573  0.40914  1.0000
  H   H83       1.0  0.27355  0.17744  0.30360  1.0000
  H   H84       1.0  0.09373  0.15035  0.01298  1.0000
  C   C56       1.0  0.36429  0.12297  0.13091  1.0000
  H   H85       1.0  0.12404  0.23212  0.29936  1.0000
  H   H86       1.0  0.37684  0.16366  0.13774  1.0000
  C   C57       1.0  0.37972  0.15113  0.11773  1.0000
  H   H87       1.0  0.15175  0.22144  0.02925  1.0000
  H   H88       1.0  0.37156  0.12211  0.15862  1.0000
  H   H89       1.0  0.27819  0.14057  0.23178  1.0000
  N   N5        1.0  0.05852  0.14888  0.03293  1.0000
  H   H90       1.0  0.23913  0.16892  0.21225  1.0000
  H   H91       1.0  0.46682  0.10223  0.37558  1.0000
  C   C58       1.0  0.30201  0.18876  0.24241  1.0000
  H   H92       1.0  0.04365  0.12312  0.07806  1.0000
  C   C59       1.0  0.16750  0.03804  0.43288  1.0000
  H   H93       1.0  0.01173  0.14996  0.05280  1.0000
  C   C60       1.0  0.26071  0.17922  0.21203  1.0000
  H   H94       1.0  0.34104  0.16082  0.10135  1.0000
  H   H95       1.0  0.36828  0.20330  0.08496  1.0000
  H   H96       1.0  0.23508  0.18256  0.31052  1.0000
  H   H97       1.0  0.28973  0.21899  0.19761  1.0000
  C   C61       1.0  0.23749  0.12549  0.23077  1.0000
  H   H98       1.0  0.14158  0.21329  0.22958  1.0000
  C   C62       1.0  0.38761  0.20476  0.09115  1.0000
  S   S22       1.0  0.47867  0.20611  0.21902  1.0000
  H   H99       1.0  0.09523  0.03687  0.44403  1.0000
  H   H100      1.0  0.22800  0.18025  0.26326  1.0000
  H   H101      1.0  0.19669  0.15356  0.46828  1.0000
  H   H102      1.0  0.00772  0.13229  0.09305  1.0000
  H   H103      1.0  0.14606  0.02337  0.48065  1.0000
  H   H104      1.0  0.45798  0.24067  0.41186  1.0000
  H   H105      1.0  0.43411  0.00609  0.03131  1.0000
  H   H106      1.0  0.32596  0.13872  0.02464  1.0000
  H   H107      1.0  0.15828  0.15365  0.00024  1.0000
  H   H108      1.0  0.11337  0.22461  0.25220  1.0000
  C   C63       1.0  0.15787  0.23200  0.22089  1.0000
  H   H109      1.0  0.03465  0.11141  0.00605  1.0000
  C   C64       1.0  0.47750  0.05894  0.36672  1.0000
  H   H110      1.0  0.05946  0.20564  0.00272  1.0000
  C   C65       1.0  0.47353  0.03398  0.34675  1.0000
  H   H111      1.0  0.46491  0.03190  0.31909  1.0000
  H   H112      1.0  0.99588  0.21136  0.46480  1.0000
  C   C66       1.0  0.48294  0.16424  0.10927  1.0000
  H   H113      1.0  0.43563  0.99477  0.09386  1.0000
  H   H114      1.0  0.17254  0.22628  0.21252  1.0000
  C   C67       1.0  0.12306  0.24043  0.27297  1.0000
  H   H115      1.0  0.48204  0.11198  0.43879  1.0000
  H   H116      1.0  0.17148  0.05555  0.48550  1.0000
  H   H117      1.0  0.03298  0.17417  0.00110  1.0000
  C   C68       1.0  0.18080  0.14824  0.48616  1.0000
  C   C69       1.0  0.17349  0.23904  0.28391  1.0000
  H   H118      1.0  0.40880  0.99513  0.99725  1.0000
  H   H119      1.0  0.11650  0.06828  0.49254  1.0000
  Fe  Fe13      1.0  0.04865  0.19494  0.83272  1.0000
  C   C70       1.0  0.00887  0.15575  0.49688  1.0000
  S   S23       1.0  0.03127  0.17140  0.78036  1.0000
  Fe  Fe14      1.0  0.08503  0.19729  0.89590  1.0000
  S   S24       1.0  0.08045  0.22836  0.92549  1.0000
  S   S25       1.0  0.10861  0.17735  0.91327  1.0000
  Fe  Fe15      1.0  0.03760  0.20449  0.90962  1.0000
  S   S26       1.0  0.18337  0.01035  0.52267  1.0000
  H   H120      1.0  0.43223  0.17093  0.85144  1.0000
  S   S27       1.0  0.04205  0.17230  0.88353  1.0000
  S   S28       1.0  0.09223  0.21717  0.84260  1.0000
  H   H121      1.0  0.07086  0.23037  0.55783  1.0000
  H   H122      1.0  0.15463  0.08320  0.95178  1.0000
  Fe  Fe16      1.0  0.18789  0.03940  0.56752  1.0000
  S   S29       1.0  0.15730  0.03981  0.60238  1.0000
  S   S30       1.0  0.00434  0.19692  0.94709  1.0000
  Fe  Fe17      1.0  0.23165  0.09080  0.60237  1.0000
  S   S31       1.0  0.20399  0.09465  0.63904  1.0000
  S   S32       1.0  0.27445  0.12072  0.59659  1.0000
  Fe  Fe18      1.0  0.18778  0.05153  0.64805  1.0000
  S   S33       1.0  0.18704  0.03901  0.70659  1.0000
  Fe  Fe19      1.0  0.17634  0.08285  0.59018  1.0000
  S   S34       1.0  0.15302  0.10382  0.57531  1.0000
  S   S35       1.0  0.21731  0.04851  0.61363  1.0000
  S   S36       1.0  0.20492  0.08157  0.55294  1.0000
  H   H123      1.0  0.20881  0.20538  0.53623  1.0000
  H   H124      1.0  0.33918  0.14321  0.72513  1.0000
  H   H125      1.0  0.24232  0.13927  0.53973  1.0000
  Fe  Fe20      1.0  0.39693  0.23007  0.71089  1.0000
  S   S37       1.0  0.35371  0.20155  0.71625  1.0000
  S   S38       1.0  0.42483  0.22439  0.67675  1.0000
  H   H126      1.0  0.20775  0.04053  0.98719  1.0000
  H   H127      1.0  0.12552  0.01702  0.81291  1.0000
  H   H128      1.0  0.12690  0.05918  0.85389  1.0000
  C   C71       1.0  0.14848  0.01584  0.87975  1.0000
  H   H129      1.0  0.98976  0.12335  0.88780  1.0000
  C   C72       1.0  0.33192  0.17956  0.68234  1.0000
  C   C73       1.0  0.33997  0.17787  0.64783  1.0000
  C   C74       1.0  0.32213  0.15967  0.62202  1.0000
  C   C75       1.0  0.29615  0.14285  0.63044  1.0000
  C   C76       1.0  0.28811  0.14452  0.66495  1.0000
  C   C77       1.0  0.30590  0.16284  0.69069  1.0000
  H   H130      1.0  0.35991  0.19060  0.64100  1.0000
  H   H131      1.0  0.32851  0.15858  0.59534  1.0000
  H   H132      1.0  0.26819  0.13171  0.67182  1.0000
  H   H133      1.0  0.29949  0.16392  0.71736  1.0000
  H   H134      1.0  0.13004  0.15960  0.50059  1.0000
  H   H135      1.0  0.00880  0.12413  0.61806  1.0000
  H   H136      1.0  0.05995  0.19626  0.55763  1.0000
  H   H137      1.0  0.48077  0.00690  0.54637  1.0000
  C   C78       1.0  0.45203  0.19319  0.80548  1.0000
  H   H138      1.0  0.38349  0.17532  0.72543  1.0000
  H   H139      1.0  0.27423  0.22335  0.59480  1.0000
  C   C79       1.0  0.27818  0.20084  0.63784  1.0000
  C   C80       1.0  0.15733  0.12439  0.53814  1.0000
  C   C81       1.0  0.14014  0.13465  0.53265  1.0000
  C   C82       1.0  0.16358  0.01264  0.73092  1.0000
  H   H140      1.0  0.12441  0.12962  0.55074  1.0000
  H   H141      1.0  0.01242  0.14012  0.50580  1.0000
  H   H142      1.0  0.25128  0.20893  0.53761  1.0000
  H   H143      1.0  0.12774  0.04626  0.79616  1.0000
  H   H144      1.0  0.37362  0.18349  0.78119  1.0000
  C   C83       1.0  0.12686  0.18182  0.95423  1.0000
  C   C84       1.0  0.13633  0.16434  0.96223  1.0000
  C   C85       1.0  0.99077  0.20808  0.62930  1.0000
  H   H145      1.0  0.37721  0.10008  0.78896  1.0000
  H   H146      1.0  0.13223  0.14845  0.94345  1.0000
  C   C86       1.0  0.98731  0.15760  0.50949  1.0000
  C   C87       1.0  0.03644  0.19786  0.64974  1.0000
  H   H147      1.0  0.00364  0.20176  0.78251  1.0000
  H   H148      1.0  0.02351  0.18742  0.67209  1.0000
  C   C88       1.0  0.00486  0.17011  0.75428  1.0000
  C   C89       1.0  0.14325  0.15163  0.50418  1.0000
  H   H149      1.0  0.10683  0.00681  0.91825  1.0000
  H   H150      1.0  0.43971  0.20215  0.80227  1.0000
  H   H151      1.0  0.03973  0.16577  0.59999  1.0000
  H   H152      1.0  0.16052  0.06813  0.85441  1.0000
  C   C90       1.0  0.47188  0.19891  0.78152  1.0000
  C   C91       1.0  0.26128  0.20482  0.60820  1.0000
  H   H153      1.0  0.40663  0.11714  0.73985  1.0000
  H   H154      1.0  0.01255  0.14524  0.65539  1.0000
  C   C92       1.0  0.42456  0.15975  0.68887  1.0000
  H   H155      1.0  0.19591  0.17892  0.56577  1.0000
  H   H156      1.0  0.38923  0.12327  0.68198  1.0000
  H   H157      1.0  0.07107  0.23668  0.65374  1.0000
  H   H158      1.0  0.15672  0.04435  0.80363  1.0000
  H   H159      1.0  0.08794  0.00869  0.84013  1.0000
  H   H160      1.0  0.13906  0.00199  0.85670  1.0000
  H   H161      1.0  0.23712  0.14616  0.60706  1.0000
  H   H162      1.0  0.22478  0.16726  0.65349  1.0000
  H   H163      1.0  0.21334  0.14502  0.57557  1.0000
  H   H164      1.0  0.22732  0.17607  0.52862  1.0000
  H   H165      1.0  0.43617  0.15088  0.70028  1.0000
  C   C93       1.0  0.17048  0.00861  0.76609  1.0000
  H   H166      1.0  0.09495  0.02408  0.51279  1.0000
  H   H167      1.0  0.99786  0.21387  0.65775  1.0000
  H   H168      1.0  0.99996  0.22485  0.61132  1.0000
  C   C94       1.0  0.22796  0.15783  0.59667  1.0000
  N   N6        1.0  0.02143  0.18922  0.61381  1.0000
  H   H169      1.0  0.19610  0.14084  0.63341  1.0000
  H   H170      1.0  0.12202  0.05794  0.94515  1.0000
  C   C95       1.0  0.26885  0.17814  0.56453  1.0000
  H   H171      1.0  0.20386  0.17309  0.62251  1.0000
  H   H172      1.0  0.18356  0.01416  0.86649  1.0000
  C   C96       1.0  0.17745  0.13094  0.51430  1.0000
  C   C97       1.0  0.00538  0.14041  0.62687  1.0000
  C   C98       1.0  0.10877  0.01799  0.89323  1.0000
  H   H173      1.0  0.43538  0.23864  0.83936  1.0000
  C   C99       1.0  0.21258  0.16037  0.62814  1.0000
  H   H174      1.0  0.41199  0.18074  0.74877  1.0000
  H   H175      1.0  0.06993  0.13432  0.96239  1.0000
  H   H176      1.0  0.10001  0.03076  0.89882  1.0000
  H   H177      1.0  0.15114  0.03933  0.94074  1.0000
  C   C100      1.0  0.21393  0.19711  0.56012  1.0000
  H   H178      1.0  0.00076  0.13775  0.72132  1.0000
  C   C101      1.0  0.37937  0.16793  0.78234  1.0000
  H   H179      1.0  0.04957  0.22980  0.68927  1.0000
  H   H180      1.0  0.35642  0.10076  0.72125  1.0000
  S   S39       1.0  0.45697  0.14074  0.87256  1.0000
  C   C102      1.0  0.47275  0.01249  0.95428  1.0000
  H   H181      1.0  0.27813  0.17130  0.58534  1.0000
  H   H182      1.0  0.38928  0.13218  0.80972  1.0000
  H   H183      1.0  0.39394  0.17290  0.80503  1.0000
  H   H184      1.0  0.40991  0.11785  0.80664  1.0000
  H   H185      1.0  0.12484  0.21563  0.97306  1.0000
  C   C103      1.0  0.15117  0.05123  0.91758  1.0000
  C   C104      1.0  0.05006  0.22737  0.65959  1.0000
  C   C105      1.0  0.35872  0.11935  0.73317  1.0000
  H   H186      1.0  0.18923  0.03802  0.90049  1.0000
  H   H187      1.0  0.07431  0.21584  0.59861  1.0000
  C   C106      1.0  0.13738  0.03844  0.81487  1.0000
  H   H188      1.0  0.43234  0.17976  0.70023  1.0000
  C   C107      1.0  0.99391  0.18464  0.61682  1.0000
  S   S40       1.0  0.04190  0.22622  0.85780  1.0000
  H   H189      1.0  0.35167  0.11431  0.76081  1.0000
  H   H190      1.0  0.03597  0.22760  0.59036  1.0000
  N   N7        1.0  0.24800  0.18281  0.58057  1.0000
  H   H191      1.0  0.17208  0.06432  0.91253  1.0000
  C   C108      1.0  0.44799  0.17567  0.83350  1.0000
  H   H192      1.0  0.24703  0.20884  0.62205  1.0000
  H   H193      1.0  0.04115  0.23844  0.64712  1.0000
  Fe  Fe21      1.0  0.45208  0.23832  0.72623  1.0000
  C   C109      1.0  0.09056  0.99848  0.86366  1.0000
  H   H194      1.0  0.03871  0.12655  0.94314  1.0000
  H   H195      1.0  0.28491  0.19663  0.55464  1.0000
  C   C110      1.0  0.23601  0.19127  0.55041  1.0000
  H   H196      1.0  0.42369  0.14878  0.76027  1.0000
  C   C111      1.0  0.01989  0.16367  0.60210  1.0000
  C   C112      1.0  0.16721  0.01137  0.98378  1.0000
  H   H197      1.0  0.06027  0.15939  0.95731  1.0000
  H   H198      1.0  0.38516  0.15138  0.67772  1.0000
  H   H199      1.0  0.01046  0.15752  0.57469  1.0000
  H   H200      1.0  0.25608  0.16535  0.50773  1.0000
  N   N8        1.0  0.13713  0.03393  0.88485  1.0000
  C   C113      1.0  0.17812  0.02916  0.87470  1.0000
  C   C114      1.0  0.33913  0.12581  0.71298  1.0000
  C   C115      1.0  0.46414  0.16414  0.83849  1.0000
  C   C116      1.0  0.14057  0.05100  0.85294  1.0000
  H   H201      1.0  0.15206  0.24157  0.92340  1.0000
  H   H202      1.0  0.31911  0.10932  0.71522  1.0000
  C   C117      1.0  0.39411  0.11997  0.79209  1.0000
  S   S41       1.0  0.47014  0.09989  0.94527  1.0000
  C   C118      1.0  0.39088  0.16649  0.74608  1.0000
  H   H203      1.0  0.26855  0.18086  0.64840  1.0000
  H   H204      1.0  0.14451  0.00310  0.90339  1.0000
  C   C119      1.0  0.11542  0.03708  0.52219  1.0000
  H   H205      1.0  0.28220  0.21474  0.66081  1.0000
  C   C120      1.0  0.12941  0.05933  0.49599  1.0000
  H   H206      1.0  0.36135  0.15016  0.78861  1.0000
  H   H207      1.0  0.42781  0.16157  0.65947  1.0000
  C   C121      1.0  0.40380  0.13201  0.75519  1.0000
  C   C122      1.0  0.13227  0.20226  0.97871  1.0000
  C   C123      1.0  0.25977  0.15768  0.53325  1.0000
  H   H208      1.0  0.27553  0.15273  0.52822  1.0000
  C   C124      1.0  0.99324  0.15110  0.72640  1.0000
  H   H209      1.0  0.02164  0.20158  0.55887  1.0000
  C   C125      1.0  0.03414  0.20824  0.58421  1.0000
  C   C126      1.0  0.14050  0.06915  0.93119  1.0000
  H   H210      1.0  0.99724  0.14373  0.95349  1.0000
  H   H211      1.0  0.05222  0.19232  0.65089  1.0000
  H   H212      1.0  0.34257  0.12859  0.68376  1.0000
  H   H213      1.0  0.18989  0.02137  0.77734  1.0000
  N   N9        1.0  0.38688  0.14023  0.73319  1.0000
  C   C127      1.0  0.39510  0.14279  0.69457  1.0000
  C   C128      1.0  0.99480  0.18701  0.76116  1.0000
  H   H214      1.0  0.13792  0.08062  0.90935  1.0000
  C   C129      1.0  0.06140  0.21276  0.57446  1.0000
  H   H215      1.0  0.98745  0.15697  0.84955  1.0000
  H   H216      1.0  0.14384  0.22250  0.86695  1.0000
  H   H217      1.0  0.15094  0.22843  0.82057  1.0000
  H   H218      1.0  0.18433  0.04399  0.85359  1.0000
  C   C130      1.0  0.15935  0.23456  0.84851  1.0000
  C   C131      1.0  0.47821  0.99956  0.51885  1.0000
  S   S42       1.0  0.47057  0.03381  0.92174  1.0000
  H   H219      1.0  0.21947  0.21161  0.58258  1.0000
  H   H220      1.0  0.19064  0.12298  0.51778  1.0000
  H   H221      1.0  0.17557  0.22989  0.85156  1.0000
  H   H222      1.0  0.29737  0.20489  0.62766  1.0000
  S   S43       1.0  0.42315  0.24126  0.76127  1.0000
  C   C132      1.0  0.05362  0.13882  0.96426  1.0000
  H   H223      1.0  0.48014  0.22308  0.88549  1.0000
  H   H224      1.0  0.11449  0.04569  0.54858  1.0000
  H   H225      1.0  0.12589  0.02590  0.52760  1.0000
  C   C133      1.0  0.48460  0.17062  0.81534  1.0000
  H   H226      1.0  0.14750  0.07424  0.51049  1.0000
  C   C134      1.0  0.13844  0.99600  0.71668  1.0000
  H   H227      1.0  0.13283  0.99891  0.68973  1.0000
  S   S44       1.0  0.47676  0.21954  0.74440  1.0000
  Fe  Fe22      1.0  0.48397  0.12615  0.89736  1.0000
  C   C135      1.0  0.15109  0.16723  0.99438  1.0000
  C   C136      1.0  0.14223  0.00511  0.99450  1.0000
  H   H228      1.0  0.15895  0.27572  0.28558  1.0000
  C   C137      1.0  0.45265  0.28748  0.45968  1.0000
  S   S45       1.0  0.17384  0.45773  0.36635  1.0000
  S   S46       1.0  0.15605  0.28497  0.38508  1.0000
  Fe  Fe23      1.0  0.16443  0.45123  0.22734  1.0000
  S   S47       1.0  0.48433  0.39098  0.45184  1.0000
  S   S48       1.0  0.13716  0.45741  0.18741  1.0000
  Fe  Fe24      1.0  0.17463  0.40788  0.26165  1.0000
  S   S49       1.0  0.20908  0.43769  0.29516  1.0000
  S   S50       1.0  0.15586  0.36301  0.26393  1.0000
  Fe  Fe25      1.0  0.18308  0.45534  0.30728  1.0000
  S   S51       1.0  0.48392  0.26362  0.27225  1.0000
  Fe  Fe26      1.0  0.21993  0.46223  0.24511  1.0000
  H   H229      1.0  0.12138  0.38150  0.46359  1.0000
  S   S52       1.0  0.14866  0.42506  0.27466  1.0000
  S   S53       1.0  0.18715  0.43113  0.21062  1.0000
  C   C138      1.0  0.28163  0.48582  0.19420  1.0000
  H   H230      1.0  0.12527  0.31712  0.42856  1.0000
  C   C139      1.0  0.44299  0.30300  0.43608  1.0000
  H   H231      1.0  0.06421  0.47264  0.43239  1.0000
  H   H232      1.0  0.11235  0.37005  0.29800  1.0000
  H   H233      1.0  0.45284  0.29409  0.48790  1.0000
  C   C140      1.0  0.47975  0.28376  0.41206  1.0000
  H   H234      1.0  0.43829  0.25581  0.39861  1.0000
  C   C141      1.0  0.15601  0.30592  0.35020  1.0000
  C   C142      1.0  0.17712  0.33139  0.34889  1.0000
  C   C143      1.0  0.17742  0.34912  0.32290  1.0000
  C   C144      1.0  0.15659  0.34159  0.29759  1.0000
  C   C145      1.0  0.13563  0.31601  0.29862  1.0000
  C   C146      1.0  0.13516  0.29844  0.32498  1.0000
  H   H235      1.0  0.19335  0.33753  0.36829  1.0000
  H   H236      1.0  0.19384  0.36856  0.32233  1.0000
  H   H237      1.0  0.11939  0.30987  0.27925  1.0000
  H   H238      1.0  0.11851  0.27922  0.32611  1.0000
  H   H239      1.0  0.21383  0.24644  0.27556  1.0000
  H   H240      1.0  0.10195  0.34349  0.32761  1.0000
  H   H241      1.0  0.39927  0.41719  0.03296  1.0000
  C   C147      1.0  0.10786  0.36453  0.32649  1.0000
  C   C148      1.0  0.45414  0.28378  0.30308  1.0000
  C   C149      1.0  0.45134  0.30274  0.32346  1.0000
  H   H242      1.0  0.16767  0.42720  0.13076  1.0000
  H   H243      1.0  0.43714  0.26697  0.29141  1.0000
  H   H244      1.0  0.43206  0.30025  0.32740  1.0000
  H   H245      1.0  0.44110  0.29754  0.40704  1.0000
  C   C150      1.0  0.30274  0.46095  0.17452  1.0000
  C   C151      1.0  0.28354  0.46288  0.19441  1.0000
  H   H246      1.0  0.22514  0.45540  0.15420  1.0000
  H   H247      1.0  0.30438  0.44330  0.17557  1.0000
  H   H248      1.0  0.27064  0.44683  0.21056  1.0000
  H   H249      1.0  0.11022  0.24935  0.27610  1.0000
  C   C152      1.0  0.47896  0.28676  0.29766  1.0000
  C   C153      1.0  0.31993  0.48163  0.15352  1.0000
  H   H250      1.0  0.47958  0.29896  0.39457  1.0000
  H   H251      1.0  0.20682  0.28416  0.26744  1.0000
  C   C154      1.0  0.12190  0.48526  0.14196  1.0000
  S   S54       1.0  0.46838  0.34746  0.36551  1.0000
  C   C155      1.0  0.15022  0.26157  0.26233  1.0000
  H   H252      1.0  0.20120  0.47981  0.05847  1.0000
  C   C156      1.0  0.14242  0.48585  0.16367  1.0000
  H   H253      1.0  0.46095  0.25481  0.36872  1.0000
  H   H254      1.0  0.19270  0.47176  0.15373  1.0000
  H   H255      1.0  0.13673  0.48641  0.46245  1.0000
  N   N10       1.0  0.13139  0.37362  0.38970  1.0000
  C   C157      1.0  0.13234  0.38152  0.35085  1.0000
  C   C158      1.0  0.15630  0.39358  0.40891  1.0000
  C   C159      1.0  0.10863  0.37482  0.40570  1.0000
  C   C160      1.0  0.12787  0.34629  0.39053  1.0000
  C   C161      1.0  0.18175  0.39731  0.39273  1.0000
  C   C162      1.0  0.10433  0.36849  0.44588  1.0000
  C   C163      1.0  0.13772  0.33840  0.42501  1.0000
  H   H256      1.0  0.13614  0.40208  0.34930  1.0000
  H   H257      1.0  0.14874  0.38099  0.33729  1.0000
  H   H258      1.0  0.15736  0.38921  0.43765  1.0000
  H   H259      1.0  0.15713  0.41301  0.40946  1.0000
  H   H260      1.0  0.11045  0.39456  0.40212  1.0000
  H   H261      1.0  0.09000  0.36081  0.39146  1.0000
  H   H262      1.0  0.10702  0.33160  0.38523  1.0000
  H   H263      1.0  0.13845  0.34340  0.36826  1.0000
  H   H264      1.0  0.18141  0.37853  0.38718  1.0000
  H   H265      1.0  0.18583  0.40860  0.36765  1.0000
  H   H266      1.0  0.19839  0.40886  0.41208  1.0000
  H   H267      1.0  0.20717  0.45291  0.05858  1.0000
  C   C164      1.0  0.16559  0.48023  0.38676  1.0000
  H   H268      1.0  0.43074  0.43609  0.01534  1.0000
  H   H269      1.0  0.17931  0.25229  0.30825  1.0000
  H   H270      1.0  0.13725  0.34818  0.45032  1.0000
  H   H271      1.0  0.45566  0.32434  0.43988  1.0000
  C   C165      1.0  0.19145  0.46954  0.12370  1.0000
  C   C166      1.0  0.22334  0.45397  0.12415  1.0000
  H   H272      1.0  0.18137  0.29033  0.19667  1.0000
  N   N11       1.0  0.21734  0.47463  0.10954  1.0000
  H   H273      1.0  0.08786  0.37144  0.45430  1.0000
  C   C167      1.0  0.24798  0.45403  0.11084  1.0000
  H   H274      1.0  0.09847  0.34772  0.45051  1.0000
  S   S55       1.0  0.19711  0.48280  0.26085  1.0000
  H   H275      1.0  0.18791  0.30855  0.23891  1.0000
  C   C168      1.0  0.07394  0.49043  0.41619  1.0000
  C   C169      1.0  0.47323  0.32485  0.33873  1.0000
  H   H276      1.0  0.09134  0.36796  0.33273  1.0000
  H   H277      1.0  0.20729  0.43406  0.11724  1.0000
  H   H278      1.0  0.16711  0.43709  0.08464  1.0000
  H   H279      1.0  0.14960  0.44333  0.11824  1.0000
  N   N12       1.0  0.47888  0.29030  0.45119  1.0000
  H   H280      1.0  0.21405  0.31077  0.21324  1.0000
  H   H281      1.0  0.20623  0.26780  0.22651  1.0000
  H   H282      1.0  0.15756  0.34086  0.42161  1.0000
  H   H283      1.0  0.24531  0.44727  0.08223  1.0000
  C   C170      1.0  0.00743  0.48614  0.48104  1.0000
  C   C171      1.0  0.16792  0.44268  0.11342  1.0000
  H   H284      1.0  0.23668  0.48494  0.01937  1.0000
  S   S56       1.0  0.34442  0.47832  0.13023  1.0000
  H   H285      1.0  0.10315  0.46780  0.14070  1.0000
  C   C172      1.0  0.19472  0.27466  0.24235  1.0000
  C   C173      1.0  0.19404  0.29707  0.22148  1.0000
  H   H286      1.0  0.98875  0.46803  0.04354  1.0000
  N   N13       1.0  0.16884  0.25196  0.25150  1.0000
  S   S57       1.0  0.38491  0.48513  0.04460  1.0000
  H   H287      1.0  0.14616  0.45458  0.43001  1.0000
  H   H288      1.0  0.41176  0.45134  0.02960  1.0000
  H   H289      1.0  0.26568  0.47317  0.11477  1.0000
  S   S58       1.0  0.25892  0.49013  0.22041  1.0000
  H   H290      1.0  0.25156  0.43992  0.12666  1.0000
  H   H291      1.0  0.42330  0.29872  0.44431  1.0000
  H   H292      1.0  0.14676  0.27273  0.24086  1.0000
  H   H293      1.0  0.25683  0.48618  0.05715  1.0000
  C   C174      1.0  0.21531  0.47344  0.06875  1.0000
  C   C175      1.0  0.24063  0.48988  0.04871  1.0000
  H   H294      1.0  0.07256  0.48378  0.38776  1.0000
  H   H295      1.0  0.18587  0.48414  0.11365  1.0000
  C   C176      1.0  0.41091  0.43404  0.01586  1.0000
  C   C177      1.0  0.15229  0.47365  0.41916  1.0000
  H   H296      1.0  0.16524  0.24984  0.16773  1.0000
  C   C178      1.0  0.45781  0.25716  0.39761  1.0000
  H   H297      1.0  0.13930  0.25193  0.19037  1.0000
  C   C179      1.0  0.48379  0.27181  0.47415  1.0000
  H   H298      1.0  0.43732  0.26666  0.45821  1.0000
  H   H299      1.0  0.02009  0.47784  0.48708  1.0000
  H   H300      1.0  0.46738  0.25159  0.47054  1.0000
  H   H301      1.0  0.21606  0.48591  0.45438  1.0000
  H   H302      1.0  0.98836  0.47838  0.08857  1.0000
  C   C180      1.0  0.14708  0.49168  0.43775  1.0000
  Fe  Fe27      1.0  0.25772  0.46861  0.80343  1.0000
  S   S59       1.0  0.26709  0.43760  0.78478  1.0000
  C   C181      1.0  0.38123  0.46735  0.60899  1.0000
  Fe  Fe28      1.0  0.22961  0.46723  0.73038  1.0000
  S   S60       1.0  0.23766  0.43610  0.70743  1.0000
  H   H303      1.0  0.37390  0.41107  0.87470  1.0000
  Fe  Fe29      1.0  0.22548  0.41697  0.76184  1.0000
  S   S61       1.0  0.19941  0.37217  0.76406  1.0000
  Fe  Fe30      1.0  0.27822  0.45953  0.73271  1.0000
  S   S62       1.0  0.31857  0.47140  0.71055  1.0000
  S   S63       1.0  0.21551  0.44729  0.78326  1.0000
  H   H304      1.0  0.35684  0.47232  0.78879  1.0000
  S   S64       1.0  0.11301  0.29168  0.86883  1.0000
  H   H305      1.0  0.42559  0.46353  0.60775  1.0000
  Fe  Fe31      1.0  0.44148  0.26710  0.66429  1.0000
  S   S65       1.0  0.41173  0.27171  0.69578  1.0000
  H   H306      1.0  0.34094  0.45369  0.62186  1.0000
  Fe  Fe32      1.0  0.44058  0.28255  0.74274  1.0000
  S   S66       1.0  0.44625  0.31624  0.77956  1.0000
  N   N14       1.0  0.47735  0.36765  0.67749  1.0000
  C   C182      1.0  0.43907  0.45204  0.94537  1.0000
  S   S67       1.0  0.47143  0.28066  0.71050  1.0000
  C   C183      1.0  0.19250  0.46833  0.57244  1.0000
  H   H307      1.0  0.39465  0.40362  0.90274  1.0000
  H   H308      1.0  0.45892  0.35689  0.83269  1.0000
  H   H309      1.0  0.39612  0.47249  0.97118  1.0000
  H   H310      1.0  0.43968  0.42406  0.90604  1.0000
  C   C184      1.0  0.19929  0.27033  0.90460  1.0000
  N   N15       1.0  0.17711  0.27491  0.89195  1.0000
  H   H311      1.0  0.47512  0.35617  0.62099  1.0000
  H   H312      1.0  0.17982  0.44802  0.56195  1.0000
  H   H313      1.0  0.20065  0.26749  0.96359  1.0000
  C   C185      1.0  0.39743  0.42903  0.97796  1.0000
  C   C186      1.0  0.14396  0.46085  0.65199  1.0000
  C   C187      1.0  0.16622  0.46390  0.67213  1.0000
  H   H314      1.0  0.12614  0.44243  0.65204  1.0000
  H   H315      1.0  0.16545  0.44795  0.68758  1.0000
  C   C188      1.0  0.17483  0.35033  0.79310  1.0000
  C   C189      1.0  0.16126  0.32345  0.78394  1.0000
  C   C190      1.0  0.14190  0.30533  0.80608  1.0000
  C   C191      1.0  0.13586  0.31376  0.83807  1.0000
  C   C192      1.0  0.14951  0.34061  0.84731  1.0000
  C   C193      1.0  0.16873  0.35874  0.82505  1.0000
  H   H316      1.0  0.16569  0.31660  0.75935  1.0000
  H   H317      1.0  0.13168  0.28486  0.79833  1.0000
  H   H318      1.0  0.14522  0.34748  0.87200  1.0000
  H   H319      1.0  0.17891  0.37924  0.83269  1.0000
  C   C194      1.0  0.46765  0.30966  0.58718  1.0000
  H   H320      1.0  0.39302  0.40908  0.96952  1.0000
  C   C195      1.0  0.47631  0.33871  0.80097  1.0000
  H   H321      1.0  0.30081  0.46221  0.85577  1.0000
  C   C196      1.0  0.43055  0.33476  0.65448  1.0000
  H   H322      1.0  0.37799  0.42779  0.98120  1.0000
  C   C197      1.0  0.35079  0.48556  0.80202  1.0000
  H   H323      1.0  0.19052  0.31292  0.91860  1.0000
  H   H324      1.0  0.46966  0.27723  0.52650  1.0000
  C   C198      1.0  0.41525  0.47468  0.96334  1.0000
  H   H325      1.0  0.14962  0.45280  0.50214  1.0000
  C   C199      1.0  0.99863  0.48256  0.95686  1.0000
  H   H326      1.0  0.21254  0.34133  0.87179  1.0000
  H   H327      1.0  0.33835  0.46612  0.89388  1.0000
  H   H328      1.0  0.16772  0.30586  0.88284  1.0000
  C   C200      1.0  0.39663  0.44187  0.91458  1.0000
  H   H329      1.0  0.14851  0.29117  0.94222  1.0000
  H   H330      1.0  0.43990  0.30983  0.54760  1.0000
  S   S68       1.0  0.27194  0.49148  0.85709  1.0000
  H   H331      1.0  0.18998  0.45875  0.50126  1.0000
  H   H332      1.0  0.23200  0.28401  0.94360  1.0000
  N   N16       1.0  0.40075  0.47646  0.57976  1.0000
  C   C201      1.0  0.18934  0.48765  0.67234  1.0000
  H   H333      1.0  0.45203  0.46150  0.96955  1.0000
  H   H334      1.0  0.20088  0.31644  0.83779  1.0000
  C   C202      1.0  0.39313  0.45471  0.55202  1.0000
  H   H335      1.0  0.44903  0.46595  0.92371  1.0000
  H   H336      1.0  0.38126  0.44800  0.91518  1.0000
  N   N17       1.0  0.41219  0.44883  0.95009  1.0000
  H   H337      1.0  0.44194  0.48849  0.57665  1.0000
  H   H338      1.0  0.35233  0.47910  0.59049  1.0000
  H   H339      1.0  0.43002  0.45985  0.53043  1.0000
  H   H340      1.0  0.44349  0.34627  0.70960  1.0000
  H   H341      1.0  0.39117  0.43683  0.56523  1.0000
  H   H342      1.0  0.13581  0.26121  0.96506  1.0000
  H   H343      1.0  0.41024  0.32506  0.66364  1.0000
  H   H344      1.0  0.13105  0.46635  0.52137  1.0000
  C   C203      1.0  0.14774  0.46259  0.52666  1.0000
  C   C204      1.0  0.15244  0.27490  0.94925  1.0000
  H   H345      1.0  0.21494  0.27710  0.88479  1.0000
  H   H346      1.0  0.32946  0.47682  0.79643  1.0000
  H   H347      1.0  0.19257  0.24903  0.90580  1.0000
  H   H348      1.0  0.42808  0.48181  0.98815  1.0000
  H   H349      1.0  0.18172  0.47131  0.59447  1.0000
  C   C205      1.0  0.42668  0.48175  0.59697  1.0000
  H   H350      1.0  0.00468  0.47172  0.93940  1.0000
  H   H351      1.0  0.46060  0.43044  0.94577  1.0000
  H   H352      1.0  0.34413  0.44593  0.57645  1.0000
  C   C206      1.0  0.21682  0.46857  0.59063  1.0000
  H   H353      1.0  0.40934  0.45272  0.89224  1.0000
  H   H354      1.0  0.36514  0.40161  0.91981  1.0000
  H   H355      1.0  0.18542  0.27375  0.83542  1.0000
  H   H356      1.0  0.38012  0.44965  0.62168  1.0000
  S   S69       1.0  0.44413  0.28050  0.60623  1.0000
  H   H357      1.0  0.17015  0.28224  0.96712  1.0000
  H   H358      1.0  0.47457  0.27810  0.81424  1.0000
  H   H359      1.0  0.37364  0.44849  0.53918  1.0000
  C   C207      1.0  0.30843  0.47609  0.87823  1.0000
  H   H360      1.0  0.42704  0.40973  0.94893  1.0000
  C   C208      1.0  0.20712  0.32054  0.86678  1.0000
  C   C209      1.0  0.46007  0.31954  0.55736  1.0000
  Fe  Fe33      1.0  0.08545  0.24730  0.87104  1.0000
  H   H361      1.0  0.44203  0.37077  0.68406  1.0000
  C   C210      1.0  0.18482  0.30351  0.89139  1.0000
  H   H362      1.0  0.21026  0.45258  0.61023  1.0000
  C   C211      1.0  0.32965  0.47828  0.89999  1.0000
  C   C212      1.0  0.44844  0.35570  0.68292  1.0000
  H   H363      1.0  0.22484  0.31863  0.87228  1.0000
  S   S70       1.0  0.11639  0.47676  0.60633  1.0000
  H   H364      1.0  0.47698  0.24959  0.81981  1.0000
  C   C213      1.0  0.14466  0.48141  0.63178  1.0000
  C   C214      1.0  0.38200  0.41281  0.90273  1.0000
  H   H365      1.0  0.47226  0.34911  0.51690  1.0000
  H   H366      1.0  0.22888  0.46516  0.57119  1.0000
  H   H367      1.0  0.43029  0.34342  0.62808  1.0000
  H   H368      1.0  0.38737  0.48232  0.63100  1.0000
  H   H369      1.0  0.21420  0.30076  0.94872  1.0000
  C   C215      1.0  0.21183  0.28124  0.94236  1.0000
  H   H370      1.0  0.36508  0.48000  0.53206  1.0000
  C   C216      1.0  0.44122  0.42749  0.93571  1.0000
  C   C217      1.0  0.35321  0.46121  0.59803  1.0000
  C   C218      1.0  0.48353  0.37403  0.63858  1.0000
  H   H371      1.0  0.44586  0.26869  0.86361  1.0000
  H   H372      1.0  0.14230  0.44936  0.54980  1.0000
  H   H373      1.0  0.41781  0.47970  0.50900  1.0000
  H   H374      1.0  0.08414  0.48812  0.69845  1.0000
  H   H375      1.0  0.47925  0.34083  0.71608  1.0000
  C   C219      1.0  0.29742  0.49218  0.88526  1.0000
  H   H376      1.0  0.40264  0.44542  0.49939  1.0000
  H   H377      1.0  0.43623  0.31940  0.65057  1.0000
  N   N18       1.0  0.19738  0.48778  0.54312  1.0000
  S   S71       1.0  0.27071  0.49125  0.75291  1.0000
  H   H378      1.0  0.13536  0.25547  0.89908  1.0000
  H   H379      1.0  0.47035  0.38864  0.59297  1.0000
  C   C220      1.0  0.17238  0.48884  0.53551  1.0000
  H   H380      1.0  0.35494  0.48565  0.83134  1.0000
  C   C221      1.0  0.45162  0.25372  0.85654  1.0000
  H   H381      1.0  0.48368  0.29495  0.89688  1.0000
  H   H382      1.0  0.22295  0.47623  0.51686  1.0000
  H   H383      1.0  0.15327  0.26802  0.84294  1.0000
  C   C222      1.0  0.15377  0.26054  0.91494  1.0000
  C   C223      1.0  0.41214  0.46059  0.52119  1.0000
  C   C224      1.0  0.47686  0.35694  0.82639  1.0000
  C   C225      1.0  0.16903  0.26409  0.85378  1.0000
  C   C226      1.0  0.47557  0.39351  0.62217  1.0000
  C   C227      1.0  0.20547  0.47847  0.51032  1.0000
  H   H384      1.0  0.48356  0.40603  0.69305  1.0000
  C   C228      1.0  0.47837  0.34177  0.53988  1.0000
  H   H385      1.0  0.45821  0.39276  0.63421  1.0000
  H   H386      1.0  0.46959  0.37854  0.74974  1.0000
  H   H387      1.0  0.47647  0.33040  0.67063  1.0000
  C   C229      1.0  0.47682  0.26573  0.83533  1.0000
  H   H388      1.0  0.22911  0.48680  0.60663  1.0000
  S   S72       1.0  0.21803  0.49322  0.69714  1.0000
  H   H389      1.0  0.45336  0.24412  0.88129  1.0000
  H   H390      1.0  0.41339  0.49335  0.91238  1.0000
  Fe  Fe34      1.0  0.42725  0.51352  0.05656  1.0000
  S   S73       1.0  0.42719  0.54408  0.02035  1.0000
  C   C230      1.0  0.46510  0.66431  0.44271  1.0000
  H   H391      1.0  0.19547  0.71526  0.09311  1.0000
  S   S74       1.0  0.37171  0.53320  0.05487  1.0000
  H   H392      1.0  0.38916  0.54616  0.27185  1.0000
  Fe  Fe35      1.0  0.41483  0.55826  0.06914  1.0000
  S   S75       1.0  0.42871  0.60080  0.08618  1.0000
  S   S76       1.0  0.41764  0.52947  0.10627  1.0000
  C   C231      1.0  0.23244  0.52382  0.11718  1.0000
  S   S77       1.0  0.15143  0.54078  0.44836  1.0000
  Fe  Fe36      1.0  0.11945  0.61822  0.06778  1.0000
  S   S78       1.0  0.15166  0.61200  0.04710  1.0000
  S   S79       1.0  0.12494  0.65658  0.09223  1.0000
  Fe  Fe37      1.0  0.07689  0.56491  0.03679  1.0000
  C   C232      1.0  0.02793  0.53416  0.40164  1.0000
  S   S80       1.0  0.03219  0.54100  0.03421  1.0000
  Fe  Fe38      1.0  0.12915  0.57091  0.06728  1.0000
  S   S81       1.0  0.15572  0.55725  0.09637  1.0000
  H   H393      1.0  0.45578  0.66141  0.46820  1.0000
  S   S82       1.0  0.09834  0.57834  0.09137  1.0000
  H   H394      1.0  0.23051  0.51461  0.48266  1.0000
  H   H395      1.0  0.10640  0.58627  0.43366  1.0000
  H   H396      1.0  0.01937  0.54593  0.41276  1.0000
  H   H397      1.0  0.45228  0.73366  0.36075  1.0000
  C   C233      1.0  0.16331  0.53273  0.00800  1.0000
  H   H398      1.0  0.43721  0.62253  0.24766  1.0000
  H   H399      1.0  0.02560  0.53405  0.37185  1.0000
  C   C234      1.0  0.06002  0.50693  0.42137  1.0000
  H   H400      1.0  0.04799  0.51205  0.35422  1.0000
  H   H401      1.0  0.38217  0.51053  0.22182  1.0000
  C   C235      1.0  0.16654  0.50860  0.16498  1.0000
  C   C236      1.0  0.17010  0.53024  0.14447  1.0000
  C   C237      1.0  0.14951  0.52974  0.12303  1.0000
  C   C238      1.0  0.46940  0.64465  0.42798  1.0000
  C   C239      1.0  0.23648  0.74005  0.08733  1.0000
  H   H402      1.0  0.18888  0.54767  0.14563  1.0000
  C   C240      1.0  0.16849  0.52307  0.39186  1.0000
  H   H403      1.0  0.35710  0.53058  0.21027  1.0000
  C   C241      1.0  0.29880  0.50653  0.17316  1.0000
  C   C242      1.0  0.48460  0.69169  0.39089  1.0000
  S   S83       1.0  0.46096  0.61502  0.45023  1.0000
  C   C243      1.0  0.00994  0.51701  0.00239  1.0000
  H   H404      1.0  0.29750  0.52436  0.17272  1.0000
  H   H405      1.0  0.42037  0.59147  0.26785  1.0000
  S   S84       1.0  0.21760  0.73520  0.19926  1.0000
  C   C244      1.0  0.19069  0.71293  0.17138  1.0000
  C   C245      1.0  0.18980  0.68952  0.15980  1.0000
  C   C246      1.0  0.16946  0.67172  0.13629  1.0000
  C   C247      1.0  0.14981  0.67723  0.12402  1.0000
  C   C248      1.0  0.15058  0.70055  0.13579  1.0000
  C   C249      1.0  0.17091  0.71834  0.15937  1.0000
  H   H406      1.0  0.20500  0.68517  0.16899  1.0000
  H   H407      1.0  0.16908  0.65386  0.12746  1.0000
  H   H408      1.0  0.13543  0.70493  0.12646  1.0000
  C   C250      1.0  0.44368  0.72844  0.33286  1.0000
  C   C251      1.0  0.48239  0.62412  0.17107  1.0000
  C   C252      1.0  0.11332  0.57785  0.41243  1.0000
  C   C253      1.0  0.06827  0.52701  0.36239  1.0000
  H   H409      1.0  0.33002  0.52008  0.13575  1.0000
  C   C254      1.0  0.45081  0.61879  0.12272  1.0000
  C   C255      1.0  0.46498  0.60908  0.14240  1.0000
  C   C256      1.0  0.37311  0.54975  0.26231  1.0000
  C   C257      1.0  0.45402  0.64351  0.13247  1.0000
  H   H410      1.0  0.20251  0.68317  0.07008  1.0000
  H   H411      1.0  0.18743  0.51507  0.02558  1.0000
  H   H412      1.0  0.44312  0.65118  0.11751  1.0000
  H   H413      1.0  0.39732  0.60048  0.21247  1.0000
  H   H414      1.0  0.06501  0.54381  0.31162  1.0000
  C   C258      1.0  0.47890  0.49919  0.02417  1.0000
  C   C259      1.0  0.47128  0.65847  0.16132  1.0000
  H   H415      1.0  0.37583  0.53862  0.15344  1.0000
  C   C260      1.0  0.48069  0.64842  0.39419  1.0000
  H   H416      1.0  0.24738  0.51106  0.05174  1.0000
  Fe  Fe39      1.0  0.12681  0.59698  0.99607  1.0000
  C   C261      1.0  0.20644  0.70707  0.02211  1.0000
  H   H417      1.0  0.35508  0.56763  0.15823  1.0000
  C   C262      1.0  0.42967  0.60127  0.24298  1.0000
  H   H418      1.0  0.14775  0.53546  0.02075  1.0000
  H   H419      1.0  0.35920  0.56116  0.21594  1.0000
  H   H420      1.0  0.10293  0.54398  0.44280  1.0000
  C   C263      1.0  0.37420  0.57411  0.14616  1.0000
  H   H421      1.0  0.42947  0.55866  0.19127  1.0000
  C   C264      1.0  0.07640  0.55052  0.33773  1.0000
  C   C265      1.0  0.15568  0.51669  0.42458  1.0000
  H   H422      1.0  0.13460  0.58576  0.41811  1.0000
  H   H423      1.0  0.37537  0.56792  0.27538  1.0000
  H   H424      1.0  0.16063  0.50825  0.05295  1.0000
  H   H425      1.0  0.05993  0.51015  0.45104  1.0000
  C   C266      1.0  0.17072  0.71636  0.03366  1.0000
  H   H426      1.0  0.17136  0.73626  0.16806  1.0000
  C   C267      1.0  0.23776  0.50082  0.12469  1.0000
  H   H427      1.0  0.44699  0.59872  0.23837  1.0000
  H   H428      1.0  0.40629  0.56608  0.14538  1.0000
  H   H429      1.0  0.41268  0.51335  0.20988  1.0000
  H   H430      1.0  0.47359  0.67748  0.16832  1.0000
  H   H431      1.0  0.42069  0.55433  0.23657  1.0000
  H   H432      1.0  0.48380  0.63321  0.38232  1.0000
  H   H433      1.0  0.20158  0.66801  0.02773  1.0000
  H   H434      1.0  0.11174  0.54140  0.39832  1.0000
  C   C268      1.0  0.47460  0.51557  0.49139  1.0000
  S   S85       1.0  0.10653  0.55513  0.01412  1.0000
  H   H435      1.0  0.17512  0.54233  0.38131  1.0000
  H   H436      1.0  0.23989  0.50019  0.15456  1.0000
  H   H437      1.0  0.35518  0.53297  0.27195  1.0000
  H   H438      1.0  0.22429  0.52300  0.08952  1.0000
  C   C269      1.0  0.37057  0.55069  0.22094  1.0000
  H   H439      1.0  0.09465  0.50078  0.42596  1.0000
  Fe  Fe40      1.0  0.38429  0.51613  0.00978  1.0000
  H   H440      1.0  0.48422  0.74159  0.01868  1.0000
  H   H441      1.0  0.09747  0.55950  0.33227  1.0000
  C   C270      1.0  0.17621  0.52383  0.03753  1.0000
  H   H442      1.0  0.46566  0.52744  0.48403  1.0000
  C   C271      1.0  0.09994  0.54789  0.41420  1.0000
  C   C272      1.0  0.19533  0.68089  0.04156  1.0000
  N   N19       1.0  0.07142  0.53265  0.40249  1.0000
  H   H443      1.0  0.13896  0.72508  0.03991  1.0000
  H   H444      1.0  0.18243  0.50952  0.18181  1.0000
  H   H445      1.0  0.11090  0.58478  0.38571  1.0000
  H   H446      1.0  0.17733  0.58037  0.03016  1.0000
  H   H447      1.0  0.07200  0.56562  0.34833  1.0000
  H   H448      1.0  0.16049  0.69926  0.05098  1.0000
  C   C273      1.0  0.05687  0.54664  0.41452  1.0000
  H   H449      1.0  0.38631  0.59557  0.14926  1.0000
  H   H450      1.0  0.06583  0.56698  0.40536  1.0000
  H   H451      1.0  0.46281  0.59015  0.13519  1.0000
  H   H452      1.0  0.37027  0.56977  0.11670  1.0000
  H   H453      1.0  0.08015  0.51776  0.35430  1.0000
  H   H454      1.0  0.20623  0.57828  0.03464  1.0000
  C   C274      1.0  0.41075  0.59213  0.20952  1.0000
  H   H455      1.0  0.40184  0.70344  0.34315  1.0000
  H   H456      1.0  0.22467  0.55103  0.01587  1.0000
  H   H457      1.0  0.42314  0.60257  0.18674  1.0000
  H   H458      1.0  0.18847  0.53950  0.05749  1.0000
  S   S86       1.0  0.09576  0.60553  0.01523  1.0000
  H   H459      1.0  0.45801  0.72522  0.31774  1.0000
  C   C275      1.0  0.19283  0.57984  0.01418  1.0000
  C   C276      1.0  0.16052  0.73534  0.04404  1.0000
  H   H460      1.0  0.40695  0.72333  0.28184  1.0000
  N   N20       1.0  0.39554  0.56313  0.20105  1.0000
  C   C277      1.0  0.38846  0.55953  0.16111  1.0000
  C   C278      1.0  0.41225  0.55033  0.20860  1.0000
  C   C279      1.0  0.39846  0.52038  0.20344  1.0000
  Fe  Fe41      1.0  0.37504  0.50398  0.09042  1.0000
  C   C280      1.0  0.47581  0.49828  0.46561  1.0000
  H   H461      1.0  0.05789  0.54852  0.44457  1.0000
  C   C281      1.0  0.47266  0.68768  0.42421  1.0000
  S   S87       1.0  0.45754  0.49897  0.05771  1.0000
  C   C282      1.0  0.20788  0.73242  0.07714  1.0000
  H   H462      1.0  0.25090  0.54247  0.12100  1.0000
  H   H463      1.0  0.41655  0.73554  0.38864  1.0000
  H   H464      1.0  0.24097  0.72407  0.08133  1.0000
  C   C283      1.0  0.41889  0.70174  0.33439  1.0000
  H   H465      1.0  0.22792  0.71509  0.02109  1.0000
  C   C284      1.0  0.31747  0.50428  0.15242  1.0000
  H   H466      1.0  0.17372  0.67043  0.04025  1.0000
  H   H467      1.0  0.18361  0.51027  0.34809  1.0000
  H   H468      1.0  0.10931  0.50626  0.10552  1.0000
  H   H469      1.0  0.41411  0.69134  0.30774  1.0000
  C   C285      1.0  0.99729  0.52146  0.48629  1.0000
  C   C286      1.0  0.20765  0.60682  0.99711  1.0000
  H   H470      1.0  0.43774  0.73341  0.26292  1.0000
  C   C287      1.0  0.12532  0.50708  0.12198  1.0000
  C   C288      1.0  0.17328  0.50490  0.37289  1.0000
  H   H471      1.0  0.21877  0.52430  0.13680  1.0000
  N   N21       1.0  0.19983  0.72698  0.03763  1.0000
  H   H472      1.0  0.39123  0.51386  0.17531  1.0000
  H   H473      1.0  0.01619  0.51418  0.41140  1.0000
  H   H474      1.0  0.21998  0.62154  0.01831  1.0000
  H   H475      1.0  0.46778  0.49709  0.43852  1.0000
  H   H476      1.0  0.42257  0.68937  0.35383  1.0000
  C   C289      1.0  0.42665  0.74040  0.27958  1.0000
  H   H477      1.0  0.46934  0.70279  0.43589  1.0000
  C   C290      1.0  0.01425  0.51119  0.49419  1.0000
  H   H478      1.0  0.16470  0.74135  0.07298  1.0000
  H   H479      1.0  0.25738  0.50612  0.11504  1.0000
  H   H480      1.0  0.16326  0.70868  0.00576  1.0000
  C   C291      1.0  0.21240  0.49593  0.47729  1.0000
  S   S88       1.0  0.48481  0.71349  0.26323  1.0000
  H   H481      1.0  0.19643  0.49977  0.46800  1.0000
  H   H482      1.0  0.03933  0.49412  0.41242  1.0000
  S   S89       1.0  0.48386  0.53875  0.56043  1.0000
  C   C292      1.0  0.23306  0.70901  0.64338  1.0000
  S   S90       1.0  0.15227  0.54181  0.55567  1.0000
  C   C293      1.0  0.16435  0.56171  0.96050  1.0000
  Fe  Fe42      1.0  0.08148  0.52943  0.53404  1.0000
  H   H483      1.0  0.26818  0.74330  0.66785  1.0000
  S   S91       1.0  0.04319  0.53034  0.52121  1.0000
  C   C294      1.0  0.48315  0.51350  0.99272  1.0000
  Fe  Fe43      1.0  0.13455  0.56687  0.57220  1.0000
  S   S92       1.0  0.16173  0.60143  0.60930  1.0000
  S   S93       1.0  0.09792  0.53333  0.59128  1.0000
  S   S94       1.0  0.14404  0.60751  0.94035  1.0000
  Fe  Fe44      1.0  0.18721  0.73115  0.81051  1.0000
  S   S95       1.0  0.15109  0.72576  0.78001  1.0000
  S   S96       1.0  0.18308  0.71901  0.86973  1.0000
  Fe  Fe45      1.0  0.16846  0.71850  0.73086  1.0000
  S   S97       1.0  0.14279  0.68784  0.68791  1.0000
  S   S98       1.0  0.20325  0.72099  0.76193  1.0000
  Fe  Fe46      1.0  0.46872  0.56847  0.55726  1.0000
  S   S99       1.0  0.43333  0.56215  0.52407  1.0000
  C   C295      1.0  0.24145  0.73720  0.59032  1.0000
  H   H484      1.0  0.31981  0.50811  0.80971  1.0000
  S   S100      1.0  0.44151  0.61809  0.55607  1.0000
  H   H485      1.0  0.14295  0.59010  0.69711  1.0000
  Fe  Fe47      1.0  0.42199  0.57610  0.57387  1.0000
  S   S101      1.0  0.37974  0.55592  0.59178  1.0000
  H   H486      1.0  0.17303  0.53830  0.75618  1.0000
  S   S102      1.0  0.45648  0.58072  0.60810  1.0000
  H   H487      1.0  0.39565  0.54295  0.88493  1.0000
  C   C296      1.0  0.15360  0.63826  0.92056  1.0000
  C   C297      1.0  0.15639  0.65977  0.94089  1.0000
  C   C298      1.0  0.16525  0.68416  0.92474  1.0000
  C   C299      1.0  0.17100  0.68738  0.88800  1.0000
  C   C300      1.0  0.16780  0.66576  0.86750  1.0000
  C   C301      1.0  0.15937  0.64142  0.88381  1.0000
  H   H488      1.0  0.15198  0.65763  0.96913  1.0000
  H   H489      1.0  0.16764  0.70062  0.94086  1.0000
  H   H490      1.0  0.17222  0.66789  0.83926  1.0000
  H   H491      1.0  0.15731  0.62493  0.86783  1.0000
  H   H492      1.0  0.20682  0.56450  0.94343  1.0000
  H   H493      1.0  0.17788  0.66675  0.57016  1.0000
  H   H494      1.0  0.11817  0.70030  0.93239  1.0000
  C   C302      1.0  0.46927  0.68499  0.68656  1.0000
  H   H495      1.0  0.45912  0.64987  0.65487  1.0000
  H   H496      1.0  0.45053  0.67694  0.69871  1.0000
  C   C303      1.0  0.15463  0.62357  0.63308  1.0000
  C   C304      1.0  0.17203  0.63934  0.66112  1.0000
  C   C305      1.0  0.16805  0.65832  0.67935  1.0000
  C   C306      1.0  0.14692  0.66212  0.66911  1.0000
  C   C307      1.0  0.12928  0.64602  0.64152  1.0000
  C   C308      1.0  0.13299  0.62671  0.62374  1.0000
  H   H497      1.0  0.18882  0.63702  0.66859  1.0000
  H   H498      1.0  0.18164  0.67043  0.70073  1.0000
  H   H499      1.0  0.11287  0.64881  0.63342  1.0000
  H   H500      1.0  0.11949  0.61480  0.60215  1.0000
  H   H501      1.0  0.26023  0.71279  0.68756  1.0000
  H   H502      1.0  0.32681  0.54991  0.83682  1.0000
  C   C309      1.0  0.37635  0.52346  0.64874  1.0000
  C   C310      1.0  0.36370  0.53354  0.62652  1.0000
  C   C311      1.0  0.33711  0.52519  0.63131  1.0000
  C   C312      1.0  0.43797  0.50265  0.62778  1.0000
  H   H503      1.0  0.38688  0.51872  0.78737  1.0000
  C   C313      1.0  0.33255  0.52612  0.79523  1.0000
  H   H504      1.0  0.21577  0.53790  0.51149  1.0000
  C   C314      1.0  0.19788  0.68027  0.58116  1.0000
  H   H505      1.0  0.16890  0.52105  0.61648  1.0000
  H   H506      1.0  0.40337  0.51459  0.58503  1.0000
  H   H507      1.0  0.18149  0.56653  0.64485  1.0000
  C   C315      1.0  0.21869  0.51418  0.55673  1.0000
  H   H508      1.0  0.18691  0.55985  0.69006  1.0000
  H   H509      1.0  0.40986  0.55693  0.84333  1.0000
  H   H510      1.0  0.38663  0.58074  0.73526  1.0000
  H   H511      1.0  0.42829  0.51506  0.95010  1.0000
  C   C316      1.0  0.25177  0.72453  0.67546  1.0000
  H   H512      1.0  0.36017  0.51000  0.75663  1.0000
  H   H513      1.0  0.15297  0.51554  0.98930  1.0000
  C   C317      1.0  0.42650  0.49722  0.93658  1.0000
  H   H514      1.0  0.17649  0.57870  0.94377  1.0000
  H   H515      1.0  0.32670  0.52099  0.76619  1.0000
  C   C318      1.0  0.37838  0.55924  0.78500  1.0000
  C   C319      1.0  0.16250  0.52137  0.73730  1.0000
  H   H516      1.0  0.35162  0.52000  0.85642  1.0000
  H   H517      1.0  0.11978  0.58088  0.73220  1.0000
  S   S103      1.0  0.48153  0.72898  0.72801  1.0000
  H   H518      1.0  0.22036  0.60706  0.97552  1.0000
  H   H519      1.0  0.39686  0.52996  0.64584  1.0000
  H   H520      1.0  0.43872  0.52124  0.61997  1.0000
  Fe  Fe48      1.0  0.11499  0.50830  0.57211  1.0000
  H   H521      1.0  0.23227  0.74362  0.56871  1.0000
  H   H522      1.0  0.30337  0.53874  0.80027  1.0000
  H   H523      1.0  0.29892  0.52234  0.92062  1.0000
  H   H524      1.0  0.39508  0.52207  0.84941  1.0000
  H   H525      1.0  0.45843  0.50722  0.63432  1.0000
  S   S104      1.0  0.36897  0.50086  0.95210  1.0000
  C   C320      1.0  0.12874  0.72163  0.92788  1.0000
  H   H526      1.0  0.37792  0.57580  0.79935  1.0000
  H   H527      1.0  0.20299  0.54156  0.55320  1.0000
  H   H528      1.0  0.13991  0.54666  0.91149  1.0000
  C   C321      1.0  0.20125  0.55295  0.96844  1.0000
  H   H529      1.0  0.23828  0.51600  0.55268  1.0000
  C   C322      1.0  0.08790  0.50526  0.68203  1.0000
  C   C323      1.0  0.21848  0.53854  0.54117  1.0000
  H   H530      1.0  0.11321  0.71573  0.87415  1.0000
  Fe  Fe49      1.0  0.45631  0.60448  0.50981  1.0000
  C   C324      1.0  0.39346  0.53986  0.85511  1.0000
  H   H531      1.0  0.23918  0.58174  0.99364  1.0000
  H   H532      1.0  0.30271  0.50044  0.66050  1.0000
  C   C325      1.0  0.32446  0.54648  0.80716  1.0000
  H   H533      1.0  0.38697  0.72917  0.65560  1.0000
  C   C326      1.0  0.36231  0.50463  0.67444  1.0000
  C   C327      1.0  0.48501  0.51750  0.52650  1.0000
  H   H534      1.0  0.38441  0.70651  0.71364  1.0000
  H   H535      1.0  0.24308  0.70061  0.62721  1.0000
  H   H536      1.0  0.20208  0.72976  0.66211  1.0000
  H   H537      1.0  0.44939  0.73525  0.61366  1.0000
  H   H538      1.0  0.06862  0.50352  0.67421  1.0000
  N   N22       1.0  0.36086  0.53372  0.80211  1.0000
  H   H539      1.0  0.19301  0.53229  0.95886  1.0000
  H   H540      1.0  0.16791  0.49751  0.55922  1.0000
  C   C328      1.0  0.13985  0.58519  0.72594  1.0000
  H   H541      1.0  0.21768  0.51649  0.58639  1.0000
  H   H542      1.0  0.39906  0.56353  0.78758  1.0000
  C   C329      1.0  0.32851  0.51198  0.93680  1.0000
  H   H543      1.0  0.20776  0.52664  0.65231  1.0000
  H   H544      1.0  0.40767  0.71777  0.63891  1.0000
  C   C330      1.0  0.10051  0.74083  0.82590  1.0000
  C   C331      1.0  0.47407  0.66958  0.66165  1.0000
  H   H545      1.0  0.24107  0.72809  0.69706  1.0000
  H   H546      1.0  0.19898  0.70199  0.99360  1.0000
  H   H547      1.0  0.00241  0.54087  0.49614  1.0000
  H   H548      1.0  0.37794  0.51412  0.53763  1.0000
  C   C332      1.0  0.18998  0.50817  0.65219  1.0000
  H   H549      1.0  0.15900  0.53075  0.92094  1.0000
  H   H550      1.0  0.17440  0.52273  0.71411  1.0000
  H   H551      1.0  0.23887  0.55391  0.97328  1.0000
  H   H552      1.0  0.18193  0.69452  0.62152  1.0000
  C   C333      1.0  0.32319  0.50676  0.65746  1.0000
  H   H553      1.0  0.33640  0.52613  0.95895  1.0000
  C   C334      1.0  0.37271  0.56101  0.74442  1.0000
  H   H554      1.0  0.33497  0.56514  0.79320  1.0000
  H   H555      1.0  0.16036  0.50401  0.75201  1.0000
  C   C335      1.0  0.30736  0.50988  0.91491  1.0000
  H   H556      1.0  0.03774  0.50775  0.97907  1.0000
  C   C336      1.0  0.36574  0.51283  0.78588  1.0000
  H   H557      1.0  0.17927  0.58564  0.68063  1.0000
  H   H558      1.0  0.42684  0.71935  0.69891  1.0000
  H   H559      1.0  0.35288  0.55839  0.73861  1.0000
  H   H560      1.0  0.37563  0.54693  0.72766  1.0000
  C   C337      1.0  0.36673  0.53675  0.84229  1.0000
  H   H561      1.0  0.09351  0.72019  0.90612  1.0000
  H   H562      1.0  0.08762  0.71993  0.83109  1.0000
  H   H563      1.0  0.21670  0.69209  0.65578  1.0000
  N   N23       1.0  0.22279  0.72321  0.61952  1.0000
  H   H564      1.0  0.36587  0.55405  0.85337  1.0000
  H   H565      1.0  0.32710  0.53291  0.61447  1.0000
  H   H566      1.0  0.11840  0.74344  0.81325  1.0000
  C   C338      1.0  0.16788  0.50507  0.63196  1.0000
  H   H567      1.0  0.42316  0.51206  0.55175  1.0000
  H   H568      1.0  0.21071  0.68685  0.55793  1.0000
  N   N24       1.0  0.13309  0.53942  0.70909  1.0000
  C   C339      1.0  0.10439  0.53104  0.70378  1.0000
  C   C340      1.0  0.14469  0.56218  0.73572  1.0000
  C   C341      1.0  0.13520  0.51671  0.72481  1.0000
  C   C342      1.0  0.14536  0.54639  0.67288  1.0000
  Fe  Fe50      1.0  0.47670  0.62185  0.58777  1.0000
  S   S105      1.0  0.11752  0.56484  0.51626  1.0000
  H   H569      1.0  0.47414  0.52574  0.98892  1.0000
  C   C343      1.0  0.17490  0.56556  0.67280  1.0000
  H   H570      1.0  0.09525  0.52890  0.73031  1.0000
  H   H571      1.0  0.10142  0.54615  0.68944  1.0000
  H   H572      1.0  0.16609  0.57030  0.73951  1.0000
  H   H573      1.0  0.13692  0.55575  0.76296  1.0000
  C   C344      1.0  0.14763  0.53911  0.93348  1.0000
  H   H574      1.0  0.18991  0.71233  0.58136  1.0000
  H   H575      1.0  0.14165  0.52854  0.65746  1.0000
  H   H576      1.0  0.13605  0.55541  0.65569  1.0000
  H   H577      1.0  0.99574  0.51256  0.58658  1.0000
  H   H578      1.0  0.39237  0.73474  0.58978  1.0000
  H   H579      1.0  0.24638  0.72358  0.57567  1.0000
  C   C345      1.0  0.11400  0.72793  0.89787  1.0000
  H   H580      1.0  0.13035  0.52361  0.94634  1.0000
  H   H581      1.0  0.23731  0.55608  0.54866  1.0000
  H   H582      1.0  0.20352  0.66856  0.59911  1.0000
  C   C346      1.0  0.19734  0.70319  0.60144  1.0000
  H   H583      1.0  0.12778  0.50003  0.70494  1.0000
  H   H584      1.0  0.15348  0.60281  0.74230  1.0000
  H   H585      1.0  0.48145  0.67574  0.55549  1.0000
  H   H586      1.0  0.15091  0.56706  0.97419  1.0000
  C   C347      1.0  0.40367  0.50127  0.56362  1.0000
  H   H587      1.0  0.09713  0.50432  0.65690  1.0000
  C   C348      1.0  0.21683  0.74118  0.64203  1.0000
  H   H588      1.0  0.40209  0.72463  0.75418  1.0000
  H   H589      1.0  0.14837  0.72607  0.91952  1.0000
  C   C349      1.0  0.39863  0.72613  0.72486  1.0000
  Fe  Fe51      1.0  0.13167  0.53634  0.50165  1.0000
  C   C350      1.0  0.01748  0.50307  0.97922  1.0000
  C   C351      1.0  0.45934  0.74111  0.64074  1.0000
  H   H590      1.0  0.12271  0.50936  0.74854  1.0000
  H   H591      1.0  0.12981  0.73140  0.95406  1.0000
  H   H592      1.0  0.39235  0.50220  0.50668  1.0000
  H   H593      1.0  0.45334  0.72350  0.65690  1.0000
  S   S106      1.0  0.09495  0.50092  0.51655  1.0000
  C   C352      1.0  0.38346  0.49858  0.53344  1.0000
  H   H594      1.0  0.44629  0.50194  0.92848  1.0000
  H   H595      1.0  0.17414  0.50186  0.51297  1.0000
  H   H596      1.0  0.21098  0.73780  0.96139  1.0000
  C   C353      1.0  0.40672  0.73596  0.64507  1.0000
  H   H597      1.0  0.37216  0.49660  0.69096  1.0000
  N   N25       1.0  0.18105  0.55680  0.98797  1.0000
  H   H598      1.0  0.19378  0.61315  0.98586  1.0000
  C   C354      1.0  0.22723  0.56034  0.98947  1.0000
  C   C355      1.0  0.33999  0.49642  0.92910  1.0000
  C   C356      1.0  0.33561  0.49605  0.67888  1.0000
  C   C357      1.0  0.42475  0.73676  0.70590  1.0000
  H   H599      1.0  0.42726  0.49565  0.65290  1.0000
  H   H600      1.0  0.38965  0.73896  0.72299  1.0000
  Fe  Fe52      1.0  0.04627  0.85928  0.33713  1.0000
  S   S107      1.0  0.03860  0.81942  0.35283  1.0000
  S   S108      1.0  0.03860  0.86614  0.27901  1.0000
  Fe  Fe53      1.0  0.06986  0.88336  0.41207  1.0000
  S   S109      1.0  0.06411  0.84477  0.43221  1.0000
  S   S110      1.0  0.07900  0.91668  0.45264  1.0000
  Fe  Fe54      1.0  0.07907  0.84015  0.37861  1.0000
  S   S111      1.0  0.10546  0.82134  0.37372  1.0000
  Fe  Fe55      1.0  0.02433  0.82777  0.40442  1.0000
  S   S112      1.0  0.08764  0.88002  0.36046  1.0000
  S   S113      1.0  0.02914  0.86626  0.38662  1.0000
  C   C358      1.0  0.10852  0.94152  0.47285  1.0000
  H   H601      1.0  0.05467  0.84368  0.20375  1.0000
  C   C359      1.0  0.13834  0.84751  0.31829  1.0000
  C   C360      1.0  0.12682  0.82497  0.33856  1.0000
  C   C361      1.0  0.13329  0.80509  0.33189  1.0000
  H   H602      1.0  0.13395  0.86318  0.32361  1.0000
  H   H603      1.0  0.12455  0.78758  0.34744  1.0000
  C   C362      1.0  0.00797  0.84568  0.25719  1.0000
  C   C363      1.0  0.00454  0.84756  0.21985  1.0000
  H   H604      1.0  0.02064  0.86150  0.20483  1.0000
  C   C364      1.0  0.13287  0.94788  0.45959  1.0000
  N   N26       1.0  0.08420  0.83533  0.22734  1.0000
  C   C365      1.0  0.09630  0.85926  0.25192  1.0000
  C   C366      1.0  0.09804  0.84038  0.19241  1.0000
  C   C367      1.0  0.09927  0.88465  0.23540  1.0000
  C   C368      1.0  0.07062  0.80356  0.28025  1.0000
  C   C369      1.0  0.12781  0.85074  0.19602  1.0000
  H   H605      1.0  0.11589  0.86328  0.26249  1.0000
  H   H606      1.0  0.08461  0.85616  0.27620  1.0000
  H   H607      1.0  0.13412  0.93709  0.43662  1.0000
  H   H608      1.0  0.09013  0.82219  0.17548  1.0000
  H   H609      1.0  0.09451  0.85433  0.17600  1.0000
  H   H610      1.0  0.08030  0.88303  0.22638  1.0000
  H   H611      1.0  0.11270  0.89118  0.21284  1.0000
  H   H612      1.0  0.10686  0.81974  0.25459  1.0000
  H   H613      1.0  0.07701  0.81912  0.30141  1.0000
  H   H614      1.0  0.07425  0.78807  0.29182  1.0000
  H   H615      1.0  0.13293  0.83690  0.20968  1.0000
  C   C370      1.0  0.08632  0.81356  0.24600  1.0000
  H   H616      1.0  0.04932  0.79485  0.27470  1.0000
  C   C371      1.0  0.05610  0.82816  0.21917  1.0000
  H   H617      1.0  0.03858  0.78538  0.21073  1.0000
  H   H618      1.0  0.04591  0.82678  0.24446  1.0000
  H   H619      1.0  0.08062  0.79657  0.22723  1.0000
  H   H620      1.0  0.04673  0.80367  0.16950  1.0000
  H   H621      1.0  0.01934  0.79942  0.19391  1.0000
  C   C372      1.0  0.03963  0.80260  0.19707  1.0000
  H   H622      1.0  0.13567  0.85347  0.16863  1.0000
  H   H623      1.0  0.10769  0.90043  0.25654  1.0000
  H   H624      1.0  0.13819  0.86994  0.21038  1.0000
  C   C373      1.0  0.15105  0.80766  0.30536  1.0000
  H   H625      1.0  0.02226  0.88757  0.46843  1.0000
  H   H626      1.0  0.01508  0.88362  0.01176  1.0000
  C   C374      1.0  0.15563  0.96874  0.47557  1.0000
  H   H627      1.0  0.15567  0.79211  0.30038  1.0000
  S   S114      1.0  0.98764  0.79630  0.42943  1.0000
  C   C375      1.0  0.99150  0.84208  0.01780  1.0000
  H   H628      1.0  0.98944  0.82617  0.30518  1.0000
  C   C376      1.0  0.98700  0.82775  0.27642  1.0000
  H   H629      1.0  0.05153  0.87121  0.49264  1.0000
  H   H630      1.0  0.02482  0.81159  0.49200  1.0000
  C   C377      1.0  0.15594  0.84999  0.29153  1.0000
  H   H631      1.0  0.01957  0.84654  0.48283  1.0000
  C   C378      1.0  0.16255  0.83017  0.28504  1.0000
  H   H632      1.0  0.08283  0.99219  0.42984  1.0000
  C   C379      1.0  0.01156  0.86453  0.00267  1.0000
  C   C380      1.0  0.98637  0.81724  0.00588  1.0000
  H   H633      1.0  0.44982  0.98195  0.06387  1.0000
  H   H634      1.0  0.47056  0.78891  0.07529  1.0000
  S   S115      1.0  0.47938  0.76634  0.21284  1.0000
  C   C381      1.0  0.21422  0.75201  0.01778  1.0000
  C   C382      1.0  0.43530  0.97633  0.08520  1.0000
  C   C383      1.0  0.23132  0.85371  0.37485  1.0000
  H   H635      1.0  0.23415  0.81599  0.41324  1.0000
  H   H636      1.0  0.17291  0.85252  0.39712  1.0000
  H   H637      1.0  0.41191  0.76869  0.27211  1.0000
  S   S116      1.0  0.42163  0.88152  0.01463  1.0000
  H   H638      1.0  0.25046  0.75806  0.07417  1.0000
  H   H639      1.0  0.46122  0.75848  0.05320  1.0000
  H   H640      1.0  0.47754  0.79636  0.36107  1.0000
  H   H641      1.0  0.41523  0.76523  0.39303  1.0000
  C   C384      1.0  0.21760  0.85502  0.33928  1.0000
  H   H642      1.0  0.39071  0.97803  0.09368  1.0000
  H   H643      1.0  0.16476  0.86753  0.27605  1.0000
  S   S117      1.0  0.37263  0.83748  0.08993  1.0000
  H   H644      1.0  0.39708  0.96450  0.14983  1.0000
  H   H645      1.0  0.24496  0.87416  0.38388  1.0000
  H   H646      1.0  0.23550  0.75857  0.01868  1.0000
  H   H647      1.0  0.40389  0.81913  0.26070  1.0000
  H   H648      1.0  0.36706  0.81163  0.17184  1.0000
  C   C385      1.0  0.35422  0.84501  0.12025  1.0000
  C   C386      1.0  0.40554  0.96397  0.03194  1.0000
  H   H649      1.0  0.20865  0.83610  0.32421  1.0000
  H   H650      1.0  0.20474  0.74847  0.08788  1.0000
  H   H651      1.0  0.42112  0.92977  0.05102  1.0000
  H   H652      1.0  0.44266  0.94435  0.46767  1.0000
  C   C387      1.0  0.42224  0.76021  0.25714  1.0000
  H   H653      1.0  0.26774  0.86340  0.42824  1.0000
  Fe  Fe56      1.0  0.45927  0.91123  0.04198  1.0000
  N   N27       1.0  0.44003  0.75002  0.31637  1.0000
  H   H654      1.0  0.42831  0.77836  0.33305  1.0000
  H   H655      1.0  0.16819  0.75277  0.02710  1.0000
  C   C388      1.0  0.46727  0.81429  0.14475  1.0000
  H   H656      1.0  0.44071  0.77601  0.24736  1.0000
  C   C389      1.0  0.20783  0.85615  0.42828  1.0000
  H   H657      1.0  0.45241  0.95297  0.10805  1.0000
  H   H658      1.0  0.43957  0.78764  0.03337  1.0000
  S   S118      1.0  0.30513  0.86156  0.20035  1.0000
  S   S119      1.0  0.20726  0.78015  0.27511  1.0000
  H   H659      1.0  0.41758  0.95942  0.01371  1.0000
  H   H660      1.0  0.17435  0.97386  0.46470  1.0000
  H   H661      1.0  0.46478  0.78913  0.29757  1.0000
  C   C390      1.0  0.22862  0.82871  0.42896  1.0000
  N   N28       1.0  0.35432  0.81908  0.24715  1.0000
  C   C391      1.0  0.18896  0.81555  0.39177  1.0000
  C   C392      1.0  0.46651  0.77293  0.31055  1.0000
  N   N29       1.0  0.40851  0.95674  0.07020  1.0000
  H   H662      1.0  0.46958  0.97385  0.42026  1.0000
  C   C393      1.0  0.44771  0.79397  0.00649  1.0000
  Fe  Fe57      1.0  0.24859  0.80462  0.29708  1.0000
  H   H663      1.0  0.21240  0.76813  0.03119  1.0000
  Fe  Fe58      1.0  0.21271  0.81698  0.24910  1.0000
  S   S120      1.0  0.18460  0.83409  0.25071  1.0000
  C   C394      1.0  0.32335  0.85478  0.16885  1.0000
  Fe  Fe59      1.0  0.46839  0.86851  0.07864  1.0000
  C   C395      1.0  0.48519  0.79281  0.18445  1.0000
  H   H664      1.0  0.44425  0.77807  0.17132  1.0000
  H   H665      1.0  0.38906  0.93198  0.13459  1.0000
  H   H666      1.0  0.37503  0.91025  0.02551  1.0000
  Fe  Fe60      1.0  0.41318  0.86116  0.06787  1.0000
  S   S121      1.0  0.26602  0.79520  0.25020  1.0000
  C   C396      1.0  0.29181  0.81613  0.41503  1.0000
  C   C397      1.0  0.40596  0.92981  0.06836  1.0000
  C   C398      1.0  0.45676  0.96435  0.47471  1.0000
  H   H667      1.0  0.35492  0.89420  0.17117  1.0000
  H   H668      1.0  0.44610  0.76625  0.39145  1.0000
  H   H669      1.0  0.32260  0.80555  0.11816  1.0000
  C   C399      1.0  0.36331  0.86999  0.13548  1.0000
  C   C400      1.0  0.33596  0.84222  0.37464  1.0000
  C   C401      1.0  0.33585  0.82922  0.25668  1.0000
  H   H670      1.0  0.32342  0.81815  0.27903  1.0000
  N   N30       1.0  0.21412  0.83873  0.40508  1.0000
  H   H671      1.0  0.47736  0.76719  0.29159  1.0000
  H   H672      1.0  0.36072  0.86261  0.29383  1.0000
  C   C402      1.0  0.33897  0.84054  0.41212  1.0000
  Fe  Fe61      1.0  0.44345  0.85955  0.00251  1.0000
  H   H673      1.0  0.17788  0.82143  0.37282  1.0000
  H   H674      1.0  0.19593  0.78168  0.39214  1.0000
  C   C403      1.0  0.31447  0.82973  0.15403  1.0000
  C   C404      1.0  0.37244  0.83679  0.21940  1.0000
  C   C405      1.0  0.34851  0.85827  0.26864  1.0000
  H   H675      1.0  0.30820  0.75237  0.24209  1.0000
  C   C406      1.0  0.47551  0.97690  0.00406  1.0000
  S   S122      1.0  0.44952  0.89232  0.09656  1.0000
  C   C407      1.0  0.44710  0.96794  0.11693  1.0000
  H   H676      1.0  0.36246  0.84522  0.20251  1.0000
  H   H677      1.0  0.35307  0.85227  0.35896  1.0000
  C   C408      1.0  0.32977  0.82495  0.12971  1.0000
  H   H678      1.0  0.45060  0.81459  0.13171  1.0000
  H   H679      1.0  0.37954  0.88893  0.05529  1.0000
  C   C409      1.0  0.37927  0.90779  0.05412  1.0000
  H   H680      1.0  0.38177  0.83987  0.29170  1.0000
  C   C410      1.0  0.31676  0.82770  0.43235  1.0000
  H   H681      1.0  0.29572  0.81408  0.16113  1.0000
  H   H682      1.0  0.39775  0.84042  0.17560  1.0000
  H   H683      1.0  0.37708  0.78692  0.26890  1.0000
  H   H684      1.0  0.23229  0.86946  0.32161  1.0000
  C   C411      1.0  0.38470  0.94819  0.13062  1.0000
  C   C412      1.0  0.19167  0.79352  0.37255  1.0000
  S   S123      1.0  0.22781  0.80900  0.19742  1.0000
  C   C413      1.0  0.28883  0.81773  0.37753  1.0000
  H   H685      1.0  0.20300  0.88283  0.39115  1.0000
  S   S124      1.0  0.25318  0.84166  0.27364  1.0000
  H   H686      1.0  0.36319  0.90580  0.07102  1.0000
  C   C414      1.0  0.38283  0.82462  0.19153  1.0000
  H   H687      1.0  0.38229  0.88538  0.12904  1.0000
  S   S125      1.0  0.47771  0.95566  0.03673  1.0000
  C   C415      1.0  0.31099  0.83114  0.35746  1.0000
  C   C416      1.0  0.34781  0.87488  0.15939  1.0000
  H   H688      1.0  0.17581  0.80662  0.41451  1.0000
  H   H689      1.0  0.20700  0.80107  0.35251  1.0000
  S   S126      1.0  0.43166  0.83644  0.05296  1.0000
  H   H690      1.0  0.39640  0.80811  0.30551  1.0000
  C   C417      1.0  0.25428  0.84961  0.44768  1.0000
  H   H691      1.0  0.38953  0.85386  0.23269  1.0000
  H   H692      1.0  0.32850  0.76871  0.28102  1.0000
  C   C418      1.0  0.31860  0.77151  0.25680  1.0000
  H   H693      1.0  0.36803  0.94701  0.07729  1.0000
  H   H694      1.0  0.18592  0.87727  0.43143  1.0000
  C   C419      1.0  0.48455  0.78544  0.34426  1.0000
  H   H695      1.0  0.33274  0.86307  0.27437  1.0000
  H   H696      1.0  0.30334  0.77628  0.26505  1.0000
  H   H697      1.0  0.20264  0.86111  0.34279  1.0000
  C   C420      1.0  0.33802  0.79181  0.23144  1.0000
  H   H698      1.0  0.25070  0.86038  0.46956  1.0000
  H   H699      1.0  0.17296  0.78011  0.35800  1.0000
  C   C421      1.0  0.19145  0.86748  0.41029  1.0000
  C   C422      1.0  0.36932  0.81954  0.28126  1.0000
  H   H700      1.0  0.43434  0.96086  0.14004  1.0000
  H   H701      1.0  0.21593  0.81624  0.45034  1.0000
  C   C423      1.0  0.46375  0.79360  0.16727  1.0000
  H   H702      1.0  0.35574  0.80944  0.30314  1.0000
  H   H703      1.0  0.27476  0.80561  0.43069  1.0000
  C   C424      1.0  0.38752  0.95771  0.09158  1.0000
  H   H704      1.0  0.31885  0.82614  0.46117  1.0000
  H   H705      1.0  0.36404  0.94016  0.13795  1.0000
  H   H706      1.0  0.39200  0.81369  0.20373  1.0000
  H   H707      1.0  0.24418  0.84543  0.36713  1.0000
  H   H708      1.0  0.19729  0.84549  0.45235  1.0000
  H   H709      1.0  0.35993  0.87152  0.24721  1.0000
  H   H710      1.0  0.35031  0.78345  0.22203  1.0000
  H   H711      1.0  0.30877  0.83282  0.32876  1.0000
  S   S127      1.0  0.37076  0.85374  0.43223  1.0000
  H   H712      1.0  0.38511  0.95220  0.02107  1.0000
  H   H713      1.0  0.22594  0.87339  0.43891  1.0000
  H   H714      1.0  0.26456  0.83981  0.46061  1.0000
  H   H715      1.0  0.40986  0.92358  0.09489  1.0000
  Fe  Fe62      1.0  0.26782  0.83055  0.22461  1.0000
  H   H716      1.0  0.32661  0.79221  0.20692  1.0000
  Fe  Fe63      1.0  0.22512  0.77378  0.22554  1.0000
  S   S128      1.0  0.25714  0.80237  0.35686  1.0000
  C   C425      1.0  0.38758  0.80760  0.27830  1.0000
  H   H717      1.0  0.32219  0.82640  0.23335  1.0000
  H   H718      1.0  0.45627  0.81538  0.00470  1.0000
  C   C426      1.0  0.42374  0.75796  0.33874  1.0000
  C   C427      1.0  0.47831  0.77796  0.05963  1.0000
  S   S129      1.0  0.48152  0.89027  0.02686  1.0000
  C   C428      1.0  0.41295  0.99281  0.02606  1.0000
  H   H719      1.0  0.46559  0.98504  0.12683  1.0000
  C   C429      1.0  0.42586  0.75609  0.38015  1.0000
  C   C430      1.0  0.47210  0.98117  0.44779  1.0000
  C   C431      1.0  0.46765  0.78487  0.99742  1.0000
  Fe  Fe64      1.0  0.37937  0.86150  0.49265  1.0000
  H   H720      1.0  0.41001  0.75003  0.23257  1.0000
  H   H721      1.0  0.40260  0.74587  0.33118  1.0000
  H   H722      1.0  0.23977  0.74398  0.11697  1.0000
  H   H723      1.0  0.38269  0.97582  0.63876  1.0000
  S   S130      1.0  0.37135  0.89020  0.52266  1.0000
  Fe  Fe65      1.0  0.40986  0.85574  0.55808  1.0000
  S   S131      1.0  0.40377  0.88417  0.59222  1.0000
  S   S132      1.0  0.43356  0.83532  0.57351  1.0000
  Fe  Fe66      1.0  0.36217  0.86282  0.56939  1.0000
  S   S133      1.0  0.32421  0.85323  0.59748  1.0000
  Fe  Fe67      1.0  0.41336  0.90871  0.54222  1.0000
  S   S134      1.0  0.44120  0.95288  0.54584  1.0000
  S   S135      1.0  0.36781  0.83299  0.53766  1.0000
  H   H724      1.0  0.36057  0.96410  0.57748  1.0000
  S   S136      1.0  0.43883  0.84180  0.94623  1.0000
  H   H725      1.0  0.47028  0.80753  0.84973  1.0000
  Fe  Fe68      1.0  0.22224  0.76395  0.74926  1.0000
  H   H726      1.0  0.11933  0.80367  0.89981  1.0000
  S   S137      1.0  0.26411  0.78186  0.72957  1.0000
  Fe  Fe69      1.0  0.17362  0.76856  0.76861  1.0000
  S   S138      1.0  0.15096  0.79163  0.77192  1.0000
  S   S139      1.0  0.20938  0.77453  0.80094  1.0000
  Fe  Fe70      1.0  0.08695  0.90490  0.92246  1.0000
  S   S140      1.0  0.12594  0.91195  0.94639  1.0000
  S   S141      1.0  0.05029  0.89170  0.95551  1.0000
  Fe  Fe71      1.0  0.11212  0.93379  0.85320  1.0000
  S   S142      1.0  0.15205  0.94257  0.87304  1.0000
  S   S143      1.0  0.10411  0.94578  0.79781  1.0000
  Fe  Fe72      1.0  0.13302  0.90093  0.89072  1.0000
  S   S144      1.0  0.15663  0.87931  0.88223  1.0000
  Fe  Fe73      1.0  0.14162  0.95284  0.92649  1.0000
  H   H727      1.0  0.43019  0.78988  0.65908  1.0000
  S   S145      1.0  0.09306  0.89133  0.86794  1.0000
  S   S146      1.0  0.10272  0.94667  0.90524  1.0000
  C   C432      1.0  0.15301  0.81619  0.80273  1.0000
  C   C433      1.0  0.17485  0.83048  0.82585  1.0000
  C   C434      1.0  0.17547  0.84958  0.84997  1.0000
  C   C435      1.0  0.15426  0.85459  0.85159  1.0000
  C   C436      1.0  0.13238  0.84030  0.82850  1.0000
  C   C437      1.0  0.13191  0.82143  0.80400  1.0000
  H   H728      1.0  0.19132  0.82687  0.82507  1.0000
  H   H729      1.0  0.19255  0.86058  0.86758  1.0000
  H   H730      1.0  0.11589  0.84387  0.82944  1.0000
  H   H731      1.0  0.11492  0.81055  0.78621  1.0000
  C   C438      1.0  0.12732  0.97175  0.77273  1.0000
  H   H732      1.0  0.13911  0.77170  0.94292  1.0000
  H   H733      1.0  0.03390  0.83585  0.94377  1.0000
  H   H734      1.0  0.10093  0.96306  0.72641  1.0000
  H   H735      1.0  0.26654  0.77246  0.62444  1.0000
  C   C439      1.0  0.12038  0.97573  0.73758  1.0000
  C   C440      1.0  0.02232  0.83775  0.96450  1.0000
  H   H736      1.0  0.47154  0.87337  0.69444  1.0000
  H   H737      1.0  0.15180  0.74989  0.85489  1.0000
  C   C441      1.0  0.07217  0.89390  0.56134  1.0000
  H   H738      1.0  0.47529  0.93066  0.52086  1.0000
  H   H739      1.0  0.13897  0.81188  0.94049  1.0000
  C   C442      1.0  0.46240  0.83547  0.92646  1.0000
  H   H740      1.0  0.28246  0.75434  0.60973  1.0000
  H   H741      1.0  0.12876  0.98718  0.54194  1.0000
  C   C443      1.0  0.15156  0.76566  0.87168  1.0000
  H   H742      1.0  0.03253  0.88594  0.56921  1.0000
  C   C444      1.0  0.30757  0.83259  0.63363  1.0000
  C   C445      1.0  0.31868  0.82061  0.65510  1.0000
  C   C446      1.0  0.30511  0.80530  0.68430  1.0000
  C   C447      1.0  0.28017  0.80149  0.69233  1.0000
  C   C448      1.0  0.26895  0.81326  0.67063  1.0000
  C   C449      1.0  0.28263  0.82879  0.64164  1.0000
  H   H743      1.0  0.33784  0.82336  0.64950  1.0000
  H   H744      1.0  0.31403  0.79635  0.70088  1.0000
  H   H745      1.0  0.24986  0.81064  0.67643  1.0000
  H   H746      1.0  0.27383  0.83800  0.62537  1.0000
  C   C450      1.0  0.45329  0.84044  0.61330  1.0000
  H   H747      1.0  0.46839  0.81574  0.59376  1.0000
  H   H748      1.0  0.43295  0.78176  0.74070  1.0000
  C   C451      1.0  0.47503  0.81761  0.87573  1.0000
  C   C452      1.0  0.04327  0.87460  0.56744  1.0000
  C   C453      1.0  0.04407  0.83647  0.54063  1.0000
  H   H749      1.0  0.09688  0.98432  0.85489  1.0000
  H   H750      1.0  0.99836  0.79618  0.96998  1.0000
  H   H751      1.0  0.39675  0.92995  0.59403  1.0000
  H   H752      1.0  0.99535  0.83680  0.60666  1.0000
  H   H753      1.0  0.00262  0.87714  0.50667  1.0000
  H   H754      1.0  0.45364  0.93019  0.89146  1.0000
  H   H755      1.0  0.34507  0.97106  0.67279  1.0000
  H   H756      1.0  0.48190  0.89352  0.51215  1.0000
  H   H757      1.0  0.17252  0.76924  0.92529  1.0000
  H   H758      1.0  0.44509  0.94704  0.97038  1.0000
  H   H759      1.0  0.99198  0.84858  0.54841  1.0000
  H   H760      1.0  0.01170  0.79610  0.53399  1.0000
  C   C454      1.0  0.45668  0.98536  0.94942  1.0000
  H   H761      1.0  0.43823  0.96373  0.62669  1.0000
  H   H762      1.0  0.33013  0.91789  0.60612  1.0000
  H   H763      1.0  0.15284  0.81047  0.89893  1.0000
  H   H764      1.0  0.21744  0.77066  0.96633  1.0000
  C   C455      1.0  0.20679  0.75743  0.62092  1.0000
  H   H765      1.0  0.43986  0.89498  0.89283  1.0000
  H   H766      1.0  0.04875  0.83308  0.56872  1.0000
  H   H767      1.0  0.46347  0.89792  0.56770  1.0000
  H   H768      1.0  0.48057  0.74938  0.63688  1.0000
  H   H769      1.0  0.04257  0.80068  0.52050  1.0000
  C   C456      1.0  0.15432  0.98322  0.50515  1.0000
  C   C457      1.0  0.02968  0.80976  0.52056  1.0000
  H   H770      1.0  0.18571  0.79848  0.89889  1.0000
  C   C458      1.0  0.02703  0.86258  0.97580  1.0000
  C   C459      1.0  0.99666  0.82370  0.58593  1.0000
  H   H771      1.0  0.01150  0.81828  0.59534  1.0000
  C   C460      1.0  0.45424  0.85666  0.64187  1.0000
  S   S147      1.0  0.18788  0.76085  0.71629  1.0000
  H   H772      1.0  0.38047  0.91840  0.67471  1.0000
  C   C461      1.0  0.02252  0.88353  0.49761  1.0000
  H   H773      1.0  0.47537  0.79287  0.97067  1.0000
  H   H774      1.0  0.08849  0.95115  0.51301  1.0000
  C   C462      1.0  0.12617  0.77212  0.92081  1.0000
  H   H775      1.0  0.33839  0.91071  0.69271  1.0000
  H   H776      1.0  0.44231  0.86616  0.64031  1.0000
  H   H777      1.0  0.45931  0.77770  0.63967  1.0000
  C   C463      1.0  0.15251  0.98826  0.78683  1.0000
  C   C464      1.0  0.17590  0.77684  0.89779  1.0000
  N   N31       1.0  0.16906  0.91397  0.76403  1.0000
  C   C465      1.0  0.16815  0.88771  0.76286  1.0000
  C   C466      1.0  0.14601  0.91083  0.78474  1.0000
  C   C467      1.0  0.19387  0.93258  0.78477  1.0000
  C   C468      1.0  0.16869  0.92254  0.72582  1.0000
  C   C469      1.0  0.19089  0.88637  0.74485  1.0000
  C   C470      1.0  0.11897  0.89072  0.76869  1.0000
  C   C471      1.0  0.19897  0.96077  0.79043  1.0000
  C   C472      1.0  0.15913  0.94277  0.71965  1.0000
  H   H778      1.0  0.16760  0.88061  0.79060  1.0000
  H   H779      1.0  0.15011  0.87282  0.74827  1.0000
  H   H780      1.0  0.14550  0.92940  0.78803  1.0000
  H   H781      1.0  0.14750  0.90493  0.81287  1.0000
  H   H782      1.0  0.19449  0.92490  0.81207  1.0000
  H   H783      1.0  0.21125  0.93447  0.77107  1.0000
  H   H784      1.0  0.18845  0.93064  0.71475  1.0000
  H   H785      1.0  0.15567  0.90536  0.70811  1.0000
  H   H786      1.0  0.20918  0.89613  0.76183  1.0000
  H   H787      1.0  0.18610  0.86557  0.74214  1.0000
  H   H788      1.0  0.19409  0.89435  0.71740  1.0000
  H   H789      1.0  0.10375  0.89346  0.78218  1.0000
  H   H790      1.0  0.11667  0.89297  0.73942  1.0000
  H   H791      1.0  0.11489  0.87049  0.77398  1.0000
  H   H792      1.0  0.18326  0.96193  0.80467  1.0000
  H   H793      1.0  0.20266  0.97119  0.76466  1.0000
  H   H794      1.0  0.21696  0.97160  0.80786  1.0000
  H   H795      1.0  0.17059  0.95626  0.69834  1.0000
  H   H796      1.0  0.16122  0.95512  0.74335  1.0000
  H   H797      1.0  0.13856  0.93319  0.70911  1.0000
  H   H798      1.0  0.44306  0.97798  0.92637  1.0000
  H   H799      1.0  0.15510  0.78148  0.85272  1.0000
  C   C473      1.0  0.45799  0.96770  0.97413  1.0000
  H   H800      1.0  0.07941  0.90985  0.58217  1.0000
  H   H801      1.0  0.08780  0.75320  0.87241  1.0000
  H   H802      1.0  0.40174  0.76502  0.61289  1.0000
  C   C474      1.0  0.46879  0.82809  0.61591  1.0000
  C   C475      1.0  0.00196  0.83650  0.54873  1.0000
  H   H803      1.0  0.99079  0.82117  0.52761  1.0000
  C   C476      1.0  0.45442  0.76200  0.65933  1.0000
  H   H804      1.0  0.23398  0.75535  0.65864  1.0000
  N   N32       1.0  0.03018  0.85257  0.53993  1.0000
  H   H805      1.0  0.04268  0.86690  0.59493  1.0000
  H   H806      1.0  0.44104  0.74744  0.72628  1.0000
  H   H807      1.0  0.46946  0.77097  0.68177  1.0000
  H   H808      1.0  0.19047  0.77198  0.88657  1.0000
  N   N33       1.0  0.37002  0.93466  0.62850  1.0000
  H   H809      1.0  0.42011  0.93523  0.65171  1.0000
  C   C477      1.0  0.35022  0.92474  0.59724  1.0000
  C   C478      1.0  0.45676  0.82297  0.89231  1.0000
  C   C479      1.0  0.45970  0.97342  0.51051  1.0000
  H   H810      1.0  0.33607  0.95997  0.62708  1.0000
  H   H811      1.0  0.43296  0.91202  0.92681  1.0000
  H   H812      1.0  0.32753  0.93695  0.66265  1.0000
  H   H813      1.0  0.15817  0.98527  0.81365  1.0000
  H   H814      1.0  0.07096  0.98678  0.87466  1.0000
  H   H815      1.0  0.33693  0.93735  0.54957  1.0000
  H   H816      1.0  0.34962  0.90721  0.58429  1.0000
  N   N34       1.0  0.42747  0.75272  0.67304  1.0000
  S   S148      1.0  0.17282  0.99036  0.95475  1.0000
  H   H817      1.0  0.10657  0.76362  0.93256  1.0000
  H   H818      1.0  0.46099  0.79923  0.71332  1.0000
  H   H819      1.0  0.40345  0.77083  0.68516  1.0000
  H   H820      1.0  0.40165  0.96223  0.59671  1.0000
  S   S149      1.0  0.42194  0.88148  0.50994  1.0000
  H   H821      1.0  0.42620  0.75757  0.59650  1.0000
  H   H822      1.0  0.37042  0.94533  0.54924  1.0000
  H   H823      1.0  0.37757  0.95750  0.67810  1.0000
  C   C480      1.0  0.00207  0.81526  0.97937  1.0000
  H   H824      1.0  0.11465  0.77832  0.85090  1.0000
  H   H825      1.0  0.08459  0.88440  0.56407  1.0000
  C   C481      1.0  0.41969  0.95261  0.64065  1.0000
  H   H826      1.0  0.07504  0.90318  0.53478  1.0000
  C   C482      1.0  0.13001  0.97645  0.51892  1.0000
  C   C483      1.0  0.35499  0.94426  0.56691  1.0000
  C   C484      1.0  0.03144  0.86274  0.50244  1.0000
  H   H827      1.0  0.12577  0.98665  0.98594  1.0000
  H   H828      1.0  0.43763  0.81028  0.71766  1.0000
  C   C485      1.0  0.40711  0.74936  0.60921  1.0000
  H   H829      1.0  0.46551  0.89814  0.94785  1.0000
  H   H830      1.0  0.27532  0.77437  0.57957  1.0000
  C   C486      1.0  0.36958  0.95648  0.65009  1.0000
  N   N35       1.0  0.12532  0.75617  0.88807  1.0000
  C   C487      1.0  0.13487  0.80111  0.91420  1.0000
  H   H831      1.0  0.06340  0.84719  0.52831  1.0000
  C   C488      1.0  0.26786  0.76066  0.60215  1.0000
  C   C489      1.0  0.34292  0.95568  0.65308  1.0000
  C   C490      1.0  0.42424  0.77624  0.68189  1.0000
  H   H832      1.0  0.33749  0.88048  0.68319  1.0000
  C   C491      1.0  0.44852  0.91342  0.90920  1.0000
  C   C492      1.0  0.47076  0.86065  0.67254  1.0000
  H   H833      1.0  0.43804  0.81716  0.87873  1.0000
  C   C493      1.0  0.43994  0.79254  0.71546  1.0000
  H   H834      1.0  0.36762  0.89695  0.63641  1.0000
  C   C494      1.0  0.20620  0.75091  0.97745  1.0000
  H   H835      1.0  0.32223  0.89186  0.65139  1.0000
  C   C495      1.0  0.39661  0.94468  0.61308  1.0000
  C   C496      1.0  0.33927  0.89839  0.67051  1.0000
  C   C497      1.0  0.36555  0.91212  0.65216  1.0000
  H   H836      1.0  0.43119  0.78545  0.98613  1.0000
  H   H837      1.0  0.03631  0.90230  0.51134  1.0000
  H   H838      1.0  0.46366  0.91477  0.62697  1.0000
  C   C498      1.0  0.10724  0.95588  0.50261  1.0000
  C   C499      1.0  0.48308  0.91024  0.58096  1.0000
  H   H839      1.0  0.47551  0.93128  0.95433  1.0000
  C   C500      1.0  0.48003  0.92745  0.60996  1.0000
  H   H840      1.0  0.22060  0.76964  0.60061  1.0000
  H   H841      1.0  0.47497  0.94194  0.59849  1.0000
  H   H842      1.0  0.47784  0.88171  0.89749  1.0000
  H   H843      1.0  0.48428  0.75043  0.97197  1.0000
  C   C501      1.0  0.47204  0.91656  0.93299  1.0000
  H   H844      1.0  0.47577  0.90175  0.86360  1.0000
  C   C502      1.0  0.10675  0.75804  0.86039  1.0000
  H   H845      1.0  0.20488  0.77106  0.64006  1.0000
  H   H846      1.0  0.45605  0.76339  0.99287  1.0000
  C   C503      1.0  0.48503  0.83180  0.64680  1.0000
  H   H847      1.0  0.08994  0.74671  0.80575  1.0000
  H   H848      1.0  0.41953  0.96530  0.66289  1.0000
  H   H849      1.0  0.18531  0.74513  0.97302  1.0000
  H   H850      1.0  0.18714  0.74507  0.60816  1.0000
  Fe  Fe74      1.0  0.58521  0.11396  0.47012  1.0000
  S   S150      1.0  0.58474  0.08283  0.43376  1.0000
  Fe  Fe75      1.0  0.55400  0.12673  0.41313  1.0000
  S   S151      1.0  0.55163  0.09608  0.37392  1.0000
  S   S152      1.0  0.53695  0.15386  0.40138  1.0000
  Fe  Fe76      1.0  0.54232  0.07031  0.42268  1.0000
  S   S153      1.0  0.50958  0.02753  0.42085  1.0000
  Fe  Fe77      1.0  0.59440  0.11188  0.38938  1.0000
  S   S154      1.0  0.62811  0.11799  0.35348  1.0000
  S   S155      1.0  0.54227  0.10021  0.46081  1.0000
  S   S156      1.0  0.59711  0.14365  0.42665  1.0000
  S   S157      1.0  0.51337  0.13784  0.03214  1.0000
  Fe  Fe78      1.0  0.88392  0.08340  0.05979  1.0000
  S   S158      1.0  0.84571  0.07596  0.03243  1.0000
  S   S159      1.0  0.92203  0.09639  0.02971  1.0000
  Fe  Fe79      1.0  0.85615  0.05601  0.12915  1.0000
  S   S160      1.0  0.81717  0.04729  0.10538  1.0000
  S   S161      1.0  0.86009  0.04538  0.18742  1.0000
  Fe  Fe80      1.0  0.82934  0.03553  0.05452  1.0000
  H   H851      1.0  0.97691  0.12355  0.43614  1.0000
  Fe  Fe81      1.0  0.83706  0.08859  0.08621  1.0000
  S   S162      1.0  0.81430  0.11161  0.09164  1.0000
  S   S163      1.0  0.86748  0.04213  0.07969  1.0000
  S   S164      1.0  0.87612  0.09813  0.11234  1.0000
  H   H852      1.0  0.57499  0.21661  0.28181  1.0000
  H   H853      1.0  0.61786  0.18208  0.04257  1.0000
  S   S165      1.0  0.70587  0.21298  0.25778  1.0000
  Fe  Fe82      1.0  0.79128  0.22257  0.20052  1.0000
  S   S166      1.0  0.81453  0.19990  0.19714  1.0000
  S   S167      1.0  0.75243  0.21438  0.17468  1.0000
  C   C504      1.0  0.83872  0.01651  0.20988  1.0000
  C   C505      1.0  0.84290  0.01492  0.24717  1.0000
  H   H854      1.0  0.81111  0.04688  0.45639  1.0000
  H   H855      1.0  0.85902  0.03113  0.26146  1.0000
  S   S168      1.0  0.79996  0.99555  0.02981  1.0000
  C   C506      1.0  0.81540  0.13704  0.12027  1.0000
  C   C507      1.0  0.79471  0.14297  0.11780  1.0000
  C   C508      1.0  0.79428  0.16237  0.14046  1.0000
  C   C509      1.0  0.81452  0.17612  0.16624  1.0000
  C   C510      1.0  0.83531  0.17031  0.16854  1.0000
  C   C511      1.0  0.83588  0.15115  0.14558  1.0000
  H   H856      1.0  0.77878  0.13237  0.09828  1.0000
  H   H857      1.0  0.77811  0.16644  0.13822  1.0000
  H   H858      1.0  0.85121  0.18084  0.18811  1.0000
  H   H859      1.0  0.85226  0.14744  0.14716  1.0000
  H   H860      1.0  0.90811  0.04406  0.44565  1.0000
  C   C512      1.0  0.72776  0.18552  0.38707  1.0000
  H   H861      1.0  0.85832  0.23916  0.23636  1.0000
  H   H862      1.0  0.71602  0.21662  0.45297  1.0000
  C   C513      1.0  0.81780  0.99534  0.19178  1.0000
  C   C514      1.0  0.94424  0.12448  0.00625  1.0000
  H   H863      1.0  0.82918  0.21247  0.28081  1.0000
  C   C515      1.0  0.90097  0.05806  0.45268  1.0000
  H   H864      1.0  0.65226  0.16948  0.40123  1.0000
  H   H865      1.0  0.50462  0.17567  0.19799  1.0000
  H   H866      1.0  0.55542  0.15108  0.24125  1.0000
  H   H867      1.0  0.86965  0.06531  0.42991  1.0000
  N   N36       1.0  0.54424  0.19233  0.21997  1.0000
  H   H868      1.0  0.69915  0.14896  0.44147  1.0000
  H   H869      1.0  0.79156  0.02456  0.25646  1.0000
  H   H870      1.0  0.58933  0.16884  0.23314  1.0000
  C   C516      1.0  0.81366  0.01189  0.46630  1.0000
  C   C517      1.0  0.51133  0.13145  0.33587  1.0000
  C   C518      1.0  0.66910  0.20976  0.41822  1.0000
  C   C519      1.0  0.68462  0.18624  0.28430  1.0000
  C   C520      1.0  0.66348  0.18707  0.30024  1.0000
  C   C521      1.0  0.64593  0.16641  0.32123  1.0000
  C   C522      1.0  0.64915  0.14443  0.32645  1.0000
  C   C523      1.0  0.67029  0.14358  0.31056  1.0000
  C   C524      1.0  0.68797  0.16434  0.28980  1.0000
  H   H871      1.0  0.66064  0.20385  0.29622  1.0000
  H   H872      1.0  0.62985  0.16747  0.33319  1.0000
  H   H873      1.0  0.67304  0.12672  0.31432  1.0000
  H   H874      1.0  0.70400  0.16327  0.27769  1.0000
  C   C525      1.0  0.51685  0.15052  0.36269  1.0000
  C   C526      1.0  0.50575  0.16709  0.35905  1.0000
  H   H875      1.0  0.65683  0.14062  0.47629  1.0000
  H   H876      1.0  0.51006  0.18205  0.37955  1.0000
  C   C527      1.0  0.93593  0.09491  0.42188  1.0000
  H   H877      1.0  0.65307  0.23101  0.04138  1.0000
  H   H878      1.0  0.67889  0.14172  0.40166  1.0000
  H   H879      1.0  0.96457  0.12891  0.39456  1.0000
  C   C528      1.0  0.52194  0.17263  0.19606  1.0000
  H   H880      1.0  0.87981  0.10548  0.46045  1.0000
  C   C529      1.0  0.68264  0.15103  0.42917  1.0000
  H   H881      1.0  0.56957  0.21909  0.15840  1.0000
  H   H882      1.0  0.48893  0.06051  0.39188  1.0000
  C   C530      1.0  0.48674  0.16646  0.03399  1.0000
  H   H883      1.0  0.68225  0.22392  0.43931  1.0000
  H   H884      1.0  0.64015  0.12897  0.43313  1.0000
  H   H885      1.0  0.89939  0.11002  0.42263  1.0000
  H   H886      1.0  0.83896  0.23873  0.31269  1.0000
  C   C531      1.0  0.48904  0.16442  0.32914  1.0000
  H   H887      1.0  0.53706  0.21533  0.15089  1.0000
  H   H888      1.0  0.48814  0.16747  0.00499  1.0000
  C   C532      1.0  0.91529  0.10330  0.47544  1.0000
  H   H889      1.0  0.56706  0.23457  0.22371  1.0000
  C   C533      1.0  0.63231  0.22214  0.03173  1.0000
  H   H890      1.0  0.60306  0.14010  0.02935  1.0000
  C   C534      1.0  0.82027  0.03813  0.47294  1.0000
  H   H891      1.0  0.65726  0.11387  0.45339  1.0000
  C   C535      1.0  0.62324  0.19402  0.01799  1.0000
  H   H892      1.0  0.71141  0.21117  0.39057  1.0000
  H   H893      1.0  0.57688  0.17860  0.26983  1.0000
  H   H894      1.0  0.56941  0.18337  0.18792  1.0000
  H   H895      1.0  0.62060  0.22235  0.05455  1.0000
  H   H896      1.0  0.90938  0.13535  0.45590  1.0000
  H   H897      1.0  0.74347  0.19601  0.40800  1.0000
  H   H898      1.0  0.49093  0.07584  0.35088  1.0000
  N   N37       1.0  0.80783  0.07442  0.21667  1.0000
  C   C536      1.0  0.81956  0.06562  0.24690  1.0000
  C   C537      1.0  0.82984  0.09183  0.19332  1.0000
  C   C538      1.0  0.78893  0.05053  0.19471  1.0000
  C   C539      1.0  0.79421  0.08810  0.23310  1.0000
  C   C540      1.0  0.80024  0.04388  0.27070  1.0000
  C   C541      1.0  0.85250  0.11573  0.21287  1.0000
  C   C542      1.0  0.77432  0.05488  0.16247  1.0000
  C   C543      1.0  0.79000  0.10748  0.20919  1.0000
  H   H899      1.0  0.83267  0.05865  0.23614  1.0000
  H   H900      1.0  0.83216  0.08218  0.26571  1.0000
  H   H901      1.0  0.82314  0.09917  0.17014  1.0000
  H   H902      1.0  0.83842  0.08055  0.18055  1.0000
  H   H903      1.0  0.79915  0.04001  0.18439  1.0000
  H   H904      1.0  0.77323  0.03648  0.21154  1.0000
  H   H905      1.0  0.77485  0.07357  0.24261  1.0000
  H   H906      1.0  0.80554  0.09971  0.25757  1.0000
  H   H907      1.0  0.95162  0.07167  0.46904  1.0000
  C   C544      1.0  0.49410  0.12831  0.30650  1.0000
  H   H908      1.0  0.95490  0.13727  0.43556  1.0000
  H   H909      1.0  0.86613  0.12833  0.19258  1.0000
  H   H910      1.0  0.84566  0.12759  0.22790  1.0000
  H   H911      1.0  0.86411  0.10993  0.23117  1.0000
  H   H912      1.0  0.76302  0.03615  0.14701  1.0000
  H   H913      1.0  0.78749  0.06904  0.14326  1.0000
  H   H914      1.0  0.76001  0.06079  0.17156  1.0000
  H   H915      1.0  0.77092  0.10621  0.21494  1.0000
  H   H916      1.0  0.78967  0.10424  0.17981  1.0000
  H   H917      1.0  0.80475  0.12790  0.21645  1.0000
  N   N38       1.0  0.92357  0.08532  0.45756  1.0000
  C   C545      1.0  0.95931  0.12275  0.42268  1.0000
  H   H918      1.0  0.64989  0.20919  0.41974  1.0000
  H   H919      1.0  0.92800  0.14911  0.02118  1.0000
  C   C546      1.0  0.57022  0.20151  0.00592  1.0000
  S   S169      1.0  0.78225  0.23326  0.25533  1.0000
  C   C547      1.0  0.82574  0.00085  0.48774  1.0000
  H   H920      1.0  0.81102  0.04232  0.29499  1.0000
  H   H921      1.0  0.54939  0.20432  0.31326  1.0000
  H   H922      1.0  0.48975  0.11329  0.28613  1.0000
  H   H923      1.0  0.86134  0.22679  0.30082  1.0000
  H   H924      1.0  0.72239  0.16458  0.38596  1.0000
  C   C548      1.0  0.70769  0.19542  0.45795  1.0000
  H   H925      1.0  0.52034  0.11913  0.33782  1.0000
  Fe  Fe83      1.0  0.74450  0.22733  0.22857  1.0000
  H   H926      1.0  0.50820  0.13860  0.23143  1.0000
  C   C549      1.0  0.55428  0.21115  0.28529  1.0000
  C   C550      1.0  0.49690  0.15275  0.05350  1.0000
  H   H927      1.0  0.50498  0.01147  0.03220  1.0000
  H   H928      1.0  0.49998  0.10021  0.41442  1.0000
  H   H929      1.0  0.52714  0.13787  0.19385  1.0000
  H   H930      1.0  0.52695  0.17497  0.16722  1.0000
  H   H931      1.0  0.50264  0.14110  0.10653  1.0000
  C   C551      1.0  0.54980  0.21915  0.20828  1.0000
  H   H932      1.0  0.78471  0.04790  0.28007  1.0000
  C   C552      1.0  0.87947  0.05369  0.42401  1.0000
  C   C553      1.0  0.53564  0.18944  0.25829  1.0000
  C   C554      1.0  0.55534  0.22492  0.16804  1.0000
  H   H933      1.0  0.53246  0.17069  0.26943  1.0000
  H   H934      1.0  0.51632  0.18882  0.25934  1.0000
  C   C555      1.0  0.57233  0.17087  0.24159  1.0000
  H   H935      1.0  0.57441  0.17152  0.03385  1.0000
  H   H936      1.0  0.55256  0.19620  0.02155  1.0000
  H   H937      1.0  0.49445  0.13174  0.18674  1.0000
  N   N39       1.0  0.68969  0.17950  0.42672  1.0000
  H   H938      1.0  0.93244  0.12058  0.48825  1.0000
  C   C556      1.0  0.66526  0.18208  0.42400  1.0000
  C   C557      1.0  0.56851  0.18965  0.21603  1.0000
  H   H939      1.0  0.72472  0.19188  0.46071  1.0000
  H   H940      1.0  0.86407  0.03294  0.42448  1.0000
  H   H941      1.0  0.92190  0.09449  0.40084  1.0000
  H   H942      1.0  0.69057  0.18090  0.36846  1.0000
  C   C558      1.0  0.51280  0.14370  0.20302  1.0000
  H   H943      1.0  0.88656  0.05686  0.39624  1.0000
  H   H944      1.0  0.67613  0.21676  0.39098  1.0000
  H   H945      1.0  0.58618  0.21941  0.01870  1.0000
  C   C559      1.0  0.90022  0.11383  0.45189  1.0000
  C   C560      1.0  0.70401  0.18980  0.39244  1.0000
  H   H946      1.0  0.73600  0.19352  0.36063  1.0000
  H   H947      1.0  0.89082  0.05131  0.47831  1.0000
  H   H948      1.0  0.94271  0.08152  0.41074  1.0000
  C   C561      1.0  0.49143  0.00401  0.00907  1.0000
  C   C562      1.0  0.49076  0.00726  0.45615  1.0000
  C   C563      1.0  0.57589  0.17831  0.00563  1.0000
  H   H949      1.0  0.55182  0.22877  0.28274  1.0000
  C   C564      1.0  0.94302  0.14780  0.00653  1.0000
  H   H950      1.0  0.56930  0.13073  0.01736  1.0000
  H   H951      1.0  0.89428  0.00631  0.03622  1.0000
  H   H952      1.0  0.96105  0.10328  0.48706  1.0000
  C   C565      1.0  0.65796  0.13300  0.44947  1.0000
  H   H953      1.0  0.81429  0.99627  0.16315  1.0000
  C   C566      1.0  0.84600  0.23127  0.29046  1.0000
  H   H954      1.0  0.53333  0.22283  0.21439  1.0000
  H   H955      1.0  0.58647  0.20882  0.22031  1.0000
  H   H956      1.0  0.63207  0.23526  0.01069  1.0000
  C   C567      1.0  0.94392  0.08371  0.48205  1.0000
  C   C568      1.0  0.58843  0.13507  0.00676  1.0000
  H   H957      1.0  0.65371  0.17491  0.44843  1.0000
  H   H958      1.0  0.49289  0.03510  0.34393  1.0000
  H   H959      1.0  0.64060  0.19280  0.00899  1.0000
  C   C569      1.0  0.49498  0.15177  0.09124  1.0000
  C   C570      1.0  0.49365  0.01635  0.49195  1.0000
  H   H960      1.0  0.86008  0.99422  0.03912  1.0000
  H   H961      1.0  0.58421  0.13831  0.75171  1.0000
  Fe  Fe84      1.0  0.87293  0.14575  0.58668  1.0000
  S   S170      1.0  0.87383  0.11616  0.62388  1.0000
  S   S171      1.0  0.83978  0.15618  0.58411  1.0000
  Fe  Fe85      1.0  0.92547  0.15629  0.55374  1.0000
  S   S172      1.0  0.92966  0.12784  0.58985  1.0000
  H   H962      1.0  0.50392  0.19226  0.76876  1.0000
  Fe  Fe86      1.0  0.88672  0.10200  0.57576  1.0000
  S   S173      1.0  0.87194  0.05931  0.55977  1.0000
  Fe  Fe87      1.0  0.91642  0.14505  0.63390  1.0000
  S   S174      1.0  0.93262  0.16178  0.69034  1.0000
  S   S175      1.0  0.88321  0.12976  0.53768  1.0000
  S   S176      1.0  0.91483  0.17528  0.59843  1.0000
  Fe  Fe88      1.0  0.70627  0.19423  0.67700  1.0000
  S   S177      1.0  0.69860  0.15411  0.69167  1.0000
  S   S178      1.0  0.69194  0.20398  0.62459  1.0000
  Fe  Fe89      1.0  0.73366  0.21824  0.75073  1.0000
  S   S179      1.0  0.72761  0.17941  0.76999  1.0000
  Fe  Fe90      1.0  0.74000  0.17434  0.71450  1.0000
  S   S180      1.0  0.76872  0.15808  0.71076  1.0000
  Fe  Fe91      1.0  0.68690  0.16301  0.74529  1.0000
  S   S181      1.0  0.64856  0.13294  0.76856  1.0000
  S   S182      1.0  0.74850  0.21443  0.69689  1.0000
  S   S183      1.0  0.69230  0.20188  0.72897  1.0000
  Fe  Fe92      1.0  0.53797  0.12985  0.90213  1.0000
  S   S184      1.0  0.50054  0.10248  0.87157  1.0000
  S   S185      1.0  0.57835  0.15420  0.87884  1.0000
  Fe  Fe93      1.0  0.50893  0.12717  0.97186  1.0000
  C   C571      1.0  0.96243  0.18849  0.86939  1.0000
  H   H963      1.0  0.61366  0.14530  0.62308  1.0000
  H   H964      1.0  0.71100  0.20449  0.51539  1.0000
  S   S186      1.0  0.52877  0.10491  0.95138  1.0000
  S   S187      1.0  0.52171  0.15461  0.92572  1.0000
  C   C572      1.0  0.92146  0.12271  0.86557  1.0000
  H   H965      1.0  0.92279  0.14518  0.77736  1.0000
  H   H966      1.0  0.80069  0.21071  0.69032  1.0000
  C   C573      1.0  0.60656  0.19896  0.95693  1.0000
  H   H967      1.0  0.90377  0.12189  0.85220  1.0000
  C   C574      1.0  0.81154  0.05845  0.58386  1.0000
  H   H968      1.0  0.92076  0.14840  0.90885  1.0000
  H   H969      1.0  0.92827  0.08414  0.53545  1.0000
  N   N40       1.0  0.60110  0.18257  0.98996  1.0000
  C   C575      1.0  0.62907  0.13928  0.79878  1.0000
  C   C576      1.0  0.63643  0.16440  0.81218  1.0000
  C   C577      1.0  0.62053  0.16851  0.83633  1.0000
  C   C578      1.0  0.59697  0.14768  0.84724  1.0000
  C   C579      1.0  0.58939  0.12261  0.83338  1.0000
  C   C580      1.0  0.60539  0.11846  0.80940  1.0000
  H   H970      1.0  0.65452  0.18064  0.80428  1.0000
  H   H971      1.0  0.62662  0.18800  0.84677  1.0000
  H   H972      1.0  0.57139  0.10636  0.84152  1.0000
  H   H973      1.0  0.59948  0.09895  0.79924  1.0000
  H   H974      1.0  0.80108  0.24115  0.64554  1.0000
  H   H975      1.0  0.97331  0.15337  0.89189  1.0000
  H   H976      1.0  0.63948  0.12588  0.68081  1.0000
  H   H977      1.0  0.80833  0.24142  0.70998  1.0000
  H   H978      1.0  0.75014  0.07615  0.61746  1.0000
  C   C581      1.0  0.76021  0.01118  0.56542  1.0000
  H   H979      1.0  0.57010  0.15915  0.74684  1.0000
  C   C582      1.0  0.96132  0.16548  0.71290  1.0000
  H   H980      1.0  0.98284  0.17736  0.59043  1.0000
  C   C583      1.0  0.97015  0.14374  0.86495  1.0000
  H   H981      1.0  0.61565  0.10948  0.64413  1.0000
  H   H982      1.0  0.98399  0.13281  0.62471  1.0000
  C   C584      1.0  0.82050  0.15690  0.61986  1.0000
  C   C585      1.0  0.80246  0.16602  0.61317  1.0000
  C   C586      1.0  0.78632  0.16635  0.64043  1.0000
  C   C587      1.0  0.78791  0.15740  0.67481  1.0000
  C   C588      1.0  0.80592  0.14823  0.68146  1.0000
  C   C589      1.0  0.82216  0.14804  0.65428  1.0000
  H   H983      1.0  0.80088  0.17281  0.58663  1.0000
  H   H984      1.0  0.77258  0.17344  0.63478  1.0000
  H   H985      1.0  0.80739  0.14130  0.70793  1.0000
  H   H986      1.0  0.83588  0.14093  0.65993  1.0000
  C   C590      1.0  0.62945  0.13977  0.54990  1.0000
  C   C591      1.0  0.64243  0.13343  0.57729  1.0000
  C   C592      1.0  0.66187  0.15295  0.59993  1.0000
  C   C593      1.0  0.66851  0.17907  0.59543  1.0000
  C   C594      1.0  0.65598  0.18553  0.56745  1.0000
  C   C595      1.0  0.63651  0.16595  0.54468  1.0000
  H   H987      1.0  0.63709  0.11321  0.58145  1.0000
  H   H988      1.0  0.67152  0.14771  0.62104  1.0000
  H   H989      1.0  0.66104  0.20572  0.56377  1.0000
  H   H990      1.0  0.62646  0.17103  0.52387  1.0000
  C   C596      1.0  0.61873  0.11211  0.67380  1.0000
  H   H991      1.0  0.96052  0.18764  0.98921  1.0000
  H   H992      1.0  0.83725  0.20556  0.66932  1.0000
  C   C597      1.0  0.59759  0.15627  0.97795  1.0000
  H   H993      1.0  0.64378  0.16524  0.67117  1.0000
  H   H994      1.0  0.58018  0.10437  0.68816  1.0000
  H   H995      1.0  0.81862  0.19501  0.73608  1.0000
  C   C598      1.0  0.84365  0.01569  0.51604  1.0000
  H   H996      1.0  0.62095  0.20084  0.69354  1.0000
  H   H997      1.0  0.96510  0.19748  0.74646  1.0000
  H   H998      1.0  0.84799  0.21511  0.75984  1.0000
  H   H999      1.0  0.82857  0.24343  0.78265  1.0000
  N   N41       1.0  0.60205  0.14572  0.67776  1.0000
  C   C599      1.0  0.62908  0.16775  0.68653  1.0000
  C   C600      1.0  0.58174  0.15015  0.69580  1.0000
  C   C601      1.0  0.63342  0.19530  0.67790  1.0000
  C   C602      1.0  0.58576  0.15540  0.73705  1.0000
  H   H1000     1.0  0.63489  0.16768  0.71541  1.0000
  H   H1001     1.0  0.50254  0.04245  0.98872  1.0000
  C   C603      1.0  0.60045  0.12077  0.69123  1.0000
  H   H1002     1.0  0.58002  0.16659  0.68350  1.0000
  H   H1003     1.0  0.93724  0.12997  0.92187  1.0000
  H   H1004     1.0  0.59516  0.16147  0.62834  1.0000
  H   H1005     1.0  0.96213  0.13904  0.79515  1.0000
  H   H1006     1.0  0.95659  0.18248  0.89718  1.0000
  H   H1007     1.0  0.82475  0.10146  0.53644  1.0000
  C   C604      1.0  0.81647  0.23126  0.69349  1.0000
  H   H1008     1.0  0.56211  0.13290  0.69144  1.0000
  C   C605      1.0  0.97178  0.11849  0.87120  1.0000
  C   C606      1.0  0.49927  0.23706  0.87488  1.0000
  H   H1009     1.0  0.96228  0.13356  0.68512  1.0000
  H   H1010     1.0  0.95931  0.20548  0.86403  1.0000
  H   H1011     1.0  0.62943  0.18612  0.92418  1.0000
  H   H1012     1.0  0.76558  0.06253  0.52936  1.0000
  C   C607      1.0  0.94711  0.16686  0.84038  1.0000
  H   H1013     1.0  0.81951  0.06572  0.64273  1.0000
  C   C608      1.0  0.85264  0.22193  0.68610  1.0000
  H   H1014     1.0  0.81644  0.23993  0.93715  1.0000
  C   C609      1.0  0.57220  0.12004  0.62240  1.0000
  C   C610      1.0  0.96407  0.12332  0.98701  1.0000
  C   C611      1.0  0.85003  0.04182  0.52289  1.0000
  H   H1015     1.0  0.80713  0.10064  0.59964  1.0000
  C   C612      1.0  0.76538  0.08780  0.59829  1.0000
  H   H1016     1.0  0.61488  0.09304  0.68479  1.0000
  H   H1017     1.0  0.55428  0.11801  0.63440  1.0000
  H   H1018     1.0  0.60828  0.21830  0.96297  1.0000
  C   C613      1.0  0.96155  0.16966  0.98834  1.0000
  C   C614      1.0  0.63127  0.20413  0.93711  1.0000
  H   H1019     1.0  0.94058  0.10794  0.81155  1.0000
  H   H1020     1.0  0.78928  0.07721  0.63080  1.0000
  H   H1021     1.0  0.87897  0.20582  0.67993  1.0000
  C   C615      1.0  0.59692  0.14429  0.63747  1.0000
  H   H1022     1.0  0.92727  0.16494  0.83699  1.0000
  C   C616      1.0  0.97303  0.18459  0.74064  1.0000
  H   H1023     1.0  0.77233  0.10881  0.60420  1.0000
  H   H1024     1.0  0.58324  0.14820  0.95464  1.0000
  N   N42       1.0  0.78721  0.06085  0.57744  1.0000
  H   H1025     1.0  0.81203  0.04413  0.56449  1.0000
  C   C617      1.0  0.78566  0.06689  0.53821  1.0000
  C   C618      1.0  0.76321  0.03580  0.58542  1.0000
  C   C619      1.0  0.78857  0.08213  0.60205  1.0000
  H   H1026     1.0  0.81310  0.21026  0.79605  1.0000
  H   H1027     1.0  0.90185  0.11268  0.79317  1.0000
  C   C620      1.0  0.81590  0.05049  0.62197  1.0000
  C   C621      1.0  0.97156  0.14877  0.70575  1.0000
  H   H1028     1.0  0.85780  0.19226  0.71615  1.0000
  H   H1029     1.0  0.76024  0.01310  0.53570  1.0000
  H   H1030     1.0  0.79763  0.21939  0.76143  1.0000
  H   H1031     1.0  0.83935  0.00973  0.97514  1.0000
  N   N43       1.0  0.84045  0.23254  0.71215  1.0000
  H   H1032     1.0  0.98369  0.19558  0.86813  1.0000
  H   H1033     1.0  0.75624  0.08395  0.57078  1.0000
  C   C622      1.0  0.69595  0.19085  0.49537  1.0000
  C   C623      1.0  0.92097  0.12971  0.90548  1.0000
  C   C624      1.0  0.83162  0.21566  0.74475  1.0000
  H   H1034     1.0  0.51356  0.23201  0.88800  1.0000
  H   H1035     1.0  0.64906  0.21350  0.95507  1.0000
  C   C625      1.0  0.48834  0.18780  0.78692  1.0000
  C   C626      1.0  0.92136  0.12597  0.78318  1.0000
  H   H1036     1.0  0.49918  0.23312  0.84575  1.0000
  C   C627      1.0  0.49007  0.02169  0.98446  1.0000
  C   C628      1.0  0.98236  0.14507  0.96839  1.0000
  H   H1037     1.0  0.95525  0.10408  0.88639  1.0000
  H   H1038     1.0  0.74530  0.03724  0.57831  1.0000
  H   H1039     1.0  0.97346  0.10964  0.84556  1.0000
  H   H1040     1.0  0.98321  0.16938  0.63653  1.0000
  H   H1041     1.0  0.91817  0.10232  0.86444  1.0000
  H   H1042     1.0  0.57348  0.10188  0.62592  1.0000
  H   H1043     1.0  0.82918  0.07712  0.57857  1.0000
  H   H1044     1.0  0.49717  0.16191  0.81882  1.0000
  H   H1045     1.0  0.60532  0.12247  0.72066  1.0000
  H   H1046     1.0  0.90276  0.11452  0.91695  1.0000
  C   C629      1.0  0.86976  0.21076  0.70226  1.0000
  H   H1047     1.0  0.85247  0.00676  0.53287  1.0000
  H   H1048     1.0  0.95219  0.07360  0.53538  1.0000
  H   H1049     1.0  0.92277  0.11761  0.75686  1.0000
  H   H1050     1.0  0.97445  0.14353  0.52804  1.0000
  H   H1051     1.0  0.57023  0.12204  0.59282  1.0000
  N   N44       1.0  0.94553  0.14050  0.84589  1.0000
  H   H1052     1.0  0.65394  0.20976  0.68531  1.0000
  H   H1053     1.0  0.79970  0.03150  0.62959  1.0000
  H   H1054     1.0  0.96518  0.10538  0.98643  1.0000
  S   S188      1.0  0.60294  0.11408  0.52569  1.0000
  H   H1055     1.0  0.76220  0.03210  0.61486  1.0000
  C   C630      1.0  0.94356  0.12813  0.80919  1.0000
  C   C631      1.0  0.93519  0.07262  0.51977  1.0000
  Fe  Fe94      1.0  0.49032  0.07875  0.92258  1.0000
  H   H1056     1.0  0.88563  0.22461  0.72082  1.0000
  H   H1057     1.0  0.63068  0.19741  0.64864  1.0000
  H   H1058     1.0  0.83373  0.04825  0.62227  1.0000
  C   C632      1.0  0.80429  0.09511  0.52766  1.0000
  H   H1059     1.0  0.60451  0.17281  0.74491  1.0000
  C   C633      1.0  0.81699  0.22301  0.77246  1.0000
  H   H1060     1.0  0.61604  0.15787  0.96814  1.0000
  H   H1061     1.0  0.86457  0.23701  0.66664  1.0000
  H   H1062     1.0  0.78987  0.05399  0.52054  1.0000
  H   H1063     1.0  0.95691  0.17548  0.81496  1.0000
  H   H1064     1.0  0.77551  0.00614  0.57426  1.0000
  H   H1065     1.0  0.69019  0.17099  0.50477  1.0000
  S   S189      1.0  0.95553  0.18077  0.51309  1.0000
  H   H1066     1.0  0.78900  0.22533  0.90645  1.0000
  H   H1067     1.0  0.79836  0.10906  0.53881  1.0000
  H   H1068     1.0  0.58969  0.18970  0.93707  1.0000
  C   C634      1.0  0.98140  0.16853  0.96926  1.0000
  H   H1069     1.0  0.92006  0.05180  0.51841  1.0000
  H   H1070     1.0  0.96967  0.20216  0.62875  1.0000
  H   H1071     1.0  0.84342  0.07324  0.50546  1.0000
  H   H1072     1.0  0.50785  0.03632  0.49895  1.0000
  H   H1073     1.0  0.63390  0.21764  0.91483  1.0000
  H   H1074     1.0  0.67940  0.19500  0.49626  1.0000
  H   H1075     1.0  0.82547  0.23243  0.63574  1.0000
  H   H1076     1.0  0.74119  0.99433  0.57171  1.0000
  C   C635      1.0  0.83857  0.05313  0.50075  1.0000
  H   H1077     1.0  0.55895  0.16245  0.99019  1.0000
  H   H1078     1.0  0.90283  0.09354  0.49847  1.0000
  H   H1079     1.0  0.56558  0.20557  0.97822  1.0000
  H   H1080     1.0  0.78817  0.23253  0.98254  1.0000
  C   C636      1.0  0.98247  0.17764  0.49805  1.0000
  H   H1081     1.0  0.80365  0.09643  0.49783  1.0000
  H   H1082     1.0  0.58576  0.11662  0.99404  1.0000
  C   C637      1.0  0.82003  0.24305  0.65565  1.0000
  H   H1083     1.0  0.58389  0.47464  0.08265  1.0000
  H   H1084     1.0  0.51651  0.47022  0.00604  1.0000
  S   S190      1.0  0.82658  0.45134  0.41851  1.0000
  Fe  Fe95      1.0  0.89850  0.46280  0.42148  1.0000
  S   S191      1.0  0.86658  0.43245  0.45356  1.0000
  H   H1085     1.0  0.78548  0.37051  0.20553  1.0000
  Fe  Fe96      1.0  0.84114  0.42315  0.40296  1.0000
  S   S192      1.0  0.81162  0.38206  0.38267  1.0000
  Fe  Fe97      1.0  0.85536  0.46347  0.46602  1.0000
  S   S193      1.0  0.87341  0.45153  0.36967  1.0000
  S   S194      1.0  0.85588  0.36791  0.02322  1.0000
  C   C638      1.0  0.85494  0.24996  0.25855  1.0000
  Fe  Fe98      1.0  0.55312  0.42928  0.41119  1.0000
  S   S195      1.0  0.51646  0.42487  0.38322  1.0000
  S   S196      1.0  0.59504  0.45022  0.39174  1.0000
  Fe  Fe99      1.0  0.50604  0.43355  0.43814  1.0000
  H   H1086     1.0  0.86169  0.42468  0.29291  1.0000
  H   H1087     1.0  0.65576  0.45339  0.18166  1.0000
  S   S197      1.0  0.54376  0.44007  0.46532  1.0000
  S   S198      1.0  0.53532  0.38661  0.42422  1.0000
  H   H1088     1.0  0.90038  0.26100  0.29569  1.0000
  S   S199      1.0  0.81178  0.26454  0.18396  1.0000
  S   S200      1.0  0.76771  0.27244  0.10603  1.0000
  Fe  Fe100     1.0  0.79945  0.27450  0.23618  1.0000
  S   S201      1.0  0.82988  0.31142  0.26670  1.0000
  S   S202      1.0  0.76170  0.26944  0.21207  1.0000
  H   H1089     1.0  0.56363  0.24622  0.16419  1.0000
  C   C639      1.0  0.83073  0.34192  0.04624  1.0000
  C   C640      1.0  0.83764  0.33195  0.07661  1.0000
  C   C641      1.0  0.81859  0.31103  0.09550  1.0000
  C   C642      1.0  0.79230  0.29971  0.08418  1.0000
  C   C643      1.0  0.78533  0.30984  0.05395  1.0000
  C   C644      1.0  0.80439  0.33096  0.03524  1.0000
  H   H1090     1.0  0.85790  0.34038  0.08558  1.0000
  H   H1091     1.0  0.82426  0.30350  0.11867  1.0000
  H   H1092     1.0  0.76503  0.30139  0.04514  1.0000
  H   H1093     1.0  0.79042  0.41032  0.21263  1.0000
  H   H1094     1.0  0.67798  0.47628  0.11357  1.0000
  H   H1095     1.0  0.81226  0.37665  0.28085  1.0000
  C   C645      1.0  0.81721  0.36255  0.35085  1.0000
  C   C646      1.0  0.79602  0.33912  0.33736  1.0000
  C   C647      1.0  0.79945  0.32338  0.31137  1.0000
  C   C648      1.0  0.82424  0.33077  0.29880  1.0000
  C   C649      1.0  0.84544  0.35421  0.31226  1.0000
  C   C650      1.0  0.84197  0.37007  0.33801  1.0000
  H   H1096     1.0  0.77677  0.33313  0.34701  1.0000
  H   H1097     1.0  0.78295  0.30542  0.30131  1.0000
  H   H1098     1.0  0.86470  0.36016  0.30275  1.0000
  H   H1099     1.0  0.85847  0.38802  0.34809  1.0000
  C   C651      1.0  0.59922  0.47912  0.33003  1.0000
  H   H1100     1.0  0.97454  0.41236  0.03358  1.0000
  S   S203      1.0  0.48949  0.46222  0.44001  1.0000
  H   H1101     1.0  0.51506  0.34458  0.34511  1.0000
  H   H1102     1.0  0.52012  0.31134  0.30910  1.0000
  N   N45       1.0  0.81037  0.41092  0.26307  1.0000
  C   C652      1.0  0.88429  0.28255  0.19716  1.0000
  C   C653      1.0  0.61145  0.47011  0.35484  1.0000
  C   C654      1.0  0.87422  0.28809  0.29954  1.0000
  H   H1103     1.0  0.57811  0.43015  0.23440  1.0000
  H   H1104     1.0  0.79104  0.41806  0.34921  1.0000
  C   C655      1.0  0.63538  0.47280  0.04541  1.0000
  H   H1105     1.0  0.53215  0.32200  0.42700  1.0000
  H   H1106     1.0  0.57742  0.46060  0.23922  1.0000
  C   C656      1.0  0.79811  0.44557  0.24032  1.0000
  C   C657      1.0  0.66878  0.48286  0.09344  1.0000
  H   H1107     1.0  0.91161  0.32514  0.30589  1.0000
  H   H1108     1.0  0.88651  0.29684  0.17618  1.0000
  Fe  Fe101     1.0  0.52262  0.39692  0.47570  1.0000
  H   H1109     1.0  0.97890  0.45228  0.45027  1.0000
  H   H1110     1.0  0.86256  0.29483  0.23061  1.0000
  C   C658      1.0  0.64695  0.46461  0.07255  1.0000
  H   H1111     1.0  0.92616  0.36016  0.09412  1.0000
  H   H1112     1.0  0.79870  0.33883  0.01251  1.0000
  H   H1113     1.0  0.83788  0.25222  0.24918  1.0000
  H   H1114     1.0  0.96939  0.43396  0.00624  1.0000
  H   H1115     1.0  0.54095  0.34482  0.46390  1.0000
  C   C659      1.0  0.79155  0.41660  0.24131  1.0000
  Fe  Fe102     1.0  0.49811  0.38281  0.39944  1.0000
  H   H1116     1.0  0.54014  0.47830  0.35619  1.0000
  H   H1117     1.0  0.49762  0.32485  0.48615  1.0000
  C   C660      1.0  0.89039  0.31792  0.30544  1.0000
  C   C661      1.0  0.60686  0.47382  0.12926  1.0000
  C   C662      1.0  0.48750  0.48273  0.47438  1.0000
  H   H1118     1.0  0.87768  0.27912  0.32405  1.0000
  H   H1119     1.0  0.77415  0.39027  0.31986  1.0000
  C   C663      1.0  0.83677  0.42528  0.24712  1.0000
  N   N46       1.0  0.61006  0.47579  0.16988  1.0000
  C   C664      1.0  0.85794  0.41948  0.26371  1.0000
  H   H1120     1.0  0.77986  0.44701  0.24084  1.0000
  H   H1121     1.0  0.82478  0.44131  0.30550  1.0000
  H   H1122     1.0  0.83542  0.42143  0.21749  1.0000
  H   H1123     1.0  0.84455  0.44675  0.25013  1.0000
  H   H1124     1.0  0.77598  0.42126  0.30835  1.0000
  S   S204      1.0  0.93776  0.46270  0.42601  1.0000
  H   H1125     1.0  0.50128  0.27074  0.46546  1.0000
  H   H1126     1.0  0.79299  0.34818  0.22858  1.0000
  C   C665      1.0  0.58776  0.45096  0.22688  1.0000
  H   H1127     1.0  0.82096  0.25179  0.00296  1.0000
  H   H1128     1.0  0.80403  0.46630  0.34249  1.0000
  H   H1129     1.0  0.64769  0.47083  0.36994  1.0000
  C   C666      1.0  0.52789  0.32417  0.45535  1.0000
  H   H1130     1.0  0.82338  0.41201  0.31869  1.0000
  N   N47       1.0  0.87858  0.27630  0.26578  1.0000
  C   C667      1.0  0.81268  0.41979  0.30199  1.0000
  H   H1131     1.0  0.85347  0.28370  0.30010  1.0000
  H   H1132     1.0  0.91914  0.44883  0.07568  1.0000
  H   H1133     1.0  0.91199  0.43164  0.49203  1.0000
  H   H1134     1.0  0.56471  0.46084  0.12070  1.0000
  H   H1135     1.0  0.76474  0.46179  0.30809  1.0000
  H   H1136     1.0  0.62943  0.44147  0.14864  1.0000
  H   H1137     1.0  0.87655  0.43153  0.25038  1.0000
  C   C668      1.0  0.90738  0.43287  0.05581  1.0000
  C   C669      1.0  0.92904  0.29640  0.27410  1.0000
  H   H1138     1.0  0.94366  0.29162  0.26284  1.0000
  C   C670      1.0  0.78675  0.41170  0.32034  1.0000
  C   C671      1.0  0.80045  0.38186  0.26207  1.0000
  C   C672      1.0  0.98396  0.47162  0.46033  1.0000
  H   H1139     1.0  0.63914  0.44400  0.07717  1.0000
  C   C673      1.0  0.88047  0.29274  0.23372  1.0000
  C   C674      1.0  0.95876  0.41543  0.02082  1.0000
  H   H1140     1.0  0.89351  0.41527  0.06991  1.0000
  H   H1141     1.0  0.56874  0.45312  0.17802  1.0000
  H   H1142     1.0  0.90856  0.37917  0.04927  1.0000
  H   H1143     1.0  0.81125  0.28976  0.00881  1.0000
  C   C675      1.0  0.80500  0.48246  0.32746  1.0000
  H   H1144     1.0  0.81049  0.45758  0.26354  1.0000
  H   H1145     1.0  0.88492  0.32848  0.28515  1.0000
  H   H1146     1.0  0.53330  0.31224  0.47311  1.0000
  C   C676      1.0  0.96686  0.48177  0.45278  1.0000
  H   H1147     1.0  0.62322  0.43586  0.19619  1.0000
  H   H1148     1.0  0.85311  0.39883  0.25946  1.0000
  H   H1149     1.0  0.60431  0.45476  0.11907  1.0000
  C   C677      1.0  0.79963  0.36929  0.22497  1.0000
  H   H1150     1.0  0.60147  0.49110  0.44150  1.0000
  C   C678      1.0  0.50083  0.30881  0.31311  1.0000
  H   H1151     1.0  0.89547  0.43938  0.03935  1.0000
  C   C679      1.0  0.63543  0.47627  0.18042  1.0000
  H   H1152     1.0  0.58403  0.43400  0.17298  1.0000
  H   H1153     1.0  0.96293  0.47451  0.05739  1.0000
  H   H1154     1.0  0.88585  0.32329  0.33203  1.0000
  H   H1155     1.0  0.81906  0.37750  0.21324  1.0000
  C   C680      1.0  0.49803  0.32776  0.33349  1.0000
  C   C681      1.0  0.63559  0.45007  0.17628  1.0000
  C   C682      1.0  0.58717  0.45278  0.18529  1.0000
  H   H1156     1.0  0.80827  0.45464  0.21538  1.0000
  S   S205      1.0  0.60798  0.44916  0.01999  1.0000
  H   H1157     1.0  0.93484  0.30266  0.30282  1.0000
  H   H1158     1.0  0.62474  0.48876  0.11682  1.0000
  H   H1159     1.0  0.60764  0.45971  0.23952  1.0000
  H   H1160     1.0  0.97434  0.43216  0.08856  1.0000
  N   N48       1.0  0.94212  0.41813  0.04891  1.0000
  H   H1161     1.0  0.89646  0.31301  0.23734  1.0000
  C   C683      1.0  0.92561  0.39264  0.06689  1.0000
  C   C684      1.0  0.92442  0.42692  0.03060  1.0000
  C   C685      1.0  0.95981  0.43770  0.07755  1.0000
  H   H1162     1.0  0.90212  0.28042  0.19762  1.0000
  H   H1163     1.0  0.91087  0.41192  0.01048  1.0000
  H   H1164     1.0  0.94650  0.37045  0.05642  1.0000
  C   C686      1.0  0.63800  0.47773  0.35109  1.0000
  H   H1165     1.0  0.70587  0.48236  0.99949  1.0000
  C   C687      1.0  0.93992  0.37762  0.07951  1.0000
  H   H1166     1.0  0.78032  0.37132  0.27189  1.0000
  H   H1167     1.0  0.91666  0.39581  0.09112  1.0000
  H   H1168     1.0  0.93566  0.44443  0.01442  1.0000
  C   C688      1.0  0.58380  0.47652  0.11250  1.0000
  H   H1169     1.0  0.57873  0.47301  0.33201  1.0000
  H   H1170     1.0  0.55776  0.48263  0.41799  1.0000
  H   H1171     1.0  0.93071  0.31308  0.25849  1.0000
  H   H1172     1.0  0.95670  0.38947  0.09839  1.0000
  H   H1173     1.0  0.94869  0.43795  0.10115  1.0000
  H   H1174     1.0  0.77120  0.40472  0.24997  1.0000
  H   H1175     1.0  0.49649  0.33144  0.44006  1.0000
  C   C689      1.0  0.80115  0.24967  0.00005  1.0000
  Fe  Fe103     1.0  0.77293  0.25719  0.16086  1.0000
  H   H1176     1.0  0.86707  0.26388  0.18827  1.0000
  C   C690      1.0  0.90193  0.27203  0.27081  1.0000
  H   H1177     1.0  0.64193  0.48356  0.20872  1.0000
  H   H1178     1.0  0.49838  0.28386  0.40667  1.0000
  C   C691      1.0  0.49936  0.31819  0.45881  1.0000
  H   H1179     1.0  0.78013  0.46196  0.44250  1.0000
  H   H1180     1.0  0.76509  0.47609  0.41492  1.0000
  Fe  Fe104     1.0  0.86024  0.48014  0.38764  1.0000
  C   C692      1.0  0.78274  0.48004  0.30813  1.0000
  H   H1181     1.0  0.48836  0.47277  0.05304  1.0000
  C   C693      1.0  0.49136  0.48385  0.02882  1.0000
  C   C694      1.0  0.77932  0.48031  0.43786  1.0000
  C   C695      1.0  0.50738  0.48236  0.00217  1.0000
  H   H1182     1.0  0.90238  0.25899  0.24909  1.0000
  H   H1183     1.0  0.79305  0.24542  0.02738  1.0000
  H   H1184     1.0  0.77221  0.48489  0.46277  1.0000
  C   C696      1.0  0.97564  0.46608  0.06553  1.0000
  H   H1185     1.0  0.65150  0.49046  0.16406  1.0000
  H   H1186     1.0  0.92346  0.38069  0.99615  1.0000
  Fe  Fe105     1.0  0.55770  0.47661  0.93004  1.0000
  S   S206      1.0  0.55030  0.43710  0.94905  1.0000
  H   H1187     1.0  0.80641  0.40870  0.70135  1.0000
  H   H1188     1.0  0.86545  0.27238  0.69757  1.0000
  S   S207      1.0  0.60611  0.44993  0.91555  1.0000
  Fe  Fe106     1.0  0.56437  0.43240  0.89493  1.0000
  S   S208      1.0  0.55358  0.39607  0.85966  1.0000
  Fe  Fe107     1.0  0.59281  0.45819  0.96761  1.0000
  S   S209      1.0  0.56938  0.47061  0.87432  1.0000
  H   H1189     1.0  0.90284  0.42234  0.53697  1.0000
  N   N49       1.0  0.81292  0.28481  0.95131  1.0000
  Fe  Fe108     1.0  0.85770  0.38638  0.96842  1.0000
  S   S210      1.0  0.88769  0.38333  0.93569  1.0000
  Fe  Fe109     1.0  0.85016  0.42005  0.91045  1.0000
  S   S211      1.0  0.88005  0.41898  0.87504  1.0000
  S   S212      1.0  0.82410  0.43766  0.89324  1.0000
  Fe  Fe110     1.0  0.86084  0.37634  0.88757  1.0000
  S   S213      1.0  0.85542  0.34525  0.84567  1.0000
  Fe  Fe111     1.0  0.90445  0.42622  0.92673  1.0000
  S   S214      1.0  0.94911  0.44872  0.92986  1.0000
  S   S215      1.0  0.82956  0.37664  0.92045  1.0000
  S   S216      1.0  0.87572  0.42997  0.96172  1.0000
  H   H1190     1.0  0.49046  0.26287  0.52911  1.0000
  H   H1191     1.0  0.94280  0.47481  0.63778  1.0000
  C   C697      1.0  0.51213  0.34445  0.58182  1.0000
  H   H1192     1.0  0.66508  0.48791  0.71375  1.0000
  H   H1193     1.0  0.70731  0.46112  0.69594  1.0000
  H   H1194     1.0  0.53240  0.35384  0.59109  1.0000
  C   C698      1.0  0.97207  0.47574  0.95723  1.0000
  H   H1195     1.0  0.67942  0.47067  0.55439  1.0000
  C   C699      1.0  0.49961  0.33908  0.79275  1.0000
  H   H1196     1.0  0.67200  0.44682  0.97622  1.0000
  C   C700      1.0  0.91440  0.46066  0.59172  1.0000
  C   C701      1.0  0.67422  0.48251  0.80157  1.0000
  H   H1197     1.0  0.77676  0.34283  0.80897  1.0000
  C   C702      1.0  0.77904  0.35206  0.78223  1.0000
  C   C703      1.0  0.66389  0.47447  0.69150  1.0000
  C   C704      1.0  0.82873  0.45952  0.85755  1.0000
  C   C705      1.0  0.80825  0.46452  0.84694  1.0000
  H   H1198     1.0  0.79016  0.45522  0.86079  1.0000
  N   N50       1.0  0.50170  0.28139  0.85778  1.0000
  H   H1199     1.0  0.64439  0.46693  0.67789  1.0000
  C   C706      1.0  0.91729  0.43819  0.52073  1.0000
  H   H1200     1.0  0.78636  0.34111  0.72798  1.0000
  H   H1201     1.0  0.66624  0.43568  0.65356  1.0000
  H   H1202     1.0  0.53855  0.33712  0.87885  1.0000
  C   C707      1.0  0.77653  0.27751  0.80583  1.0000
  C   C708      1.0  0.77762  0.29570  0.83179  1.0000
  C   C709      1.0  0.80165  0.31642  0.84443  1.0000
  C   C710      1.0  0.82487  0.31899  0.83145  1.0000
  C   C711      1.0  0.82385  0.30055  0.80595  1.0000
  C   C712      1.0  0.79976  0.27989  0.79308  1.0000
  H   H1203     1.0  0.75969  0.29399  0.84165  1.0000
  H   H1204     1.0  0.80216  0.33061  0.86374  1.0000
  H   H1205     1.0  0.84178  0.30251  0.79574  1.0000
  H   H1206     1.0  0.79907  0.26611  0.77291  1.0000
  C   C713      1.0  0.81061  0.30908  0.94441  1.0000
  S   S217      1.0  0.74560  0.25312  0.78927  1.0000
  H   H1207     1.0  0.64099  0.47039  0.83521  1.0000
  H   H1208     1.0  0.66775  0.46306  0.79062  1.0000
  C   C714      1.0  0.52369  0.37517  0.83639  1.0000
  C   C715      1.0  0.68619  0.48970  0.66589  1.0000
  C   C716      1.0  0.82664  0.38278  0.78477  1.0000
  H   H1209     1.0  0.53250  0.31528  0.91624  1.0000
  H   H1210     1.0  0.54281  0.30623  0.84891  1.0000
  H   H1211     1.0  0.77187  0.39662  0.85672  1.0000
  H   H1212     1.0  0.76542  0.31455  0.75461  1.0000
  H   H1213     1.0  0.67818  0.44494  0.92899  1.0000
  H   H1214     1.0  0.84889  0.42160  0.76112  1.0000
  H   H1215     1.0  0.82976  0.37270  0.80830  1.0000
  C   C717      1.0  0.77061  0.38808  0.82936  1.0000
  H   H1216     1.0  0.93704  0.44052  0.52625  1.0000
  C   C718      1.0  0.49142  0.39255  0.69985  1.0000
  H   H1217     1.0  0.77016  0.29042  0.92080  1.0000
  H   H1218     1.0  0.81914  0.24883  0.89029  1.0000
  H   H1219     1.0  0.82173  0.32438  0.96571  1.0000
  H   H1220     1.0  0.52135  0.30725  0.81465  1.0000
  H   H1221     1.0  0.82919  0.37283  0.76097  1.0000
  C   C719      1.0  0.48993  0.38940  0.74104  1.0000
  H   H1222     1.0  0.85118  0.30742  0.97735  1.0000
  H   H1223     1.0  0.79944  0.33060  0.76537  1.0000
  H   H1224     1.0  0.78165  0.37510  0.70356  1.0000
  H   H1225     1.0  0.86813  0.41001  0.78511  1.0000
  H   H1226     1.0  0.69483  0.47593  0.88192  1.0000
  H   H1227     1.0  0.75966  0.35030  0.77475  1.0000
  H   H1228     1.0  0.51899  0.34148  0.69885  1.0000
  H   H1229     1.0  0.81122  0.41247  0.82338  1.0000
  H   H1230     1.0  0.96485  0.48848  0.53603  1.0000
  H   H1231     1.0  0.80350  0.38240  0.84362  1.0000
  H   H1232     1.0  0.72902  0.48796  0.87934  1.0000
  H   H1233     1.0  0.49271  0.31343  0.85738  1.0000
  H   H1234     1.0  0.89964  0.26900  0.72619  1.0000
  C   C720      1.0  0.79542  0.39596  0.75597  1.0000
  C   C721      1.0  0.67133  0.47794  0.94331  1.0000
  H   H1235     1.0  0.66203  0.48727  0.60408  1.0000
  H   H1236     1.0  0.50484  0.38275  0.63491  1.0000
  H   H1237     1.0  0.64619  0.43591  0.94281  1.0000
  C   C722      1.0  0.78317  0.33399  0.75577  1.0000
  C   C723      1.0  0.79765  0.39125  0.82103  1.0000
  H   H1238     1.0  0.86120  0.32624  0.91869  1.0000
  H   H1239     1.0  0.79511  0.48536  0.81110  1.0000
  C   C724      1.0  0.49378  0.32230  0.59950  1.0000
  C   C725      1.0  0.79994  0.39058  0.71683  1.0000
  H   H1240     1.0  0.85062  0.42216  0.80994  1.0000
  C   C726      1.0  0.85196  0.47160  0.83924  1.0000
  S   S218      1.0  0.85417  0.47435  0.52504  1.0000
  C   C727      1.0  0.52317  0.35720  0.81049  1.0000
  H   H1241     1.0  0.71977  0.47838  0.94227  1.0000
  N   N51       1.0  0.79977  0.38038  0.78499  1.0000
  H   H1242     1.0  0.53709  0.26445  0.82621  1.0000
  H   H1243     1.0  0.87637  0.30629  0.92292  1.0000
  H   H1244     1.0  0.81953  0.31788  0.91865  1.0000
  H   H1245     1.0  0.76451  0.39893  0.81048  1.0000
  C   C728      1.0  0.84165  0.29311  0.95435  1.0000
  C   C729      1.0  0.49912  0.30299  0.87678  1.0000
  H   H1246     1.0  0.71493  0.47969  0.59274  1.0000
  H   H1247     1.0  0.54114  0.35729  0.80429  1.0000
  H   H1248     1.0  0.84534  0.27675  0.96105  1.0000
  C   C730      1.0  0.84957  0.41086  0.78527  1.0000
  H   H1249     1.0  0.75538  0.36736  0.82988  1.0000
  H   H1250     1.0  0.84711  0.29503  0.89521  1.0000
  H   H1251     1.0  0.81562  0.38534  0.71433  1.0000
  H   H1252     1.0  0.49947  0.32541  0.77283  1.0000
  C   C731      1.0  0.52426  0.29394  0.83321  1.0000
  S   S219      1.0  0.52859  0.38153  0.52973  1.0000
  H   H1253     1.0  0.92187  0.48999  0.63526  1.0000
  H   H1254     1.0  0.77271  0.47957  0.53621  1.0000
  H   H1255     1.0  0.77502  0.39257  0.75571  1.0000
  H   H1256     1.0  0.64477  0.45379  0.55551  1.0000
  H   H1257     1.0  0.70289  0.43112  0.67709  1.0000
  H   H1258     1.0  0.65712  0.47971  0.96077  1.0000
  C   C732      1.0  0.83218  0.48241  0.54662  1.0000
  H   H1259     1.0  0.80718  0.41735  0.76186  1.0000
  H   H1260     1.0  0.66568  0.45837  0.70450  1.0000
  H   H1261     1.0  0.91668  0.44285  0.59080  1.0000
  H   H1262     1.0  0.94497  0.40279  0.96476  1.0000
  H   H1263     1.0  0.54583  0.28756  0.79156  1.0000
  C   C733      1.0  0.66295  0.45735  0.57067  1.0000
  Fe  Fe112     1.0  0.61050  0.48815  0.89785  1.0000
  C   C734      1.0  0.52991  0.27560  0.80967  1.0000
  C   C735      1.0  0.52377  0.32391  0.89750  1.0000
  C   C736      1.0  0.70687  0.45111  0.67027  1.0000
  H   H1264     1.0  0.64519  0.45539  0.62080  1.0000
  H   H1265     1.0  0.49896  0.40897  0.75459  1.0000
  H   H1266     1.0  0.94436  0.48539  0.98004  1.0000
  H   H1267     1.0  0.80265  0.46815  0.50384  1.0000
  H   H1268     1.0  0.52320  0.36189  0.66162  1.0000
  H   H1269     1.0  0.51843  0.33652  0.91385  1.0000
  H   H1270     1.0  0.86791  0.46802  0.84707  1.0000
  C   C737      1.0  0.51546  0.35746  0.68899  1.0000
  H   H1271     1.0  0.84876  0.26996  0.73657  1.0000
  C   C738      1.0  0.83884  0.49373  0.58162  1.0000
  H   H1272     1.0  0.72645  0.46082  0.65875  1.0000
  H   H1273     1.0  0.51307  0.26238  0.79184  1.0000
  H   H1274     1.0  0.92597  0.47599  0.50312  1.0000
  H   H1275     1.0  0.52681  0.37447  0.70753  1.0000
  H   H1276     1.0  0.88145  0.25244  0.76493  1.0000
  H   H1277     1.0  0.89075  0.28545  0.75978  1.0000
  H   H1278     1.0  0.96001  0.46993  0.57474  1.0000
  H   H1279     1.0  0.49995  0.31461  0.62199  1.0000
  C   C739      1.0  0.92303  0.47186  0.63047  1.0000
  C   C740      1.0  0.50046  0.37513  0.84404  1.0000
  H   H1280     1.0  0.66484  0.47925  0.91518  1.0000
  C   C741      1.0  0.65897  0.48659  0.82689  1.0000
  H   H1281     1.0  0.66268  0.43832  0.57228  1.0000
  C   C742      1.0  0.81098  0.48159  0.81870  1.0000
  H   H1282     1.0  0.50691  0.47284  0.51680  1.0000
  H   H1283     1.0  0.89302  0.45374  0.58838  1.0000
  H   H1284     1.0  0.80105  0.27543  0.89491  1.0000
  C   C743      1.0  0.85713  0.30573  0.92064  1.0000
  C   C744      1.0  0.79856  0.26520  0.92091  1.0000
  C   C745      1.0  0.66713  0.45000  0.94825  1.0000
  H   H1285     1.0  0.78357  0.32403  0.93301  1.0000
  C   C746      1.0  0.80671  0.24401  0.91401  1.0000
  H   H1286     1.0  0.90967  0.45740  0.64942  1.0000
  C   C747      1.0  0.66362  0.46924  0.60828  1.0000
  C   C748      1.0  0.50458  0.35417  0.55176  1.0000
  H   H1287     1.0  0.77317  0.30103  0.96773  1.0000
  H   H1288     1.0  0.49191  0.41378  0.62518  1.0000
  C   C749      1.0  0.78264  0.30545  0.94146  1.0000
  H   H1289     1.0  0.68737  0.43905  0.61866  1.0000
  C   C750      1.0  0.68554  0.44926  0.64289  1.0000
  C   C751      1.0  0.79126  0.48372  0.54890  1.0000
  C   C752      1.0  0.95716  0.48602  0.56349  1.0000
  H   H1290     1.0  0.83432  0.26410  0.65612  1.0000
  H   H1291     1.0  0.51238  0.40343  0.69346  1.0000
  C   C753      1.0  0.88400  0.26683  0.74424  1.0000
  C   C754      1.0  0.91630  0.46390  0.52656  1.0000
  N   N52       1.0  0.68683  0.47479  0.63292  1.0000
  H   H1292     1.0  0.77720  0.25505  0.92505  1.0000
  C   C755      1.0  0.96462  0.49010  0.97975  1.0000
  H   H1293     1.0  0.89550  0.45928  0.52361  1.0000
  C   C756      1.0  0.71203  0.49102  0.61471  1.0000
  C   C757      1.0  0.85879  0.26071  0.72224  1.0000
  H   H1294     1.0  0.50439  0.29702  0.52236  1.0000
  C   C758      1.0  0.49781  0.48458  0.50954  1.0000
  H   H1295     1.0  0.49536  0.26395  0.91019  1.0000
  N   N53       1.0  0.92856  0.47862  0.56173  1.0000
  H   H1296     1.0  0.50063  0.38884  0.86396  1.0000
  C   C759      1.0  0.80824  0.47736  0.53037  1.0000
  H   H1297     1.0  0.52748  0.27554  0.89539  1.0000
  C   C760      1.0  0.50661  0.26548  0.88585  1.0000
  H   H1298     1.0  0.50109  0.37974  0.75106  1.0000
  C   C761      1.0  0.85479  0.48888  0.81127  1.0000
  C   C762      1.0  0.71412  0.49229  0.89062  1.0000
  H   H1299     1.0  0.78030  0.26984  0.98677  1.0000
  C   C763      1.0  0.80109  0.27457  0.98708  1.0000
  C   C764      1.0  0.94420  0.39387  0.99130  1.0000
  C   C765      1.0  0.48724  0.27790  0.51520  1.0000
  C   C766      1.0  0.48590  0.34807  0.68870  1.0000
  H   H1300     1.0  0.95387  0.38163  0.98871  1.0000
  S   S220      1.0  0.85166  0.69713  0.09984  1.0000
  Fe  Fe113     1.0  0.74372  0.52519  0.23786  1.0000
  S   S221      1.0  0.73807  0.55474  0.27045  1.0000
  H   H1301     1.0  0.89099  0.70575  0.26910  1.0000
  Fe  Fe114     1.0  0.71893  0.53475  0.16882  1.0000
  S   S222      1.0  0.71172  0.56429  0.19774  1.0000
  C   C767      1.0  0.85954  0.54587  0.43528  1.0000
  Fe  Fe115     1.0  0.75252  0.57998  0.22125  1.0000
  S   S223      1.0  0.77898  0.62451  0.22267  1.0000
  Fe  Fe116     1.0  0.69781  0.53618  0.24342  1.0000
  S   S224      1.0  0.65762  0.52593  0.26470  1.0000
  S   S225      1.0  0.76054  0.55147  0.19048  1.0000
  S   S226      1.0  0.88850  0.49422  0.43610  1.0000
  H   H1302     1.0  0.76259  0.68546  0.06204  1.0000
  H   H1303     1.0  0.72928  0.54220  0.00418  1.0000
  Fe  Fe117     1.0  0.51614  0.70647  0.24132  1.0000
  S   S227      1.0  0.50846  0.66732  0.21641  1.0000
  Fe  Fe118     1.0  0.51095  0.72971  0.31303  1.0000
  C   C768      1.0  0.63242  0.52599  0.16969  1.0000
  S   S228      1.0  0.54117  0.72021  0.29294  1.0000
  H   H1304     1.0  0.72524  0.64775  0.08405  1.0000
  H   H1305     1.0  0.78342  0.63574  0.08730  1.0000
  C   C769      1.0  0.69162  0.59862  0.08127  1.0000
  C   C770      1.0  0.74796  0.62810  0.13336  1.0000
  C   C771      1.0  0.55596  0.52448  0.44625  1.0000
  H   H1306     1.0  0.79371  0.51562  0.36969  1.0000
  C   C772      1.0  0.71707  0.59690  0.08648  1.0000
  H   H1307     1.0  0.57167  0.53248  0.46784  1.0000
  H   H1308     1.0  0.68797  0.49880  0.00759  1.0000
  H   H1309     1.0  0.70917  0.61401  0.15507  1.0000
  H   H1310     1.0  0.76356  0.61958  0.04830  1.0000
  H   H1311     1.0  0.73547  0.63748  0.18291  1.0000
  H   H1312     1.0  0.78022  0.52703  0.46037  1.0000
  H   H1313     1.0  0.72523  0.64843  0.14397  1.0000
  C   C773      1.0  0.72802  0.63222  0.15441  1.0000
  H   H1314     1.0  0.63562  0.73362  0.23108  1.0000
  H   H1315     1.0  0.87502  0.70795  0.18345  1.0000
  C   C774      1.0  0.82846  0.50582  0.32729  1.0000
  C   C775      1.0  0.82923  0.52688  0.30825  1.0000
  C   C776      1.0  0.80685  0.52460  0.28935  1.0000
  H   H1316     1.0  0.84727  0.54508  0.30802  1.0000
  H   H1317     1.0  0.80777  0.54088  0.27459  1.0000
  C   C777      1.0  0.83252  0.67768  0.13540  1.0000
  C   C778      1.0  0.82402  0.68785  0.16303  1.0000
  C   C779      1.0  0.80833  0.67148  0.19004  1.0000
  C   C780      1.0  0.80037  0.64459  0.18942  1.0000
  C   C781      1.0  0.80895  0.63444  0.16188  1.0000
  C   C782      1.0  0.82498  0.65090  0.13523  1.0000
  H   H1318     1.0  0.82933  0.70830  0.16337  1.0000
  H   H1319     1.0  0.80179  0.67961  0.21109  1.0000
  H   H1320     1.0  0.80326  0.61390  0.16114  1.0000
  H   H1321     1.0  0.83143  0.64275  0.11410  1.0000
  H   H1322     1.0  0.57681  0.65996  0.20231  1.0000
  H   H1323     1.0  0.73147  0.52113  0.03674  1.0000
  H   H1324     1.0  0.82013  0.50182  0.45124  1.0000
  C   C783      1.0  0.53311  0.72212  0.48749  1.0000
  C   C784      1.0  0.64022  0.50385  0.29911  1.0000
  C   C785      1.0  0.98344  0.51053  0.00222  1.0000
  C   C786      1.0  0.79148  0.52657  0.39271  1.0000
  H   H1325     1.0  0.54158  0.50476  0.45514  1.0000
  H   H1326     1.0  0.75048  0.57681  0.07270  1.0000
  H   H1327     1.0  0.97739  0.52123  0.01995  1.0000
  H   H1328     1.0  0.49738  0.67454  0.35007  1.0000
  N   N54       1.0  0.56649  0.52248  0.41040  1.0000
  H   H1329     1.0  0.63023  0.52729  0.14011  1.0000
  C   C787      1.0  0.89056  0.72413  0.19981  1.0000
  C   C788      1.0  0.58897  0.54888  0.40294  1.0000
  H   H1330     1.0  0.58178  0.73143  0.24076  1.0000
  C   C789      1.0  0.60487  0.55056  0.36989  1.0000
  C   C790      1.0  0.59575  0.50661  0.44360  1.0000
  H   H1331     1.0  0.58207  0.56343  0.39889  1.0000
  C   C791      1.0  0.55598  0.74238  0.46631  1.0000
  H   H1332     1.0  0.57579  0.69366  0.28072  1.0000
  C   C792      1.0  0.66763  0.51768  0.06020  1.0000
  H   H1333     1.0  0.61349  0.53732  0.37129  1.0000
  H   H1334     1.0  0.62147  0.57065  0.36884  1.0000
  H   H1335     1.0  0.59320  0.54709  0.34439  1.0000
  C   C793      1.0  0.76550  0.59408  0.08822  1.0000
  C   C794      1.0  0.74105  0.64429  0.07423  1.0000
  H   H1336     1.0  0.74978  0.61224  0.14719  1.0000
  H   H1337     1.0  0.52544  0.50167  0.39338  1.0000
  N   N55       1.0  0.80956  0.52873  0.42426  1.0000
  H   H1338     1.0  0.55729  0.73446  0.43964  1.0000
  H   H1339     1.0  0.87839  0.56180  0.42651  1.0000
  C   C795      1.0  0.79479  0.55246  0.37753  1.0000
  H   H1340     1.0  0.85646  0.67488  0.22158  1.0000
  C   C796      1.0  0.48572  0.64893  0.18064  1.0000
  C   C797      1.0  0.80158  0.53850  0.45669  1.0000
  H   H1341     1.0  0.60841  0.71943  0.27826  1.0000
  C   C798      1.0  0.92041  0.70568  0.18992  1.0000
  H   H1342     1.0  0.96117  0.51521  0.45938  1.0000
  H   H1343     1.0  0.57587  0.66133  0.15477  1.0000
  H   H1344     1.0  0.88328  0.67521  0.16304  1.0000
  H   H1345     1.0  0.86275  0.71799  0.24237  1.0000
  C   C799      1.0  0.76426  0.61913  0.07834  1.0000
  N   N56       1.0  0.74216  0.62216  0.09346  1.0000
  H   H1346     1.0  0.77149  0.67864  0.10533  1.0000
  H   H1347     1.0  0.67473  0.57864  0.08160  1.0000
  H   H1348     1.0  0.79180  0.56455  0.39802  1.0000
  C   C800      1.0  0.54520  0.49844  0.34866  1.0000
  C   C801      1.0  0.76609  0.67101  0.07711  1.0000
  H   H1349     1.0  0.90098  0.73977  0.18036  1.0000
  C   C802      1.0  0.59029  0.73444  0.17100  1.0000
  H   H1350     1.0  0.76708  0.64579  0.13815  1.0000
  S   S229      1.0  0.70270  0.50572  0.21267  1.0000
  H   H1351     1.0  0.96218  0.72853  0.23512  1.0000
  H   H1352     1.0  0.86300  0.65959  0.25880  1.0000
  C   C803      1.0  0.54472  0.51436  0.38179  1.0000
  H   H1353     1.0  0.78470  0.59630  0.08093  1.0000
  H   H1354     1.0  0.87638  0.65911  0.21661  1.0000
  H   H1355     1.0  0.77069  0.51524  0.39976  1.0000
  N   N57       1.0  0.90910  0.71615  0.21770  1.0000
  H   H1356     1.0  0.73625  0.63917  0.04493  1.0000
  C   C804      1.0  0.90288  0.69067  0.15652  1.0000
  C   C805      1.0  0.83711  0.54768  0.41469  1.0000
  C   C806      1.0  0.67932  0.50947  0.08713  1.0000
  H   H1357     1.0  0.90064  0.70423  0.13781  1.0000
  H   H1358     1.0  0.67582  0.53821  0.05489  1.0000
  H   H1359     1.0  0.78289  0.67062  0.06471  1.0000
  H   H1360     1.0  0.63120  0.54260  0.18246  1.0000
  H   H1361     1.0  0.92730  0.69278  0.20268  1.0000
  C   C807      1.0  0.78351  0.50104  0.28889  1.0000
  C   C808      1.0  0.58314  0.71427  0.23024  1.0000
  C   C809      1.0  0.59212  0.70341  0.26228  1.0000
  C   C810      1.0  0.60168  0.69896  0.18116  1.0000
  H   H1362     1.0  0.94715  0.72531  0.27816  1.0000
  H   H1363     1.0  0.55756  0.72952  0.13626  1.0000
  H   H1364     1.0  0.83997  0.54510  0.38568  1.0000
  H   H1365     1.0  0.51646  0.64361  0.48019  1.0000
  H   H1366     1.0  0.61376  0.52540  0.44096  1.0000
  H   H1367     1.0  0.54347  0.53162  0.37166  1.0000
  C   C811      1.0  0.80681  0.50198  0.42942  1.0000
  C   C812      1.0  0.56297  0.71721  0.15339  1.0000
  N   N58       1.0  0.60011  0.72173  0.19811  1.0000
  H   H1368     1.0  0.91001  0.69053  0.25899  1.0000
  H   H1369     1.0  0.68895  0.61032  0.10259  1.0000
  H   H1370     1.0  0.53888  0.65088  0.44565  1.0000
  H   H1371     1.0  0.55796  0.67295  0.17945  1.0000
  H   H1372     1.0  0.85967  0.52742  0.42849  1.0000
  H   H1373     1.0  0.69070  0.60670  0.05461  1.0000
  H   H1374     1.0  0.71420  0.58312  0.10858  1.0000
  H   H1375     1.0  0.80464  0.55854  0.45229  1.0000
  H   H1376     1.0  0.52528  0.53457  0.42881  1.0000
  C   C813      1.0  0.87168  0.67129  0.23469  1.0000
  H   H1377     1.0  0.91236  0.68128  0.14134  1.0000
  C   C814      1.0  0.57648  0.67222  0.17980  1.0000
  H   H1378     1.0  0.63674  0.50598  0.01894  1.0000
  S   S230      1.0  0.49516  0.72200  0.36963  1.0000
  S   S231      1.0  0.75501  0.49639  0.26408  1.0000
  C   C815      1.0  0.61363  0.49622  0.30278  1.0000
  H   H1379     1.0  0.58287  0.49919  0.38811  1.0000
  C   C816      1.0  0.95359  0.73704  0.25360  1.0000
  C   C817      1.0  0.89629  0.69666  0.24667  1.0000
  C   C818      1.0  0.57496  0.50191  0.41351  1.0000
  S   S232      1.0  0.70902  0.53263  0.10855  1.0000
  C   C819      1.0  0.54265  0.54178  0.44754  1.0000
  C   C820      1.0  0.72958  0.52352  0.00726  1.0000
  S   S233      1.0  0.85703  0.50984  0.35124  1.0000
  H   H1380     1.0  0.60297  0.55636  0.42667  1.0000
  H   H1381     1.0  0.76359  0.58995  0.11733  1.0000
  H   H1382     1.0  0.71788  0.58676  0.06138  1.0000
  H   H1383     1.0  0.56402  0.50717  0.33544  1.0000
  H   H1384     1.0  0.93803  0.72187  0.17831  1.0000
  H   H1385     1.0  0.84089  0.56816  0.41798  1.0000
  H   H1386     1.0  0.52284  0.68260  0.44562  1.0000
  Fe  Fe119     1.0  0.87836  0.74157  0.09623  1.0000
  C   C821      1.0  0.53603  0.65819  0.47194  1.0000
  H   H1387     1.0  0.77981  0.54791  0.35538  1.0000
  C   C822      1.0  0.93137  0.74041  0.23514  1.0000
  C   C823      1.0  0.48838  0.67183  0.37580  1.0000
  C   C824      1.0  0.87622  0.73368  0.22503  1.0000
  H   H1388     1.0  0.58807  0.50515  0.47087  1.0000
  C   C825      1.0  0.61087  0.50033  0.18427  1.0000
  H   H1389     1.0  0.61665  0.69572  0.19622  1.0000
  H   H1390     1.0  0.56271  0.70191  0.13525  1.0000
  H   H1391     1.0  0.81280  0.49556  0.40478  1.0000
  H   H1392     1.0  0.81396  0.56394  0.36536  1.0000
  C   C826      1.0  0.64563  0.49945  0.03955  1.0000
  H   H1393     1.0  0.59795  0.68884  0.25369  1.0000
  H   H1394     1.0  0.55633  0.56246  0.44230  1.0000
  H   H1395     1.0  0.54764  0.70838  0.17326  1.0000
  H   H1396     1.0  0.56277  0.69976  0.22308  1.0000
  H   H1397     1.0  0.53558  0.54127  0.47511  1.0000
  H   H1398     1.0  0.85942  0.54817  0.46480  1.0000
  H   H1399     1.0  0.60839  0.70342  0.15310  1.0000
  H   H1400     1.0  0.51517  0.71552  0.46989  1.0000
  H   H1401     1.0  0.55707  0.69730  0.45418  1.0000
  H   H1402     1.0  0.65214  0.52875  0.17693  1.0000
  C   C827      1.0  0.53804  0.68526  0.46664  1.0000
  H   H1403     1.0  0.64831  0.73979  0.16420  1.0000
  H   H1404     1.0  0.86411  0.73974  0.20813  1.0000
  H   H1405     1.0  0.53005  0.49671  0.32827  1.0000
  H   H1406     1.0  0.58547  0.49588  0.11845  1.0000
  H   H1407     1.0  0.67262  0.49987  0.32091  1.0000
  H   H1408     1.0  0.49347  0.61654  0.18577  1.0000
  H   H1409     1.0  0.61389  0.50183  0.21415  1.0000
  C   C828      1.0  0.97379  0.50690  0.46568  1.0000
  H   H1410     1.0  0.60408  0.50348  0.28430  1.0000
  H   H1411     1.0  0.55111  0.65875  0.49132  1.0000
  H   H1412     1.0  0.84662  0.73852  0.43342  1.0000
  H   H1413     1.0  0.59181  0.49991  0.17935  1.0000
  C   C829      1.0  0.81572  0.54010  0.49326  1.0000
  H   H1414     1.0  0.74717  0.52475  0.99517  1.0000
  H   H1415     1.0  0.60331  0.74170  0.14795  1.0000
  C   C830      1.0  0.62711  0.74203  0.21140  1.0000
  C   C831      1.0  0.65223  0.49423  0.32325  1.0000
  S   S234      1.0  0.64832  0.51797  0.87291  1.0000
  H   H1416     1.0  0.50189  0.52283  0.94165  1.0000
  S   S235      1.0  0.81218  0.69822  0.59911  1.0000
  Fe  Fe120     1.0  0.75526  0.52111  0.73264  1.0000
  S   S236      1.0  0.79281  0.55089  0.76056  1.0000
  C   C832      1.0  0.51132  0.67997  0.51875  1.0000
  Fe  Fe121     1.0  0.78326  0.52059  0.66342  1.0000
  S   S237      1.0  0.82221  0.55007  0.68733  1.0000
  H   H1417     1.0  0.68440  0.50712  0.65808  1.0000
  Fe  Fe122     1.0  0.81003  0.52679  0.73814  1.0000
  S   S238      1.0  0.83950  0.51680  0.76627  1.0000
  Fe  Fe123     1.0  0.80150  0.57163  0.70710  1.0000
  S   S239      1.0  0.82228  0.61665  0.70538  1.0000
  H   H1418     1.0  0.49609  0.66628  0.49902  1.0000
  S   S240      1.0  0.76277  0.54309  0.68065  1.0000
  H   H1419     1.0  0.91139  0.55778  0.76763  1.0000
  H   H1420     1.0  0.69661  0.55191  0.84048  1.0000
  S   S241      1.0  0.49238  0.60992  0.54058  1.0000
  H   H1421     1.0  0.85722  0.49756  0.59458  1.0000
  H   H1422     1.0  0.80216  0.53662  0.51537  1.0000
  C   C833      1.0  0.51259  0.72076  0.67988  1.0000
  C   C834      1.0  0.51762  0.70515  0.65560  1.0000
  H   H1423     1.0  0.90278  0.49536  0.56646  1.0000
  H   H1424     1.0  0.97854  0.52888  0.57101  1.0000
  H   H1425     1.0  0.53648  0.71305  0.64386  1.0000
  C   C835      1.0  0.93307  0.63995  0.77263  1.0000
  C   C836      1.0  0.93237  0.51961  0.53067  1.0000
  C   C837      1.0  0.69763  0.50330  0.79019  1.0000
  H   H1426     1.0  0.58071  0.68530  0.71835  1.0000
  H   H1427     1.0  0.68736  0.53653  0.98983  1.0000
  H   H1428     1.0  0.75545  0.69811  0.70140  1.0000
  H   H1429     1.0  0.90146  0.63753  0.80185  1.0000
  H   H1430     1.0  0.93316  0.53848  0.53771  1.0000
  C   C838      1.0  0.56153  0.72180  0.55941  1.0000
  C   C839      1.0  0.81653  0.67575  0.62739  1.0000
  C   C840      1.0  0.83755  0.68356  0.65248  1.0000
  C   C841      1.0  0.83902  0.66524  0.67587  1.0000
  C   C842      1.0  0.81990  0.63871  0.67406  1.0000
  C   C843      1.0  0.79921  0.63082  0.64845  1.0000
  C   C844      1.0  0.79750  0.64922  0.62552  1.0000
  H   H1431     1.0  0.85249  0.70376  0.65414  1.0000
  H   H1432     1.0  0.85517  0.67167  0.69544  1.0000
  H   H1433     1.0  0.78429  0.61061  0.64664  1.0000
  H   H1434     1.0  0.78116  0.64284  0.60627  1.0000
  C   C845      1.0  0.66683  0.51165  0.84097  1.0000
  H   H1435     1.0  0.56047  0.68902  0.53315  1.0000
  C   C846      1.0  0.70569  0.52832  0.80464  1.0000
  C   C847      1.0  0.69033  0.53244  0.82979  1.0000
  H   H1436     1.0  0.72356  0.54453  0.79613  1.0000
  H   H1437     1.0  0.77487  0.70621  0.66286  1.0000
  H   H1438     1.0  0.89068  0.55732  0.80170  1.0000
  C   C848      1.0  0.77305  0.71397  0.68963  1.0000
  H   H1439     1.0  0.87396  0.62893  0.75116  1.0000
  C   C849      1.0  0.77681  0.67322  0.73387  1.0000
  C   C850      1.0  0.88792  0.61724  0.70539  1.0000
  H   H1440     1.0  0.92279  0.58537  0.79786  1.0000
  H   H1441     1.0  0.61224  0.72142  0.75673  1.0000
  C   C851      1.0  0.87459  0.61108  0.74185  1.0000
  C   C852      1.0  0.86438  0.58618  0.79698  1.0000
  S   S242      1.0  0.71548  0.49682  0.75733  1.0000
  H   H1442     1.0  0.86417  0.61799  0.82964  1.0000
  C   C853      1.0  0.54520  0.72527  0.77411  1.0000
  C   C854      1.0  0.90529  0.57030  0.78273  1.0000
  H   H1443     1.0  0.87179  0.57972  0.82063  1.0000
  H   H1444     1.0  0.85397  0.59639  0.73503  1.0000
  N   N59       1.0  0.88577  0.60116  0.77131  1.0000
  H   H1445     1.0  0.77422  0.72011  0.75872  1.0000
  H   H1446     1.0  0.93206  0.65604  0.75821  1.0000
  H   H1447     1.0  0.88419  0.59909  0.69062  1.0000
  H   H1448     1.0  0.87678  0.56598  0.74086  1.0000
  H   H1449     1.0  0.69443  0.52396  0.91150  1.0000
  H   H1450     1.0  0.93371  0.51445  0.58771  1.0000
  H   H1451     1.0  0.87916  0.62674  0.68814  1.0000
  H   H1452     1.0  0.73826  0.51238  0.93711  1.0000
  C   C855      1.0  0.70011  0.52500  0.94058  1.0000
  H   H1453     1.0  0.58947  0.74131  0.81488  1.0000
  H   H1454     1.0  0.84088  0.60667  0.79134  1.0000
  H   H1455     1.0  0.66161  0.51946  0.95561  1.0000
  C   C856      1.0  0.49648  0.50177  0.53538  1.0000
  H   H1456     1.0  0.90835  0.59124  0.73471  1.0000
  H   H1457     1.0  0.71668  0.51044  0.87799  1.0000
  H   H1458     1.0  0.56040  0.69992  0.71163  1.0000
  H   H1459     1.0  0.90907  0.63070  0.70799  1.0000
  C   C857      1.0  0.89377  0.58231  0.75558  1.0000
  C   C858      1.0  0.70432  0.49995  0.99199  1.0000
  H   H1460     1.0  0.71616  0.53049  0.62060  1.0000
  H   H1461     1.0  0.48822  0.70048  0.52361  1.0000
  H   H1462     1.0  0.93818  0.62862  0.75369  1.0000
  C   C859      1.0  0.90777  0.62342  0.79238  1.0000
  H   H1463     1.0  0.55037  0.70822  0.58079  1.0000
  H   H1464     1.0  0.83514  0.58743  0.83027  1.0000
  H   H1465     1.0  0.81732  0.70072  0.73430  1.0000
  H   H1466     1.0  0.75983  0.66357  0.71446  1.0000
  C   C860      1.0  0.79479  0.73065  0.75043  1.0000
  H   H1467     1.0  0.91293  0.61678  0.81795  1.0000
  H   H1468     1.0  0.53054  0.73298  0.51017  1.0000
  H   H1469     1.0  0.80252  0.69005  0.69042  1.0000
  H   H1470     1.0  0.91788  0.51075  0.50777  1.0000
  C   C861      1.0  0.85068  0.60080  0.81262  1.0000
  H   H1471     1.0  0.50458  0.50303  0.56243  1.0000
  H   H1472     1.0  0.54871  0.73236  0.80261  1.0000
  H   H1473     1.0  0.83292  0.55968  0.49791  1.0000
  C   C862      1.0  0.79976  0.69680  0.71719  1.0000
  S   S243      1.0  0.50604  0.66026  0.61663  1.0000
  H   H1474     1.0  0.95179  0.52370  0.52181  1.0000
  H   H1475     1.0  0.75021  0.72880  0.66090  1.0000
  C   C863      1.0  0.76590  0.73570  0.68246  1.0000
  H   H1476     1.0  0.82046  0.73379  0.66625  1.0000
  H   H1477     1.0  0.78294  0.65834  0.74023  1.0000
  C   C864      1.0  0.48854  0.71056  0.69608  1.0000
  H   H1478     1.0  0.51048  0.70599  0.56208  1.0000
  H   H1479     1.0  0.57776  0.71754  0.50962  1.0000
  H   H1480     1.0  0.72050  0.54122  0.94306  1.0000
  C   C865      1.0  0.49842  0.67945  0.64638  1.0000
  H   H1481     1.0  0.94972  0.64860  0.79276  1.0000
  C   C866      1.0  0.59240  0.71942  0.75321  1.0000
  H   H1482     1.0  0.80611  0.72610  0.77122  1.0000
  H   H1483     1.0  0.84883  0.56802  0.78350  1.0000
  H   H1484     1.0  0.52728  0.74064  0.68615  1.0000
  C   C867      1.0  0.68259  0.53350  0.96051  1.0000
  H   H1485     1.0  0.77086  0.67846  0.75934  1.0000
  N   N60       1.0  0.79710  0.72113  0.71341  1.0000
  H   H1486     1.0  0.82734  0.50882  0.62702  1.0000
  H   H1487     1.0  0.54187  0.70498  0.77227  1.0000
  H   H1488     1.0  0.75785  0.73999  0.70668  1.0000
  C   C868      1.0  0.49901  0.51187  0.96597  1.0000
  H   H1489     1.0  0.52665  0.72463  0.76473  1.0000
  C   C869      1.0  0.58089  0.70437  0.71714  1.0000
  C   C870      1.0  0.49746  0.69166  0.54117  1.0000
  C   C871      1.0  0.55945  0.70663  0.52420  1.0000
  H   H1490     1.0  0.70070  0.51400  0.57796  1.0000
  H   H1491     1.0  0.87301  0.49844  0.79777  1.0000
  H   H1492     1.0  0.51560  0.66729  0.53687  1.0000
  H   H1493     1.0  0.73489  0.52676  0.58652  1.0000
  S   S244      1.0  0.59954  0.49776  0.95161  1.0000
  H   H1494     1.0  0.59301  0.71478  0.69437  1.0000
  N   N61       1.0  0.53553  0.69882  0.49995  1.0000
  C   C872      1.0  0.51118  0.49624  0.97036  1.0000
  H   H1495     1.0  0.58102  0.70646  0.77506  1.0000
  H   H1496     1.0  0.68554  0.55234  0.94972  1.0000
  N   N62       1.0  0.69857  0.49964  0.95199  1.0000
  C   C873      1.0  0.71568  0.51691  0.59919  1.0000
  Fe  Fe124     1.0  0.83309  0.74260  0.59032  1.0000
  C   C874      1.0  0.82192  0.50013  0.60012  1.0000
  C   C875      1.0  0.82060  0.74077  0.69437  1.0000
  H   H1497     1.0  0.55970  0.73705  0.72185  1.0000
  H   H1498     1.0  0.72883  0.49650  0.63411  1.0000
  C   C876      1.0  0.71843  0.49557  0.93208  1.0000
  C   C877      1.0  0.97611  0.51120  0.58493  1.0000
  S   S245      1.0  0.77233  0.49612  0.71271  1.0000
  H   H1499     1.0  0.70489  0.49774  0.68208  1.0000
  S   S246      1.0  0.77597  0.50281  0.60619  1.0000
  H   H1500     1.0  0.82193  0.52515  0.49649  1.0000
  H   H1501     1.0  0.55519  0.73668  0.55617  1.0000
  H   H1502     1.0  0.58234  0.73295  0.56876  1.0000
  H   H1503     1.0  0.97035  0.51178  0.61282  1.0000
  C   C878      1.0  0.79800  0.49515  0.58387  1.0000
  H   H1504     1.0  0.85274  0.73207  0.70547  1.0000
  C   C879      1.0  0.92389  0.50185  0.56349  1.0000
  S   S247      1.0  0.52971  0.49388  0.93453  1.0000
  C   C880      1.0  0.83439  0.49408  0.80088  1.0000
  C   C881      1.0  0.56709  0.74374  0.74990  1.0000
  H   H1505     1.0  0.76948  0.94240  0.00533  1.0000
  S   S248      1.0  0.87405  0.77219  0.12753  1.0000
  Fe  Fe125     1.0  0.92943  0.78357  0.06252  1.0000
  S   S249      1.0  0.92864  0.81624  0.09367  1.0000
  C   C882      1.0  0.50818  0.78378  0.00891  1.0000
  Fe  Fe126     1.0  0.91714  0.78947  0.14074  1.0000
  S   S250      1.0  0.92756  0.79564  0.20093  1.0000
  Fe  Fe127     1.0  0.88573  0.79602  0.07727  1.0000
  S   S251      1.0  0.87096  0.82364  0.05699  1.0000
  S   S252      1.0  0.92114  0.75807  0.11093  1.0000
  S   S253      1.0  0.88686  0.76411  0.04443  1.0000
  H   H1506     1.0  0.94627  0.79921  0.27394  1.0000
  Fe  Fe128     1.0  0.78041  0.95413  0.40620  1.0000
  S   S254      1.0  0.81094  0.94874  0.37808  1.0000
  H   H1507     1.0  0.57484  0.75026  0.48186  1.0000
  Fe  Fe129     1.0  0.73602  0.89963  0.37770  1.0000
  S   S255      1.0  0.76464  0.89131  0.34908  1.0000
  S   S256      1.0  0.69119  0.87337  0.37643  1.0000
  Fe  Fe130     1.0  0.79060  0.90776  0.39966  1.0000
  S   S257      1.0  0.81739  0.89420  0.42826  1.0000
  Fe  Fe131     1.0  0.78221  0.93302  0.33051  1.0000
  S   S258      1.0  0.78600  0.94141  0.26984  1.0000
  S   S259      1.0  0.76107  0.91402  0.42966  1.0000
  S   S260      1.0  0.75260  0.94054  0.35744  1.0000
  C   C883      1.0  0.64752  0.75451  0.18238  1.0000
  S   S261      1.0  0.53091  0.77098  0.29312  1.0000
  S   S262      1.0  0.60475  0.78439  0.26920  1.0000
  H   H1508     1.0  0.92221  0.79827  0.38236  1.0000
  S   S263      1.0  0.96008  0.78820  0.02207  1.0000
  N   N63       1.0  0.48966  0.79173  0.02517  1.0000
  C   C884      1.0  0.66750  0.84809  0.34679  1.0000
  C   C885      1.0  0.64084  0.84015  0.35039  1.0000
  C   C886      1.0  0.62139  0.82053  0.32738  1.0000
  C   C887      1.0  0.62831  0.80860  0.30012  1.0000
  C   C888      1.0  0.65496  0.81649  0.29654  1.0000
  C   C889      1.0  0.67435  0.83580  0.31992  1.0000
  H   H1509     1.0  0.63517  0.84928  0.37117  1.0000
  H   H1510     1.0  0.60107  0.81482  0.33062  1.0000
  H   H1511     1.0  0.66067  0.80736  0.27583  1.0000
  H   H1512     1.0  0.69460  0.84098  0.31747  1.0000
  H   H1513     1.0  0.96950  0.75661  0.26256  1.0000
  C   C890      1.0  0.80615  0.97097  0.24786  1.0000
  C   C891      1.0  0.85518  0.77768  0.41839  1.0000
  H   H1514     1.0  0.85241  0.80746  0.46954  1.0000
  H   H1515     1.0  0.86911  0.76314  0.46457  1.0000
  C   C892      1.0  0.87030  0.91336  0.06684  1.0000
  H   H1516     1.0  0.52521  0.78826  0.02720  1.0000
  C   C893      1.0  0.51028  0.81298  0.17880  1.0000
  C   C894      1.0  0.51378  0.83377  0.15652  1.0000
  H   H1517     1.0  0.82187  0.95800  0.04659  1.0000
  H   H1518     1.0  0.52696  0.81272  0.19185  1.0000
  H   H1519     1.0  0.53327  0.84939  0.15259  1.0000
  H   H1520     1.0  0.95540  0.85059  0.48832  1.0000
  C   C895      1.0  0.83126  0.86501  0.47282  1.0000
  C   C896      1.0  0.81062  0.86599  0.45345  1.0000
  C   C897      1.0  0.78563  0.84455  0.45430  1.0000
  H   H1521     1.0  0.92540  0.87838  0.04048  1.0000
  H   H1522     1.0  0.83114  0.90470  0.08063  1.0000
  H   H1523     1.0  0.76957  0.84496  0.43954  1.0000
  H   H1524     1.0  0.66713  0.76583  0.19597  1.0000
  H   H1525     1.0  0.88942  0.96211  0.04347  1.0000
  S   S264      1.0  0.49809  0.86109  0.11102  1.0000
  H   H1526     1.0  0.83905  0.82781  0.42829  1.0000
  H   H1527     1.0  0.51754  0.78606  0.08377  1.0000
  H   H1528     1.0  0.79999  0.90150  0.02116  1.0000
  H   H1529     1.0  0.85057  0.77221  0.38922  1.0000
  H   H1530     1.0  0.91013  0.85073  0.47012  1.0000
  H   H1531     1.0  0.88980  0.92628  0.07985  1.0000
  H   H1532     1.0  0.97989  0.84403  0.03843  1.0000
  C   C898      1.0  0.85039  0.92228  0.07734  1.0000
  C   C899      1.0  0.95902  0.81456  0.22139  1.0000
  C   C900      1.0  0.96258  0.81244  0.25863  1.0000
  H   H1533     1.0  0.88251  0.84273  0.39914  1.0000
  N   N64       1.0  0.84816  0.94171  0.05309  1.0000
  H   H1534     1.0  0.64412  0.76864  0.16641  1.0000
  C   C901      1.0  0.49648  0.77275  0.08564  1.0000
  H   H1535     1.0  0.83032  0.99140  0.29468  1.0000
  H   H1536     1.0  0.91365  0.82125  0.36196  1.0000
  H   H1537     1.0  0.71566  0.93687  0.17102  1.0000
  H   H1538     1.0  0.86775  0.81528  0.36946  1.0000
  H   H1539     1.0  0.55248  0.75911  0.46064  1.0000
  H   H1540     1.0  0.86355  0.89309  0.07575  1.0000
  H   H1541     1.0  0.88224  0.85518  0.45739  1.0000
  H   H1542     1.0  0.87969  0.80360  0.48149  1.0000
  H   H1543     1.0  0.68406  0.91796  0.18873  1.0000
  C   C902      1.0  0.84061  0.81999  0.40180  1.0000
  C   C903      1.0  0.95310  0.83120  0.48486  1.0000
  H   H1544     1.0  0.62633  0.75826  0.22634  1.0000
  H   H1545     1.0  0.88967  0.78771  0.36677  1.0000
  C   C904      1.0  0.49236  0.83459  0.13935  1.0000
  C   C905      1.0  0.84746  0.81758  0.02147  1.0000
  H   H1546     1.0  0.53622  0.85431  0.05734  1.0000
  H   H1547     1.0  0.83769  0.83205  0.38104  1.0000
  C   C906      1.0  0.96844  0.82678  0.46021  1.0000
  H   H1548     1.0  0.49021  0.82741  0.04340  1.0000
  C   C907      1.0  0.82701  0.94699  0.06651  1.0000
  H   H1549     1.0  0.87245  0.91264  0.03744  1.0000
  C   C908      1.0  0.87496  0.98872  0.03148  1.0000
  C   C909      1.0  0.84094  0.93140  0.01464  1.0000
  H   H1550     1.0  0.54364  0.82900  0.04637  1.0000
  H   H1551     1.0  0.87957  0.75829  0.42126  1.0000
  H   H1552     1.0  0.85643  0.93053  0.10530  1.0000
  N   N65       1.0  0.87439  0.80628  0.42402  1.0000
  C   C910      1.0  0.87293  0.81389  0.46250  1.0000
  C   C911      1.0  0.86754  0.82175  0.39770  1.0000
  C   C912      1.0  0.88894  0.84317  0.47280  1.0000
  C   C913      1.0  0.82662  0.99241  0.26613  1.0000
  H   H1553     1.0  0.90871  0.80238  0.43839  1.0000
  H   H1554     1.0  0.78607  0.95619  0.19616  1.0000
  C   C914      1.0  0.80215  0.82128  0.49286  1.0000
  H   H1555     1.0  0.91579  0.83283  0.42187  1.0000
  H   H1556     1.0  0.82449  0.79977  0.39764  1.0000
  C   C915      1.0  0.83291  0.96213  0.10295  1.0000
  H   H1557     1.0  0.80862  0.92843  0.06944  1.0000
  N   N66       1.0  0.70109  0.90586  0.25403  1.0000
  C   C916      1.0  0.69826  0.92634  0.27564  1.0000
  C   C917      1.0  0.71686  0.91924  0.22196  1.0000
  C   C918      1.0  0.71620  0.89644  0.27755  1.0000
  C   C919      1.0  0.67422  0.88382  0.24392  1.0000
  C   C920      1.0  0.68455  0.91763  0.31168  1.0000
  C   C921      1.0  0.70477  0.93153  0.19625  1.0000
  C   C922      1.0  0.72336  0.87680  0.26027  1.0000
  C   C923      1.0  0.67159  0.86594  0.21124  1.0000
  H   H1558     1.0  0.71774  0.94359  0.28197  1.0000
  H   H1559     1.0  0.68681  0.93376  0.25987  1.0000
  H   H1560     1.0  0.72105  0.90610  0.20519  1.0000
  H   H1561     1.0  0.73658  0.93503  0.23120  1.0000
  H   H1562     1.0  0.73464  0.91322  0.28812  1.0000
  H   H1563     1.0  0.70536  0.88697  0.30175  1.0000
  H   H1564     1.0  0.66595  0.87100  0.26736  1.0000
  H   H1565     1.0  0.66059  0.89169  0.23772  1.0000
  H   H1566     1.0  0.68042  0.93303  0.32230  1.0000
  H   H1567     1.0  0.66572  0.89936  0.30895  1.0000
  H   H1568     1.0  0.69733  0.91543  0.33244  1.0000
  H   H1569     1.0  0.85469  0.85737  0.02215  1.0000
  C   C924      1.0  0.90185  0.81172  0.41788  1.0000
  H   H1570     1.0  0.70661  0.94985  0.20811  1.0000
  H   H1571     1.0  0.73598  0.88478  0.23704  1.0000
  H   H1572     1.0  0.70585  0.85801  0.25310  1.0000
  H   H1573     1.0  0.73492  0.87226  0.28046  1.0000
  H   H1574     1.0  0.65869  0.84530  0.21820  1.0000
  H   H1575     1.0  0.68989  0.86701  0.20247  1.0000
  H   H1576     1.0  0.66164  0.86974  0.18786  1.0000
  C   C925      1.0  0.84346  0.83823  0.00952  1.0000
  H   H1577     1.0  0.88094  0.97366  0.08208  1.0000
  C   C926      1.0  0.86336  0.75859  0.43556  1.0000
  H   H1578     1.0  0.83604  0.77308  0.42958  1.0000
  C   C927      1.0  0.90689  0.80435  0.37999  1.0000
  C   C928      1.0  0.80178  0.97265  0.21062  1.0000
  H   H1579     1.0  0.85066  0.88149  0.47241  1.0000
  H   H1580     1.0  0.93637  0.85488  0.03611  1.0000
  Fe  Fe132     1.0  0.55989  0.76044  0.26983  1.0000
  C   C929      1.0  0.96643  0.80206  0.45656  1.0000
  H   H1581     1.0  0.82086  0.98070  0.48296  1.0000
  C   C930      1.0  0.78150  0.82230  0.47369  1.0000
  H   H1582     1.0  0.52355  0.82645  0.08430  1.0000
  C   C931      1.0  0.93499  0.87084  0.02206  1.0000
  Fe  Fe133     1.0  0.50695  0.75395  0.24125  1.0000
  H   H1583     1.0  0.83577  0.77689  0.01377  1.0000
  C   C932      1.0  0.87410  0.96621  0.05390  1.0000
  C   C933      1.0  0.98020  0.83188  0.20191  1.0000
  H   H1584     1.0  0.59032  0.75187  0.18362  1.0000
  H   H1585     1.0  0.83664  0.95185  0.12543  1.0000
  C   C934      1.0  0.52809  0.83278  0.05624  1.0000
  H   H1586     1.0  0.83559  0.94416  0.99846  1.0000
  H   H1587     1.0  0.84933  0.98225  0.10166  1.0000
  H   H1588     1.0  0.93704  0.82337  0.99803  1.0000
  C   C935      1.0  0.94764  0.78145  0.47601  1.0000
  H   H1589     1.0  0.81561  0.96417  0.10978  1.0000
  H   H1590     1.0  0.85784  0.93219  0.00075  1.0000
  H   H1591     1.0  0.76214  0.80572  0.47372  1.0000
  C   C936      1.0  0.82702  0.84296  0.49278  1.0000
  H   H1592     1.0  0.90365  0.81414  0.99893  1.0000
  H   H1593     1.0  0.49251  0.75224  0.08260  1.0000
  H   H1594     1.0  0.49172  0.77472  0.11384  1.0000
  H   H1595     1.0  0.95483  0.88712  0.01801  1.0000
  H   H1596     1.0  0.97764  0.83375  0.17326  1.0000
  H   H1597     1.0  0.94575  0.76218  0.47309  1.0000
  S   S265      1.0  0.53702  0.74587  0.21626  1.0000
  H   H1598     1.0  0.50906  0.83084  0.00514  1.0000
  H   H1599     1.0  0.50404  0.80005  0.33539  1.0000
  H   H1600     1.0  0.94050  0.75575  0.21475  1.0000
  C   C937      1.0  0.50337  0.82092  0.03130  1.0000
  H   H1601     1.0  0.98227  0.84264  0.44463  1.0000
  H   H1602     1.0  0.48777  0.77131  0.36042  1.0000
  H   H1603     1.0  0.88960  0.75106  0.24173  1.0000
  H   H1604     1.0  0.87265  0.98394  0.00213  1.0000
  H   H1605     1.0  0.82284  0.88873  0.02060  1.0000
  C   C938      1.0  0.81799  0.90350  0.00941  1.0000
  H   H1606     1.0  0.50746  0.94209  0.47623  1.0000
  C   C939      1.0  0.83290  0.79294  0.00488  1.0000
  H   H1607     1.0  0.51017  0.97215  0.49212  1.0000
  H   H1608     1.0  0.92452  0.74901  0.25621  1.0000
  C   C940      1.0  0.49621  0.75472  0.99755  1.0000
  S   S266      1.0  0.78953  0.99361  0.43201  1.0000
  Fe  Fe134     1.0  0.84921  0.79483  0.62853  1.0000
  S   S267      1.0  0.81100  0.76398  0.60470  1.0000
  S   S268      1.0  0.85499  0.81414  0.68390  1.0000
  Fe  Fe135     1.0  0.87913  0.79256  0.56314  1.0000
  S   S269      1.0  0.84257  0.76100  0.53526  1.0000
  S   S270      1.0  0.91831  0.81826  0.53840  1.0000
  Fe  Fe136     1.0  0.82396  0.78510  0.55250  1.0000
  H   H1609     1.0  0.56863  0.76344  0.75267  1.0000
  H   H1610     1.0  0.82971  0.84770  0.57379  1.0000
  S   S271      1.0  0.86064  0.81730  0.57763  1.0000
  S   S272      1.0  0.87104  0.77279  0.61687  1.0000
  Fe  Fe137     1.0  0.77658  0.83176  0.90049  1.0000
  S   S273      1.0  0.80554  0.86275  0.86573  1.0000
  S   S274      1.0  0.78579  0.80304  0.93068  1.0000
  Fe  Fe138     1.0  0.73185  0.84262  0.87426  1.0000
  S   S275      1.0  0.75819  0.87443  0.83861  1.0000
  S   S276      1.0  0.68916  0.83236  0.88030  1.0000
  Fe  Fe139     1.0  0.77341  0.84709  0.82241  1.0000
  S   S277      1.0  0.77305  0.83737  0.76255  1.0000
  Fe  Fe140     1.0  0.78759  0.88708  0.88548  1.0000
  S   S278      1.0  0.81340  0.93014  0.90133  1.0000
  S   S279      1.0  0.74530  0.81456  0.85585  1.0000
  S   S280      1.0  0.76041  0.85687  0.92261  1.0000
  Fe  Fe141     1.0  0.52300  0.80798  0.81559  1.0000
  S   S281      1.0  0.55104  0.84196  0.78420  1.0000
  C   C941      1.0  0.90890  0.83981  0.92688  1.0000
  Fe  Fe142     1.0  0.50913  0.77034  0.74945  1.0000
  S   S282      1.0  0.53616  0.80218  0.71418  1.0000
  Fe  Fe143     1.0  0.56454  0.81459  0.76279  1.0000
  S   S283      1.0  0.60703  0.82459  0.75591  1.0000
  Fe  Fe144     1.0  0.51992  0.82631  0.73929  1.0000
  S   S284      1.0  0.50683  0.85400  0.71421  1.0000
  S   S285      1.0  0.53819  0.78122  0.79651  1.0000
  C   C942      1.0  0.80923  0.94803  0.93703  1.0000
  C   C943      1.0  0.82749  0.97453  0.94269  1.0000
  S   S286      1.0  0.52135  0.81549  0.87562  1.0000
  C   C944      1.0  0.78758  0.84986  0.57403  1.0000
  C   C945      1.0  0.78844  0.93650  0.96000  1.0000
  H   H1611     1.0  0.52470  0.88969  0.55950  1.0000
  H   H1612     1.0  0.77467  0.91601  0.95658  1.0000
  C   C946      1.0  0.66701  0.83129  0.84540  1.0000
  C   C947      1.0  0.64187  0.82629  0.85428  1.0000
  C   C948      1.0  0.62351  0.82484  0.82741  1.0000
  C   C949      1.0  0.63008  0.82832  0.79122  1.0000
  C   C950      1.0  0.65536  0.83371  0.78241  1.0000
  C   C951      1.0  0.67371  0.83514  0.80928  1.0000
  H   H1613     1.0  0.63646  0.82330  0.88212  1.0000
  H   H1614     1.0  0.60416  0.82068  0.83468  1.0000
  H   H1615     1.0  0.66070  0.83646  0.75453  1.0000
  H   H1616     1.0  0.69295  0.83897  0.80199  1.0000
  C   C952      1.0  0.82505  0.98940  0.97097  1.0000
  H   H1617     1.0  0.89301  0.78751  0.94376  1.0000
  C   C953      1.0  0.91868  0.86138  0.98616  1.0000
  H   H1618     1.0  0.82029  0.75944  0.69128  1.0000
  H   H1619     1.0  0.70944  0.89212  0.80385  1.0000
  H   H1620     1.0  0.48979  0.86810  0.55849  1.0000
  C   C954      1.0  0.83136  0.81910  0.70607  1.0000
  C   C955      1.0  0.80667  0.81150  0.69016  1.0000
  C   C956      1.0  0.78869  0.81642  0.70843  1.0000
  C   C957      1.0  0.79520  0.82897  0.74265  1.0000
  C   C958      1.0  0.81962  0.83590  0.75893  1.0000
  C   C959      1.0  0.83762  0.83105  0.74064  1.0000
  H   H1621     1.0  0.80151  0.80206  0.66374  1.0000
  H   H1622     1.0  0.76972  0.81080  0.69586  1.0000
  H   H1623     1.0  0.82487  0.84562  0.78521  1.0000
  H   H1624     1.0  0.85665  0.83689  0.75320  1.0000
  H   H1625     1.0  0.79472  0.76761  0.73627  1.0000
  H   H1626     1.0  0.87396  0.84272  0.94013  1.0000
  H   H1627     1.0  0.59121  0.74978  0.67919  1.0000
  H   H1628     1.0  0.62939  0.76060  0.72778  1.0000
  C   C960      1.0  0.51168  0.90054  0.86581  1.0000
  H   H1629     1.0  0.55209  0.98080  0.56661  1.0000
  H   H1630     1.0  0.95384  0.84176  0.90131  1.0000
  C   C961      1.0  0.79799  0.86299  0.63747  1.0000
  C   C962      1.0  0.87923  0.82769  0.93142  1.0000
  H   H1631     1.0  0.63266  0.74422  0.80745  1.0000
  H   H1632     1.0  0.78762  0.84234  0.64552  1.0000
  C   C963      1.0  0.81011  0.80953  0.96518  1.0000
  H   H1633     1.0  0.75424  0.92273  0.82173  1.0000
  C   C964      1.0  0.96480  0.84825  0.92759  1.0000
  H   H1634     1.0  0.80806  0.90080  0.59073  1.0000
  H   H1635     1.0  0.82988  0.86925  0.67641  1.0000
  H   H1636     1.0  0.87005  0.87839  0.59387  1.0000
  H   H1637     1.0  0.82199  0.85027  0.97254  1.0000
  H   H1638     1.0  0.64525  0.77670  0.78988  1.0000
  H   H1639     1.0  0.55218  0.96912  0.61037  1.0000
  N   N67       1.0  0.72456  0.92476  0.88333  1.0000
  C   C965      1.0  0.71945  0.91878  0.92277  1.0000
  C   C966      1.0  0.72005  0.94762  0.87562  1.0000
  C   C967      1.0  0.75298  0.93291  0.87876  1.0000
  C   C968      1.0  0.70707  0.90063  0.86076  1.0000
  C   C969      1.0  0.71811  0.89308  0.93549  1.0000
  C   C970      1.0  0.69151  0.94223  0.87666  1.0000
  C   C971      1.0  0.76330  0.93984  0.84055  1.0000
  C   C972      1.0  0.70314  0.90403  0.82003  1.0000
  H   H1640     1.0  0.73439  0.93502  0.94036  1.0000
  H   H1641     1.0  0.70050  0.91717  0.92996  1.0000
  H   H1642     1.0  0.72703  0.95594  0.84905  1.0000
  H   H1643     1.0  0.73189  0.96406  0.89517  1.0000
  H   H1644     1.0  0.76556  0.95018  0.89665  1.0000
  H   H1645     1.0  0.75758  0.91739  0.88728  1.0000
  H   H1646     1.0  0.71442  0.88629  0.86279  1.0000
  H   H1647     1.0  0.68726  0.89047  0.87190  1.0000
  S   S287      1.0  0.79580  0.79273  0.51686  1.0000
  C   C973      1.0  0.91997  0.82010  0.98027  1.0000
  H   H1648     1.0  0.53237  0.92639  0.59239  1.0000
  H   H1649     1.0  0.69023  0.95917  0.86551  1.0000
  H   H1650     1.0  0.67781  0.92487  0.86009  1.0000
  H   H1651     1.0  0.68477  0.94024  0.90458  1.0000
  C   C974      1.0  0.50492  0.83759  0.92717  1.0000
  H   H1652     1.0  0.51674  0.79533  0.98445  1.0000
  C   C975      1.0  0.50141  0.90339  0.52667  1.0000
  H   H1653     1.0  0.84780  0.74960  0.74204  1.0000
  H   H1654     1.0  0.50795  0.86999  0.52030  1.0000
  H   H1655     1.0  0.68206  0.89636  0.81294  1.0000
  H   H1656     1.0  0.52359  0.84323  0.94074  1.0000
  C   C976      1.0  0.50725  0.94834  0.89416  1.0000
  H   H1657     1.0  0.86257  0.76592  0.70177  1.0000
  H   H1658     1.0  0.91804  0.76988  0.51572  1.0000
  C   C977      1.0  0.82813  0.85393  0.60166  1.0000
  H   H1659     1.0  0.82013  0.83581  0.61746  1.0000
  H   H1660     1.0  0.75720  0.81772  0.60393  1.0000
  C   C978      1.0  0.81689  0.87767  0.66969  1.0000
  C   C979      1.0  0.85645  0.87174  0.61635  1.0000
  H   H1661     1.0  0.79920  0.76386  0.78299  1.0000
  C   C980      1.0  0.82498  0.83430  0.98139  1.0000
  H   H1662     1.0  0.83828  0.90641  0.60938  1.0000
  H   H1663     1.0  0.75755  0.81094  0.55712  1.0000
  H   H1664     1.0  0.71980  0.89347  0.96542  1.0000
  H   H1665     1.0  0.88637  0.84587  0.50177  1.0000
  N   N68       1.0  0.49635  0.92271  0.91320  1.0000
  C   C981      1.0  0.83379  0.89861  0.55238  1.0000
  H   H1666     1.0  0.81362  0.89892  0.98001  1.0000
  H   H1667     1.0  0.51212  0.75005  0.99228  1.0000
  H   H1668     1.0  0.97788  0.80520  0.58406  1.0000
  H   H1669     1.0  0.73365  0.88952  0.92527  1.0000
  H   H1670     1.0  0.61983  0.78087  0.67813  1.0000
  H   H1671     1.0  0.48987  0.97393  0.90278  1.0000
  C   C982      1.0  0.81425  0.78895  0.97702  1.0000
  H   H1672     1.0  0.78183  0.81048  0.58685  1.0000
  H   H1673     1.0  0.80532  0.87511  0.69394  1.0000
  C   C983      1.0  0.52638  0.94234  0.97087  1.0000
  H   H1674     1.0  0.85961  0.88875  0.63308  1.0000
  H   H1675     1.0  0.86271  0.86011  0.63363  1.0000
  H   H1676     1.0  0.82552  0.77208  0.75411  1.0000
  C   C984      1.0  0.93188  0.78575  0.50016  1.0000
  H   H1677     1.0  0.52785  0.95500  0.88740  1.0000
  H   H1678     1.0  0.52416  0.98974  0.90832  1.0000
  H   H1679     1.0  0.82832  0.89893  0.66588  1.0000
  H   H1680     1.0  0.51587  0.91229  0.50543  1.0000
  H   H1681     1.0  0.62266  0.78502  0.74434  1.0000
  C   C985      1.0  0.84731  0.74730  0.71233  1.0000
  H   H1682     1.0  0.91319  0.78033  0.97329  1.0000
  H   H1683     1.0  0.49641  0.94570  0.86782  1.0000
  C   C986      1.0  0.49574  0.94176  0.53204  1.0000
  H   H1684     1.0  0.48778  0.89668  0.59630  1.0000
  H   H1685     1.0  0.78302  0.86962  0.63602  1.0000
  H   H1686     1.0  0.76150  0.95640  0.82935  1.0000
  H   H1687     1.0  0.71372  0.92416  0.81057  1.0000
  H   H1688     1.0  0.96614  0.86569  0.97837  1.0000
  H   H1689     1.0  0.78448  0.94598  0.84202  1.0000
  H   H1690     1.0  0.87199  0.81186  0.95112  1.0000
  C   C987      1.0  0.80400  0.97798  0.99352  1.0000
  H   H1691     1.0  0.81818  0.89207  0.53075  1.0000
  H   H1692     1.0  0.50358  0.88648  0.84248  1.0000
  H   H1693     1.0  0.84617  0.91994  0.54941  1.0000
  H   H1694     1.0  0.86865  0.81939  0.90512  1.0000
  N   N69       1.0  0.80973  0.86526  0.60124  1.0000
  H   H1695     1.0  0.92686  0.79919  0.93491  1.0000
  C   C988      1.0  0.77029  0.82066  0.58149  1.0000
  C   C989      1.0  0.95362  0.86078  0.95330  1.0000
  C   C990      1.0  0.50636  0.88179  0.54271  1.0000
  H   H1696     1.0  0.91188  0.82685  0.90784  1.0000
  N   N70       1.0  0.59349  0.74563  0.75688  1.0000
  C   C991      1.0  0.80409  0.76014  0.75564  1.0000
  H   H1697     1.0  0.79508  0.85042  0.54677  1.0000
  C   C992      1.0  0.91295  0.79573  0.95621  1.0000
  C   C993      1.0  0.61314  0.76501  0.73198  1.0000
  H   H1698     1.0  0.53422  0.92559  0.92540  1.0000
  H   H1699     1.0  0.92052  0.87895  0.97217  1.0000
  H   H1700     1.0  0.77444  0.85868  0.57118  1.0000
  C   C994      1.0  0.82237  0.89334  0.59018  1.0000
  H   H1701     1.0  0.49573  0.95726  0.54928  1.0000
  H   H1702     1.0  0.84614  0.88936  0.54778  1.0000
  H   H1703     1.0  0.60062  0.77360  0.80019  1.0000
  H   H1704     1.0  0.49159  0.85365  0.96926  1.0000
  H   H1705     1.0  0.53920  0.93819  0.98935  1.0000
  C   C995      1.0  0.60225  0.75563  0.79527  1.0000
  H   H1706     1.0  0.80282  0.76973  0.96466  1.0000
  C   C996      1.0  0.53950  0.96598  0.58580  1.0000
  C   C997      1.0  0.51309  0.95546  0.50021  1.0000
  H   H1707     1.0  0.84375  0.98361  0.92521  1.0000
  H   H1708     1.0  0.69899  0.87617  0.92731  1.0000
  H   H1709     1.0  0.96647  0.83210  0.94062  1.0000
  H   H1710     1.0  0.63477  0.77041  0.83483  1.0000
  H   H1711     1.0  0.52536  0.91980  0.85522  1.0000
  H   H1712     1.0  0.53412  0.96333  0.50706  1.0000
  H   H1713     1.0  0.52235  0.89333  0.88363  1.0000
  N   N71       1.0  0.92519  0.84487  0.96140  1.0000
  C   C998      1.0  0.51638  0.92214  0.93936  1.0000
  C   C999      1.0  0.53018  0.93808  0.57028  1.0000
  H   H1714     1.0  0.54469  0.94003  0.55017  1.0000
  H   H1715     1.0  0.53856  0.96236  0.96126  1.0000
  H   H1716     1.0  0.78228  0.75374  0.67283  1.0000
  H   H1717     1.0  0.95751  0.87983  0.94186  1.0000
  H   H1718     1.0  0.49717  0.82252  0.64831  1.0000
  H   H1719     1.0  0.51063  0.94154  0.98739  1.0000
  H   H1720     1.0  0.50859  0.90245  0.95117  1.0000
  H   H1721     1.0  0.91507  0.85830  0.91223  1.0000
  H   H1722     1.0  0.52396  0.97028  0.59390  1.0000
  H   H1723     1.0  0.49758  0.93696  0.62837  1.0000
  C   C1000     1.0  0.50631  0.97131  0.91391  1.0000
  N   N72       1.0  0.50299  0.92401  0.55305  1.0000
  C   C1001     1.0  0.49903  0.82448  0.89340  1.0000
  C   C1002     1.0  0.78567  0.95148  0.98776  1.0000
  C   C1003     1.0  0.63034  0.76195  0.80689  1.0000
  H   H1724     1.0  0.59127  0.77865  0.69698  1.0000
  S   S288      1.0  0.49119  0.79374  0.77223  1.0000
  H   H1725     1.0  0.50541  0.97023  0.94353  1.0000
  C   C1004     1.0  0.60295  0.76835  0.69447  1.0000
  H   H1726     1.0  0.84300  0.84265  0.50779  1.0000
  C   C1005     1.0  0.93503  0.81082  0.50532  1.0000
  C   C1006     1.0  0.48681  0.84335  0.94345  1.0000
  C   C1007     1.0  0.48605  0.84805  0.67534  1.0000
  C   C1008     1.0  0.48903  0.90106  0.88527  1.0000
  H   H1727     1.0  0.89807  0.85048  0.99389  1.0000
  H   H1728     1.0  0.98507  0.86300  0.92177  1.0000
