data_image0
_chemical_formula_structural       CSHS2FeSH2CSFeSCFeSCFeSFeS3CHC3H2CH3C2NH3C7H6C3H3C4H2C2H3CH5FeSC3H3C2HSC4H3NH5CH5CH6CH5CH2C2H7CSHSNH5NC2H2SH3C2HCHCH3C2H2S2HCHSH3FeSFe2S2H3C7H4C2H2SNH3C5H3C3H3NC2SC3H3CHCH5NHCHC3H2SH4CH2FeHCH5FeHC2H3CHFeH7CH2CHC3H2CH5CHCHCH8SCSHSH2CHSCHSCHC2FeCS2C2H3C2H3SC2H3C2H13CNHCH6C2SHC3H2FeH4CH4NCH4CH2CH8C2HCH4C2H5CH5SHSNSHFe2HC3SHFeS2H2FeH5CH2CHCH2CH3CSHC2H2C7H6SC2S2H2C2HNCH2CH2C3HC4SH4CH8CHFeC3HCH2SH3FeCHCHSCHFeS2FeSHFe2CS2FeC2NHC3HCH2C2H4CH4C8H2CNCH4S2H2SH5CH4FeCH3CH3CH4CFeSH2CFeH2CH2CH4CHSCH5C2H3NHC2SC2H2CHCH3SCH2S2FeS2FeSCSC3HC2HNC6H2CHC6H14NH2SHFeHCH2C2H3CFeH6NH2CHC3HCHCH3SC3H3C3SHC2H3CH10C2H5CNH4SHCH3CHC2HCFeS2NFeHSH2SCH2FeCNH6C7H4C2HCH3CH3CH7CH2C2SH5SH8CHCH5CHCHCHCHCS2H3C2HFeC2H2C2HSHCFeCFeCFeS2HFeS2FeHSHC2SHCS2H2SHCHC2HC6H4C2HC3HSH8NH2CHCH3SHC2NH2C2HFeHC2HSCH3CH2C2HCFeHNHCH4CH5C2H4C2H7FeS2FeSFeS2FeS2Fe2HS3FeSHSHC3HC2HC2H4C3HCH4C5H2C2HC5H3CHC4SH2C3HCH2N2HC2SHFeH5CH3CHNHCHCH4CH2SH6FeC2NHC2H5CH4SH7FeS2FeHSFeCFeS2C2H3CH2SH3FeC3H3C3H5CHCHC2H4NHCH2CHC3H2C2HCHCH2SHC2H5CH8CFeSC3HCH2NHSC2H4CSH2CHCNHCH3CHCFeH5CHC2H2SH2CH3C2HC3NH5SH2CSH4FeS2FeSHSH2C7H3FeHCHCH5C6H3SH3CHC3NHCFeH5CHSH2CSC2H4CNC8H7CHNHCHCHSH3CH2CHCH6CH3CH2C2H4SCH3FeSCH3C6HCH4CFeCSH3CHSHS3FeS2FeSFeHFeS2HC2H3CFeHCH6CHCH2C6H6SCH3CHCH8C2H2CNHS2H2CH3FeHCHC2H2C4SH3C2H4SC2H2CNH3CHCH2CFeC2H
_chemical_formula_sum              "C504 S144 H864 Fe72 N36"
_cell_length_a       38.3119
_cell_length_b       38.4299
_cell_length_c       36.0146
_cell_angle_alpha    89.2115
_cell_angle_beta     90.2831
_cell_angle_gamma    119.331

_space_group_name_H-M_alt    "P 1"
_space_group_IT_number       1

loop_
  _space_group_symop_operation_xyz
  'x, y, z'

loop_
  _atom_site_type_symbol
  _atom_site_label
  _atom_site_symmetry_multiplicity
  _atom_site_fract_x
  _atom_site_fract_y
  _atom_site_fract_z
  _atom_site_occupancy
  C   C1        1.0  0.36317  0.13162  0.45332  1.0000
  S   S1        1.0  0.41583  0.07932  0.00282  1.0000
  H   H1        1.0  0.21501  0.32533  0.21044  1.0000
  S   S2        1.0  0.43326  0.06837  0.08980  1.0000
  S   S3        1.0  0.50718  0.06095  0.01877  1.0000
  Fe  Fe1       1.0  0.39797  0.09167  0.05848  1.0000
  S   S4        1.0  0.40466  0.15233  0.07155  1.0000
  H   H2        1.0  0.24967  0.33572  0.28970  1.0000
  H   H3        1.0  0.33575  0.10362  0.99051  1.0000
  C   C2        1.0  0.44452  0.35635  0.04448  1.0000
  S   S5        1.0  0.06541  0.36958  0.14883  1.0000
  Fe  Fe2       1.0  0.30618  0.31388  0.17557  1.0000
  S   S6        1.0  0.24967  0.25505  0.17764  1.0000
  C   C3        1.0  0.14599  0.31747  0.32398  1.0000
  Fe  Fe3       1.0  0.33570  0.29831  0.24925  1.0000
  S   S7        1.0  0.28150  0.23793  0.25639  1.0000
  C   C4        1.0  0.34137  0.07545  0.20678  1.0000
  Fe  Fe4       1.0  0.28979  0.23048  0.19565  1.0000
  S   S8        1.0  0.28038  0.17107  0.17423  1.0000
  Fe  Fe5       1.0  0.24724  0.26875  0.23783  1.0000
  S   S9        1.0  0.18861  0.25769  0.26370  1.0000
  S   S10       1.0  0.34683  0.28888  0.18974  1.0000
  S   S11       1.0  0.30110  0.32962  0.23439  1.0000
  C   C5        1.0  0.39435  0.32256  0.36795  1.0000
  H   H4        1.0  0.12475  0.33388  0.20186  1.0000
  C   C6        1.0  0.31803  0.30678  0.07837  1.0000
  C   C7        1.0  0.32241  0.29634  0.04209  1.0000
  C   C8        1.0  0.32527  0.32084  0.01169  1.0000
  H   H5        1.0  0.31662  0.28807  0.10170  1.0000
  H   H6        1.0  0.32426  0.26959  0.03772  1.0000
  C   C9        1.0  0.34047  0.30182  0.41295  1.0000
  H   H7        1.0  0.40594  0.17540  0.21684  1.0000
  H   H8        1.0  0.28934  0.16362  0.06246  1.0000
  H   H9        1.0  0.36434  0.06757  0.19812  1.0000
  C   C10       1.0  0.32646  0.29801  0.34655  1.0000
  C   C11       1.0  0.31317  0.29173  0.38359  1.0000
  N   N1        1.0  0.36003  0.11405  0.22796  1.0000
  H   H10       1.0  0.42568  0.33361  0.36196  1.0000
  H   H11       1.0  0.30519  0.29090  0.32418  1.0000
  H   H12       1.0  0.28163  0.27912  0.38945  1.0000
  C   C12       1.0  0.18030  0.33012  0.44993  1.0000
  C   C13       1.0  0.36959  0.15714  0.09964  1.0000
  C   C14       1.0  0.37813  0.19522  0.11138  1.0000
  C   C15       1.0  0.35078  0.20014  0.13367  1.0000
  C   C16       1.0  0.31456  0.16694  0.14428  1.0000
  C   C17       1.0  0.30578  0.12894  0.13204  1.0000
  C   C18       1.0  0.33320  0.12400  0.10992  1.0000
  H   H13       1.0  0.40627  0.22099  0.10364  1.0000
  H   H14       1.0  0.35791  0.22952  0.14294  1.0000
  H   H15       1.0  0.27776  0.10312  0.14003  1.0000
  H   H16       1.0  0.32612  0.09458  0.10085  1.0000
  H   H17       1.0  0.29723  0.35147  0.42439  1.0000
  H   H18       1.0  0.11712  0.31212  0.33369  1.0000
  C   C19       1.0  0.38688  0.21101  0.98970  1.0000
  C   C20       1.0  0.18634  0.29466  0.29060  1.0000
  C   C21       1.0  0.14900  0.28819  0.30335  1.0000
  H   H19       1.0  0.40867  0.11686  0.16152  1.0000
  H   H20       1.0  0.13055  0.24113  0.15506  1.0000
  H   H21       1.0  0.12226  0.26046  0.29709  1.0000
  C   C22       1.0  0.42150  0.13894  0.18419  1.0000
  C   C23       1.0  0.33809  0.11606  0.41760  1.0000
  C   C24       1.0  0.14554  0.26607  0.17489  1.0000
  C   C25       1.0  0.31891  0.16087  0.01227  1.0000
  H   H22       1.0  0.54816  0.04119  0.07409  1.0000
  H   H23       1.0  0.13871  0.25514  0.41764  1.0000
  C   C26       1.0  0.32211  0.35507  0.01772  1.0000
  C   C27       1.0  0.39637  0.24960  0.01040  1.0000
  H   H24       1.0  0.27770  0.35089  0.37835  1.0000
  H   H25       1.0  0.40246  0.32490  0.42739  1.0000
  H   H26       1.0  0.32995  0.13771  0.40532  1.0000
  C   C28       1.0  0.24787  0.36585  0.42259  1.0000
  H   H27       1.0  0.32069  0.22517  0.97708  1.0000
  H   H28       1.0  0.15085  0.37064  0.25887  1.0000
  H   H29       1.0  0.13948  0.31550  0.97664  1.0000
  H   H30       1.0  0.23146  0.33651  0.16404  1.0000
  H   H31       1.0  0.10664  0.23847  0.97989  1.0000
  Fe  Fe6       1.0  0.44514  0.04975  0.03435  1.0000
  S   S12       1.0  0.05979  0.32952  0.37560  1.0000
  C   C29       1.0  0.38116  0.31725  0.40503  1.0000
  C   C30       1.0  0.36714  0.31351  0.33862  1.0000
  C   C31       1.0  0.31649  0.34189  0.08437  1.0000
  H   H32       1.0  0.35623  0.11111  0.39651  1.0000
  H   H33       1.0  0.44612  0.33208  0.06019  1.0000
  H   H34       1.0  0.16715  0.33732  0.42524  1.0000
  C   C32       1.0  0.35908  0.09659  0.29844  1.0000
  C   C33       1.0  0.38933  0.14647  0.20216  1.0000
  H   H35       1.0  0.33511  0.14945  0.02987  1.0000
  S   S13       1.0  0.38473  0.32264  0.29242  1.0000
  C   C34       1.0  0.32775  0.12415  0.23761  1.0000
  C   C35       1.0  0.38261  0.11168  0.26159  1.0000
  C   C36       1.0  0.34269  0.16665  0.25240  1.0000
  C   C37       1.0  0.20293  0.29639  0.40762  1.0000
  H   H36       1.0  0.28469  0.04176  0.23854  1.0000
  H   H37       1.0  0.39813  0.24552  0.04080  1.0000
  H   H38       1.0  0.30892  0.12092  0.21284  1.0000
  N   N2        1.0  0.21621  0.32644  0.43853  1.0000
  H   H39       1.0  0.31726  0.16838  0.26522  1.0000
  H   H40       1.0  0.36655  0.17515  0.27352  1.0000
  H   H41       1.0  0.35385  0.18898  0.22930  1.0000
  H   H42       1.0  0.12748  0.30331  0.14446  1.0000
  H   H43       1.0  0.15164  0.31552  0.22862  1.0000
  C   C38       1.0  0.35668  0.12371  0.96884  1.0000
  H   H44       1.0  0.44622  0.06866  0.22564  1.0000
  H   H45       1.0  0.30639  0.10295  0.25838  1.0000
  H   H46       1.0  0.17255  0.26536  0.18500  1.0000
  H   H47       1.0  0.33063  0.21041  0.05012  1.0000
  H   H48       1.0  0.24698  0.29581  0.45947  1.0000
  C   C39       1.0  0.22074  0.33053  0.29894  1.0000
  H   H49       1.0  0.37322  0.15209  0.17924  1.0000
  H   H50       1.0  0.39247  0.15767  0.44530  1.0000
  H   H51       1.0  0.29091  0.13395  0.00329  1.0000
  H   H52       1.0  0.42069  0.34104  0.02338  1.0000
  H   H53       1.0  0.17194  0.24156  0.44239  1.0000
  H   H54       1.0  0.37533  0.26091  0.00504  1.0000
  C   C40       1.0  0.30533  0.18342  0.03841  1.0000
  H   H55       1.0  0.28360  0.19078  0.02496  1.0000
  H   H56       1.0  0.43662  0.12919  0.20481  1.0000
  H   H57       1.0  0.40867  0.14139  0.26798  1.0000
  H   H58       1.0  0.12419  0.25944  0.19810  1.0000
  H   H59       1.0  0.38752  0.13951  0.98010  1.0000
  C   C41       1.0  0.16738  0.25461  0.41641  1.0000
  H   H60       1.0  0.32757  0.07875  0.18057  1.0000
  H   H61       1.0  0.44471  0.16711  0.17098  1.0000
  C   C42       1.0  0.15617  0.30568  0.15453  1.0000
  C   C43       1.0  0.21777  0.35976  0.31960  1.0000
  H   H62       1.0  0.39818  0.19509  0.00787  1.0000
  H   H63       1.0  0.17288  0.30591  0.12927  1.0000
  H   H64       1.0  0.30590  0.15827  0.45242  1.0000
  H   H65       1.0  0.35177  0.11878  0.31016  1.0000
  H   H66       1.0  0.31087  0.08676  0.42228  1.0000
  H   H67       1.0  0.16428  0.23424  0.39345  1.0000
  H   H68       1.0  0.15976  0.26820  0.98827  1.0000
  C   C44       1.0  0.15548  0.34057  0.21022  1.0000
  S   S14       1.0  0.33449  0.30882  0.96693  1.0000
  H   H69       1.0  0.22777  0.29131  0.39868  1.0000
  S   S15       1.0  0.32273  0.29485  0.45907  1.0000
  N   N3        1.0  0.34393  0.18337  0.97890  1.0000
  H   H70       1.0  0.19176  0.36077  0.09514  1.0000
  H   H71       1.0  0.19455  0.30780  0.38256  1.0000
  H   H72       1.0  0.39606  0.09243  0.25583  1.0000
  H   H73       1.0  0.42598  0.27406  0.00104  1.0000
  H   H74       1.0  0.15620  0.30135  0.46139  1.0000
  N   N4        1.0  0.17988  0.34349  0.17638  1.0000
  C   C45       1.0  0.36441  0.21079  0.45488  1.0000
  C   C46       1.0  0.18042  0.35340  0.33217  1.0000
  H   H75       1.0  0.37820  0.09217  0.31917  1.0000
  H   H76       1.0  0.40707  0.21988  0.96506  1.0000
  S   S16       1.0  0.31490  0.35788  0.12957  1.0000
  H   H77       1.0  0.33130  0.06767  0.29598  1.0000
  H   H78       1.0  0.37559  0.20560  0.42836  1.0000
  H   H79       1.0  0.35189  0.23089  0.44844  1.0000
  C   C47       1.0  0.31799  0.36568  0.05393  1.0000
  C   C48       1.0  0.13594  0.25951  0.96698  1.0000
  H   H80       1.0  0.42050  0.04196  0.16329  1.0000
  C   C49       1.0  0.21941  0.34653  0.18722  1.0000
  H   H81       1.0  0.39982  0.36725  0.06824  1.0000
  C   C50       1.0  0.28479  0.36579  0.40572  1.0000
  H   H82       1.0  0.20741  0.35016  0.96374  1.0000
  H   H83       1.0  0.15416  0.37300  0.14362  1.0000
  H   H84       1.0  0.43696  0.37173  0.10033  1.0000
  C   C51       1.0  0.41943  0.03998  0.22298  1.0000
  C   C52       1.0  0.05502  0.37258  0.26058  1.0000
  H   H85       1.0  0.16658  0.27153  0.89380  1.0000
  H   H86       1.0  0.29413  0.18283  0.94974  1.0000
  S   S17       1.0  0.41447  0.36018  0.79500  1.0000
  S   S18       1.0  0.12535  0.27776  0.76061  1.0000
  H   H87       1.0  0.25594  0.32963  0.52592  1.0000
  C   C53       1.0  0.11579  0.27244  0.87032  1.0000
  H   H88       1.0  0.38942  0.22115  0.73606  1.0000
  S   S19       1.0  0.27924  0.09024  0.66767  1.0000
  H   H89       1.0  0.28587  0.18198  0.69338  1.0000
  H   H90       1.0  0.29249  0.35066  0.49065  1.0000
  H   H91       1.0  0.47934  0.07596  0.87702  1.0000
  Fe  Fe7       1.0  0.36857  0.31670  0.50515  1.0000
  S   S20       1.0  0.42540  0.31352  0.50248  1.0000
  Fe  Fe8       1.0  0.07279  0.28561  0.74193  1.0000
  Fe  Fe9       1.0  0.41073  0.29107  0.56156  1.0000
  S   S21       1.0  0.41931  0.24050  0.58443  1.0000
  S   S22       1.0  0.35183  0.29012  0.56271  1.0000
  H   H92       1.0  0.34263  0.29435  0.69712  1.0000
  H   H93       1.0  0.43431  0.06550  0.60379  1.0000
  H   H94       1.0  0.35067  0.24226  0.77720  1.0000
  C   C54       1.0  0.23130  0.31148  0.47043  1.0000
  C   C55       1.0  0.31850  0.13154  0.64439  1.0000
  C   C56       1.0  0.31006  0.15857  0.62511  1.0000
  C   C57       1.0  0.34082  0.19266  0.60751  1.0000
  C   C58       1.0  0.38028  0.19975  0.60863  1.0000
  C   C59       1.0  0.38867  0.17263  0.62775  1.0000
  C   C60       1.0  0.35797  0.13875  0.64568  1.0000
  H   H95       1.0  0.27956  0.15311  0.62390  1.0000
  H   H96       1.0  0.33380  0.21293  0.59248  1.0000
  H   H97       1.0  0.41909  0.17785  0.62871  1.0000
  H   H98       1.0  0.36495  0.11844  0.66072  1.0000
  C   C61       1.0  0.42242  0.36132  0.71940  1.0000
  C   C62       1.0  0.32502  0.20467  0.95881  1.0000
  H   H99       1.0  0.37886  0.25313  0.93156  1.0000
  H   H100      1.0  0.51306  0.08301  0.91412  1.0000
  S   S23       1.0  0.32571  0.34101  0.86390  1.0000
  N   N5        1.0  0.16252  0.31991  0.92105  1.0000
  H   H101      1.0  0.33692  0.19672  0.69349  1.0000
  H   H102      1.0  0.49674  0.07764  0.55521  1.0000
  H   H103      1.0  0.31923  0.18064  0.49638  1.0000
  C   C63       1.0  0.22833  0.31666  0.93247  1.0000
  C   C64       1.0  0.28521  0.10877  0.53147  1.0000
  C   C65       1.0  0.16808  0.31622  0.78241  1.0000
  C   C66       1.0  0.20083  0.31036  0.79023  1.0000
  C   C67       1.0  0.23420  0.33908  0.80988  1.0000
  H   H104      1.0  0.35581  0.26290  0.67274  1.0000
  H   H105      1.0  0.20009  0.28320  0.78146  1.0000
  H   H106      1.0  0.25886  0.33390  0.81623  1.0000
  C   C68       1.0  0.54660  0.04756  0.47010  1.0000
  C   C69       1.0  0.20549  0.34036  0.93449  1.0000
  C   C70       1.0  0.38212  0.13058  0.53877  1.0000
  H   H107      1.0  0.41601  0.07503  0.86638  1.0000
  H   H108      1.0  0.26179  0.26702  0.77065  1.0000
  H   H109      1.0  0.40502  0.26546  0.70728  1.0000
  N   N6        1.0  0.32206  0.23651  0.72337  1.0000
  C   C71       1.0  0.35809  0.25494  0.74856  1.0000
  C   C72       1.0  0.28644  0.23320  0.74404  1.0000
  S   S24       1.0  0.44580  0.35265  0.58500  1.0000
  C   C73       1.0  0.33125  0.17172  0.47238  1.0000
  C   C74       1.0  0.28950  0.27321  0.75554  1.0000
  C   C75       1.0  0.33128  0.26280  0.68924  1.0000
  H   H110      1.0  0.25845  0.21631  0.72771  1.0000
  H   H111      1.0  0.28118  0.21530  0.77005  1.0000
  H   H112      1.0  0.22418  0.36823  0.91803  1.0000
  C   C76       1.0  0.30733  0.10447  0.49751  1.0000
  H   H113      1.0  0.11603  0.25291  0.84793  1.0000
  C   C77       1.0  0.34349  0.15286  0.95249  1.0000
  H   H114      1.0  0.12151  0.33898  0.89898  1.0000
  H   H115      1.0  0.31491  0.29013  0.77468  1.0000
  H   H116      1.0  0.29198  0.29240  0.73129  1.0000
  H   H117      1.0  0.20577  0.28872  0.48721  1.0000
  H   H118      1.0  0.31831  0.17772  0.76970  1.0000
  N   N7        1.0  0.34400  0.14197  0.48464  1.0000
  H   H119      1.0  0.45041  0.08837  0.52482  1.0000
  C   C78       1.0  0.15787  0.29456  0.88777  1.0000
  H   H120      1.0  0.36831  0.28708  0.75236  1.0000
  C   C79       1.0  0.18707  0.36110  0.47975  1.0000
  C   C80       1.0  0.37453  0.16007  0.51527  1.0000
  C   C81       1.0  0.15300  0.35200  0.90849  1.0000
  H   H121      1.0  0.40413  0.18281  0.50392  1.0000
  H   H122      1.0  0.27421  0.08180  0.54965  1.0000
  S   S25       1.0  0.07074  0.34300  0.74379  1.0000
  H   H123      1.0  0.40862  0.14782  0.55675  1.0000
  H   H124      1.0  0.35665  0.10412  0.94638  1.0000
  H   H125      1.0  0.31295  0.13418  0.94072  1.0000
  H   H126      1.0  0.34879  0.21110  0.90167  1.0000
  C   C82       1.0  0.26127  0.34304  0.49755  1.0000
  H   H127      1.0  0.23542  0.31358  0.90321  1.0000
  H   H128      1.0  0.09262  0.25289  0.89066  1.0000
  Fe  Fe10      1.0  0.28911  0.04168  0.69415  1.0000
  H   H129      1.0  0.36646  0.17723  0.53464  1.0000
  C   C83       1.0  0.31278  0.19547  0.71149  1.0000
  H   H130      1.0  0.19459  0.35272  0.50699  1.0000
  H   H131      1.0  0.28464  0.09246  0.47500  1.0000
  H   H132      1.0  0.25925  0.11217  0.52245  1.0000
  H   H133      1.0  0.33237  0.24559  0.91344  1.0000
  H   H134      1.0  0.38849  0.11069  0.52153  1.0000
  Fe  Fe11      1.0  0.38770  0.35310  0.58268  1.0000
  H   H135      1.0  0.10245  0.28704  0.94478  1.0000
  C   C84       1.0  0.43919  0.05582  0.52817  1.0000
  C   C85       1.0  0.30399  0.16449  0.74299  1.0000
  H   H136      1.0  0.30707  0.27447  0.63903  1.0000
  H   H137      1.0  0.28611  0.22252  0.64906  1.0000
  H   H138      1.0  0.17881  0.31334  0.86559  1.0000
  C   C86       1.0  0.39499  0.25233  0.73541  1.0000
  H   H139      1.0  0.35655  0.11245  0.55764  1.0000
  Fe  Fe12      1.0  0.35312  0.35569  0.92095  1.0000
  H   H140      1.0  0.42026  0.26968  0.75465  1.0000
  H   H141      1.0  0.31412  0.07987  0.50302  1.0000
  H   H142      1.0  0.27076  0.25304  0.67497  1.0000
  H   H143      1.0  0.31592  0.14443  0.73508  1.0000
  H   H144      1.0  0.39252  0.05307  0.93077  1.0000
  H   H145      1.0  0.48934  0.05244  0.61675  1.0000
  H   H146      1.0  0.21216  0.28691  0.94596  1.0000
  C   C87       1.0  0.34804  0.22977  0.92448  1.0000
  H   H147      1.0  0.30430  0.13434  0.54921  1.0000
  H   H148      1.0  0.10732  0.29324  0.85658  1.0000
  C   C88       1.0  0.29635  0.25195  0.66198  1.0000
  H   H149      1.0  0.27120  0.14598  0.74763  1.0000
  C   C89       1.0  0.48622  0.06013  0.89933  1.0000
  C   C90       1.0  0.13407  0.29632  0.95204  1.0000
  C   C91       1.0  0.41203  0.36462  0.68255  1.0000
  H   H150      1.0  0.25755  0.33354  0.94692  1.0000
  H   H151      1.0  0.48803  0.04551  0.51725  1.0000
  C   C92       1.0  0.16934  0.35150  0.79369  1.0000
  H   H152      1.0  0.36351  0.16765  0.92827  1.0000
  H   H153      1.0  0.52210  0.04517  0.86488  1.0000
  H   H154      1.0  0.14011  0.24198  0.94515  1.0000
  H   H155      1.0  0.41260  0.04424  0.54629  1.0000
  H   H156      1.0  0.54783  0.06346  0.56658  1.0000
  C   C93       1.0  0.05525  0.36000  0.52871  1.0000
  H   H157      1.0  0.46164  0.04747  0.92009  1.0000
  C   C94       1.0  0.47377  0.04926  0.54256  1.0000
  H   H158      1.0  0.42620  0.35803  0.66002  1.0000
  C   C95       1.0  0.38639  0.05013  0.87135  1.0000
  H   H159      1.0  0.14438  0.35637  0.78777  1.0000
  H   H160      1.0  0.44457  0.35218  0.72490  1.0000
  H   H161      1.0  0.25932  0.37065  0.49977  1.0000
  H   H162      1.0  0.15853  0.36148  0.48401  1.0000
  H   H163      1.0  0.13562  0.36983  0.96024  1.0000
  H   H164      1.0  0.17190  0.36872  0.88414  1.0000
  H   H165      1.0  0.42975  0.04332  0.49992  1.0000
  H   H166      1.0  0.38973  0.22704  0.47424  1.0000
  S   S26       1.0  0.38060  0.04435  0.79564  1.0000
  C   C96       1.0  0.40357  0.36872  0.74918  1.0000
  S   S27       1.0  0.05748  0.37046  0.64045  1.0000
  H   H167      1.0  0.32893  0.04169  0.54187  1.0000
  S   S28       1.0  0.34679  0.03999  0.69094  1.0000
  H   H168      1.0  0.42873  0.04227  0.64796  1.0000
  H   H169      1.0  0.37046  0.10807  0.46235  1.0000
  C   C97       1.0  0.07033  0.37519  0.22463  1.0000
  H   H170      1.0  0.19815  0.40636  0.16626  1.0000
  S   S29       1.0  0.09881  0.42627  0.35655  1.0000
  C   C98       1.0  0.51850  0.42265  0.39236  1.0000
  H   H171      1.0  0.11104  0.53371  0.98625  1.0000
  S   S30       1.0  0.11211  0.39697  0.43854  1.0000
  C   C99       1.0  0.54644  0.48139  0.96731  1.0000
  H   H172      1.0  0.26422  0.38564  0.22723  1.0000
  C   C100      1.0  0.07612  0.69595  0.03118  1.0000
  C   C101      1.0  0.07954  0.52403  0.98261  1.0000
  Fe  Fe13      1.0  0.11984  0.38481  0.37906  1.0000
  C   C102      1.0  0.07262  0.70393  0.09771  1.0000
  S   S31       1.0  0.53327  0.58275  0.42612  1.0000
  S   S32       1.0  0.10059  0.49359  0.43867  1.0000
  C   C103      1.0  0.46362  0.44480  0.28797  1.0000
  C   C104      1.0  0.45938  0.43807  0.02652  1.0000
  H   H173      1.0  0.54684  0.45128  0.39510  1.0000
  H   H174      1.0  0.44564  0.45979  0.29178  1.0000
  H   H175      1.0  0.08495  0.54743  0.39561  1.0000
  C   C105      1.0  0.52568  0.43516  0.07190  1.0000
  C   C106      1.0  0.18427  0.37752  0.15176  1.0000
  H   H176      1.0  0.30865  0.39708  0.40072  1.0000
  H   H177      1.0  0.24597  0.41211  0.19999  1.0000
  H   H178      1.0  0.53314  0.44299  0.04222  1.0000
  S   S33       1.0  0.17852  0.39020  0.35953  1.0000
  C   C107      1.0  0.42100  0.42212  0.00304  1.0000
  C   C108      1.0  0.08283  0.56745  0.37427  1.0000
  H   H179      1.0  0.11351  0.59727  0.05986  1.0000
  H   H180      1.0  0.23486  0.37643  0.40041  1.0000
  H   H181      1.0  0.39723  0.44062  0.13458  1.0000
  C   C109      1.0  0.44454  0.46027  0.36693  1.0000
  C   C110      1.0  0.42050  0.43289  0.12633  1.0000
  H   H182      1.0  0.51491  0.56274  0.97230  1.0000
  H   H183      1.0  0.48992  0.43612  0.11609  1.0000
  H   H184      1.0  0.54162  0.48750  0.34340  1.0000
  H   H185      1.0  0.47923  0.42959  0.01180  1.0000
  H   H186      1.0  0.13348  0.61650  0.40138  1.0000
  H   H187      1.0  0.54860  0.55236  0.33481  1.0000
  H   H188      1.0  0.44181  0.47990  0.34568  1.0000
  H   H189      1.0  0.08772  0.68695  0.00828  1.0000
  H   H190      1.0  0.40019  0.40435  0.39494  1.0000
  H   H191      1.0  0.40283  0.38929  0.00481  1.0000
  H   H192      1.0  0.44054  0.47259  0.07869  1.0000
  H   H193      1.0  0.45019  0.47711  0.39330  1.0000
  H   H194      1.0  0.21456  0.41303  0.10269  1.0000
  C   C111      1.0  0.08645  0.58470  0.07787  1.0000
  N   N8        1.0  0.47886  0.45268  0.35892  1.0000
  H   H195      1.0  0.40270  0.43615  0.01046  1.0000
  C   C112      1.0  0.20867  0.38431  0.11578  1.0000
  H   H196      1.0  0.23813  0.38627  0.12103  1.0000
  H   H197      1.0  0.37996  0.43239  0.37321  1.0000
  H   H198      1.0  0.06780  0.62775  0.29704  1.0000
  H   H199      1.0  0.45499  0.39829  0.39246  1.0000
  H   H200      1.0  0.39481  0.40426  0.34478  1.0000
  H   H201      1.0  0.44505  0.41918  0.26965  1.0000
  C   C113      1.0  0.49342  0.44457  0.08615  1.0000
  C   C114      1.0  0.47238  0.42873  0.32424  1.0000
  S   S34       1.0  0.08623  0.69761  0.14294  1.0000
  H   H202      1.0  0.42932  0.42979  0.97344  1.0000
  C   C115      1.0  0.52371  0.53999  0.97076  1.0000
  C   C116      1.0  0.42770  0.43992  0.08407  1.0000
  C   C117      1.0  0.48148  0.42865  0.39131  1.0000
  H   H203      1.0  0.51634  0.40445  0.41742  1.0000
  H   H204      1.0  0.39733  0.42551  0.07147  1.0000
  Fe  Fe14      1.0  0.08488  0.43299  0.41577  1.0000
  H   H205      1.0  0.06096  0.61321  0.04514  1.0000
  H   H206      1.0  0.49917  0.42566  0.31820  1.0000
  H   H207      1.0  0.31652  0.39273  0.05838  1.0000
  H   H208      1.0  0.44774  0.45250  0.14246  1.0000
  C   C118      1.0  0.25361  0.38798  0.19901  1.0000
  H   H209      1.0  0.47359  0.37381  0.03024  1.0000
  H   H210      1.0  0.47498  0.47130  0.02446  1.0000
  H   H211      1.0  0.40899  0.40120  0.13451  1.0000
  H   H212      1.0  0.17537  0.40432  0.22151  1.0000
  N   N9        1.0  0.45345  0.42474  0.06667  1.0000
  C   C119      1.0  0.06011  0.59632  0.30302  1.0000
  H   H213      1.0  0.44830  0.39725  0.32812  1.0000
  H   H214      1.0  0.24456  0.38740  0.32599  1.0000
  H   H215      1.0  0.50539  0.52039  0.30839  1.0000
  H   H216      1.0  0.10190  0.56732  0.35115  1.0000
  C   C120      1.0  0.17226  0.37718  0.23564  1.0000
  H   H217      1.0  0.52911  0.50262  0.38529  1.0000
  H   H218      1.0  0.08659  0.61170  0.41506  1.0000
  C   C121      1.0  0.40280  0.42280  0.37004  1.0000
  H   H219      1.0  0.20078  0.38311  0.24875  1.0000
  H   H220      1.0  0.51746  0.40364  0.07755  1.0000
  H   H221      1.0  0.48114  0.44262  0.41794  1.0000
  H   H222      1.0  0.50663  0.47770  0.08491  1.0000
  H   H223      1.0  0.27970  0.39779  0.18010  1.0000
  H   H224      1.0  0.50056  0.53854  0.35321  1.0000
  H   H225      1.0  0.49184  0.46521  0.27311  1.0000
  H   H226      1.0  0.10807  0.63280  0.36996  1.0000
  C   C122      1.0  0.10341  0.60958  0.39104  1.0000
  C   C123      1.0  0.43273  0.37991  0.07152  1.0000
  H   H227      1.0  0.10097  0.38206  0.22102  1.0000
  C   C124      1.0  0.52927  0.54108  0.45117  1.0000
  H   H228      1.0  0.08899  0.59646  0.30469  1.0000
  H   H229      1.0  0.06020  0.48738  0.36585  1.0000
  H   H230      1.0  0.08110  0.55497  0.08756  1.0000
  H   H231      1.0  0.07382  0.37691  0.28452  1.0000
  C   C125      1.0  0.51737  0.52723  0.33689  1.0000
  C   C126      1.0  0.08874  0.69408  0.06743  1.0000
  H   H232      1.0  0.32351  0.37380  0.99462  1.0000
  H   H233      1.0  0.09385  0.60510  0.10169  1.0000
  H   H234      1.0  0.51995  0.40614  0.36798  1.0000
  H   H235      1.0  0.05998  0.47255  0.01903  1.0000
  H   H236      1.0  0.11032  0.68402  0.07209  1.0000
  C   C127      1.0  0.51784  0.49169  0.35686  1.0000
  H   H237      1.0  0.25924  0.38995  0.44327  1.0000
  H   H238      1.0  0.46607  0.51675  0.46094  1.0000
  H   H239      1.0  0.10289  0.46278  0.95465  1.0000
  H   H240      1.0  0.15384  0.40674  0.92421  1.0000
  H   H241      1.0  0.07587  0.57319  0.72168  1.0000
  S   S35       1.0  0.10497  0.59014  0.93745  1.0000
  H   H242      1.0  0.11577  0.49722  0.64201  1.0000
  S   S36       1.0  0.45892  0.50145  0.92471  1.0000
  N   N10       1.0  0.50158  0.49092  0.61229  1.0000
  S   S37       1.0  0.10351  0.65898  0.85429  1.0000
  H   H243      1.0  0.08213  0.67834  0.78180  1.0000
  Fe  Fe15      1.0  0.41123  0.44249  0.90080  1.0000
  Fe  Fe16      1.0  0.08971  0.63600  0.91327  1.0000
  H   H244      1.0  0.45164  0.50906  0.56462  1.0000
  C   C128      1.0  0.49034  0.51329  0.63952  1.0000
  C   C129      1.0  0.05759  0.55268  0.60129  1.0000
  C   C130      1.0  0.49163  0.51225  0.46472  1.0000
  S   S38       1.0  0.51397  0.42596  0.50642  1.0000
  H   H245      1.0  0.20956  0.39187  0.47134  1.0000
  Fe  Fe17      1.0  0.32632  0.39962  0.86699  1.0000
  S   S39       1.0  0.34937  0.41184  0.92563  1.0000
  S   S40       1.0  0.38792  0.43631  0.84227  1.0000
  H   H246      1.0  0.47861  0.45809  0.56129  1.0000
  H   H247      1.0  0.18891  0.39832  0.94987  1.0000
  Fe  Fe18      1.0  0.45395  0.37544  0.52606  1.0000
  H   H248      1.0  0.43352  0.46019  0.65697  1.0000
  H   H249      1.0  0.08037  0.42502  0.79366  1.0000
  H   H250      1.0  0.07975  0.51922  0.68307  1.0000
  H   H251      1.0  0.41791  0.47637  0.59998  1.0000
  H   H252      1.0  0.53845  0.51729  0.82122  1.0000
  C   C131      1.0  0.50097  0.50588  0.94935  1.0000
  H   H253      1.0  0.20322  0.40720  0.82237  1.0000
  H   H254      1.0  0.47861  0.53120  0.62526  1.0000
  C   C132      1.0  0.15840  0.38318  0.93784  1.0000
  H   H255      1.0  0.44868  0.43405  0.60036  1.0000
  C   C133      1.0  0.51439  0.46549  0.63463  1.0000
  H   H256      1.0  0.44666  0.50458  0.68256  1.0000
  H   H257      1.0  0.51737  0.53555  0.65473  1.0000
  C   C134      1.0  0.53226  0.55147  0.56633  1.0000
  H   H258      1.0  0.54635  0.50468  0.56933  1.0000
  H   H259      1.0  0.06149  0.52723  0.87831  1.0000
  H   H260      1.0  0.45739  0.45511  0.49220  1.0000
  C   C135      1.0  0.07814  0.67568  0.72203  1.0000
  S   S41       1.0  0.11935  0.69779  0.93701  1.0000
  H   H261      1.0  0.08307  0.59915  0.66263  1.0000
  C   C136      1.0  0.08505  0.53078  0.65392  1.0000
  C   C137      1.0  0.43725  0.47845  0.57629  1.0000
  H   H262      1.0  0.10518  0.56295  0.47188  1.0000
  H   H263      1.0  0.41684  0.45853  0.55461  1.0000
  C   C138      1.0  0.07556  0.53821  0.47742  1.0000
  C   C139      1.0  0.37482  0.38031  0.74184  1.0000
  C   C140      1.0  0.48667  0.47732  0.48261  1.0000
  C   C141      1.0  0.53729  0.52037  0.58969  1.0000
  C   C142      1.0  0.51932  0.47075  0.48675  1.0000
  C   C143      1.0  0.45896  0.48705  0.66907  1.0000
  C   C144      1.0  0.23490  0.37382  0.82213  1.0000
  H   H264      1.0  0.51245  0.53748  0.54220  1.0000
  H   H265      1.0  0.52204  0.56897  0.58270  1.0000
  H   H266      1.0  0.09607  0.41351  0.95910  1.0000
  H   H267      1.0  0.54362  0.58660  0.84715  1.0000
  H   H268      1.0  0.34190  0.39227  0.69947  1.0000
  H   H269      1.0  0.47266  0.47738  0.69131  1.0000
  S   S42       1.0  0.27330  0.40789  0.85145  1.0000
  C   C145      1.0  0.46720  0.46408  0.58737  1.0000
  C   C146      1.0  0.06227  0.66764  0.75821  1.0000
  S   S43       1.0  0.07348  0.67295  0.64614  1.0000
  S   S44       1.0  0.41636  0.38688  0.89941  1.0000
  H   H270      1.0  0.11440  0.55881  0.65485  1.0000
  H   H271      1.0  0.51600  0.49971  0.86657  1.0000
  C   C147      1.0  0.20271  0.38024  0.81331  1.0000
  C   C148      1.0  0.09174  0.49142  0.88412  1.0000
  H   H272      1.0  0.53786  0.56325  0.89010  1.0000
  N   N11       1.0  0.06183  0.44744  0.88324  1.0000
  C   C149      1.0  0.09897  0.58810  0.59083  1.0000
  H   H273      1.0  0.11022  0.69203  0.71803  1.0000
  H   H274      1.0  0.09727  0.50939  0.60118  1.0000
  C   C150      1.0  0.38272  0.37546  0.67516  1.0000
  H   H275      1.0  0.11422  0.46728  0.82015  1.0000
  H   H276      1.0  0.12224  0.49772  0.87574  1.0000
  C   C151      1.0  0.55063  0.56520  0.86204  1.0000
  C   C152      1.0  0.09006  0.43580  0.82238  1.0000
  C   C153      1.0  0.09024  0.50010  0.63071  1.0000
  H   H277      1.0  0.48836  0.44093  0.64956  1.0000
  C   C154      1.0  0.36458  0.38382  0.70492  1.0000
  C   C155      1.0  0.07952  0.42555  0.90447  1.0000
  C   C156      1.0  0.08141  0.51976  0.86200  1.0000
  C   C157      1.0  0.06529  0.50000  0.46468  1.0000
  S   S45       1.0  0.36757  0.37803  0.62927  1.0000
  H   H278      1.0  0.12368  0.58142  0.59564  1.0000
  H   H279      1.0  0.51674  0.43117  0.58689  1.0000
  H   H280      1.0  0.10516  0.61583  0.60529  1.0000
  H   H281      1.0  0.10951  0.54797  0.85586  1.0000
  C   C158      1.0  0.52466  0.52360  0.84515  1.0000
  H   H282      1.0  0.49574  0.45055  0.93073  1.0000
  H   H283      1.0  0.49671  0.52176  0.83396  1.0000
  H   H284      1.0  0.11026  0.43463  0.89443  1.0000
  H   H285      1.0  0.06173  0.39286  0.89967  1.0000
  H   H286      1.0  0.35992  0.38587  0.76458  1.0000
  H   H287      1.0  0.09931  0.59455  0.56066  1.0000
  H   H288      1.0  0.09633  0.50233  0.91309  1.0000
  H   H289      1.0  0.06356  0.46993  0.63252  1.0000
  C   C159      1.0  0.53370  0.44524  0.61240  1.0000
  H   H290      1.0  0.10182  0.41684  0.83436  1.0000
  Fe  Fe19      1.0  0.38864  0.37828  0.84259  1.0000
  C   C160      1.0  0.51266  0.47671  0.94747  1.0000
  C   C161      1.0  0.06791  0.54663  0.95995  1.0000
  C   C162      1.0  0.08294  0.43126  0.94701  1.0000
  H   H291      1.0  0.06423  0.38008  0.50503  1.0000
  C   C163      1.0  0.06395  0.37561  0.56472  1.0000
  H   H292      1.0  0.07988  0.40761  0.56848  1.0000
  H   H293      1.0  0.05579  0.57425  0.50635  1.0000
  S   S46       1.0  0.39780  0.37982  0.52510  1.0000
  H   H294      1.0  0.53430  0.42141  0.62977  1.0000
  H   H295      1.0  0.53619  0.48347  0.65661  1.0000
  H   H296      1.0  0.06806  0.50839  0.83454  1.0000
  Fe  Fe20      1.0  0.05824  0.69186  0.93374  1.0000
  C   C164      1.0  0.05363  0.43149  0.84427  1.0000
  H   H297      1.0  0.14258  0.77788  0.29820  1.0000
  C   C165      1.0  0.11735  0.83517  0.37862  1.0000
  H   H298      1.0  0.11808  0.85561  0.35611  1.0000
  S   S47       1.0  0.12223  0.83662  0.26818  1.0000
  C   C166      1.0  0.18120  0.76870  0.18904  1.0000
  H   H299      1.0  0.09677  0.79302  0.44422  1.0000
  Fe  Fe21      1.0  0.32665  0.91437  0.37212  1.0000
  S   S48       1.0  0.32642  0.97262  0.36783  1.0000
  S   S49       1.0  0.27461  0.85441  0.35552  1.0000
  Fe  Fe22      1.0  0.41132  0.95372  0.40667  1.0000
  S   S50       1.0  0.41691  0.01447  0.40425  1.0000
  H   H300      1.0  0.45295  0.98092  0.99179  1.0000
  Fe  Fe23      1.0  0.35346  0.98394  0.42512  1.0000
  Fe  Fe24      1.0  0.38957  0.99680  0.34750  1.0000
  C   C167      1.0  0.19146  0.89280  0.19254  1.0000
  S   S51       1.0  0.34931  0.92382  0.43093  1.0000
  S   S52       1.0  0.38846  0.93796  0.34817  1.0000
  Fe  Fe25      1.0  0.07423  0.77670  0.24672  1.0000
  C   C168      1.0  0.24373  0.88118  0.11798  1.0000
  C   C169      1.0  0.39943  0.01826  0.25494  1.0000
  N   N12       1.0  0.15982  0.83416  0.43457  1.0000
  H   H301      1.0  0.23217  0.90301  0.03078  1.0000
  C   C170      1.0  0.36502  0.98106  0.25132  1.0000
  C   C171      1.0  0.35035  0.96609  0.21582  1.0000
  C   C172      1.0  0.37003  0.98803  0.18380  1.0000
  H   H302      1.0  0.19616  0.76690  0.21486  1.0000
  C   C173      1.0  0.49056  0.96187  0.96412  1.0000
  H   H303      1.0  0.34936  0.96412  0.27585  1.0000
  H   H304      1.0  0.32346  0.93766  0.21327  1.0000
  C   C174      1.0  0.27093  0.84034  0.22675  1.0000
  C   C175      1.0  0.20867  0.80542  0.16482  1.0000
  H   H305      1.0  0.23692  0.85403  0.10216  1.0000
  H   H306      1.0  0.20429  0.90149  0.22069  1.0000
  H   H307      1.0  0.08965  0.82623  0.39481  1.0000
  H   H308      1.0  0.49744  0.98612  0.29667  1.0000
  C   C176      1.0  0.23874  0.88936  0.00671  1.0000
  H   H309      1.0  0.19233  0.80179  0.13822  1.0000
  H   H310      1.0  0.29985  0.86843  0.22366  1.0000
  H   H311      1.0  0.16145  0.82959  0.20185  1.0000
  H   H312      1.0  0.20305  0.78591  0.33118  1.0000
  C   C177      1.0  0.23518  0.84788  0.22090  1.0000
  C   C178      1.0  0.17027  0.77365  0.44868  1.0000
  C   C179      1.0  0.16429  0.84102  0.29254  1.0000
  C   C180      1.0  0.19602  0.87920  0.30050  1.0000
  C   C181      1.0  0.23035  0.88383  0.31923  1.0000
  C   C182      1.0  0.23299  0.85022  0.33046  1.0000
  C   C183      1.0  0.20125  0.81206  0.32251  1.0000
  C   C184      1.0  0.16694  0.80743  0.30380  1.0000
  H   H313      1.0  0.19407  0.90533  0.29208  1.0000
  H   H314      1.0  0.25457  0.91335  0.32517  1.0000
  C   C185      1.0  0.18421  0.85099  0.18194  1.0000
  N   N13       1.0  0.22062  0.84550  0.18158  1.0000
  C   C186      1.0  0.25403  0.87764  0.15884  1.0000
  H   H315      1.0  0.32326  0.02829  0.24933  1.0000
  H   H316      1.0  0.16214  0.89217  0.19310  1.0000
  H   H317      1.0  0.27023  0.90650  0.10454  1.0000
  H   H318      1.0  0.26544  0.90741  0.17176  1.0000
  S   S53       1.0  0.45922  0.94139  0.43071  1.0000
  S   S54       1.0  0.39052  0.98919  0.03637  1.0000
  H   H319      1.0  0.17313  0.74116  0.17320  1.0000
  H   H320      1.0  0.19028  0.81169  0.39931  1.0000
  S   S55       1.0  0.35033  0.96871  0.13965  1.0000
  H   H321      1.0  0.27119  0.90743  0.00018  1.0000
  H   H322      1.0  0.28043  0.87280  0.15829  1.0000
  H   H323      1.0  0.21864  0.88766  0.11541  1.0000
  H   H324      1.0  0.21054  0.91612  0.17204  1.0000
  H   H325      1.0  0.11551  0.80884  0.36461  1.0000
  C   C187      1.0  0.50880  0.00772  0.31978  1.0000
  H   H326      1.0  0.27092  0.81798  0.20779  1.0000
  H   H327      1.0  0.21058  0.82767  0.23983  1.0000
  H   H328      1.0  0.24505  0.87796  0.23247  1.0000
  H   H329      1.0  0.15275  0.76806  0.19599  1.0000
  Fe  Fe26      1.0  0.05692  0.71394  0.18843  1.0000
  C   C188      1.0  0.48312  0.98913  0.98351  1.0000
  H   H330      1.0  0.23531  0.80280  0.15691  1.0000
  H   H331      1.0  0.53530  0.93900  0.13642  1.0000
  H   H332      1.0  0.48403  0.93704  0.08120  1.0000
  C   C189      1.0  0.15564  0.85730  0.40227  1.0000
  H   H333      1.0  0.16879  0.84367  0.15456  1.0000
  H   H334      1.0  0.48434  0.95811  0.14277  1.0000
  H   H335      1.0  0.23975  0.89016  0.41172  1.0000
  C   C190      1.0  0.23690  0.87634  0.43955  1.0000
  H   H336      1.0  0.29596  0.01308  0.20729  1.0000
  H   H337      1.0  0.13870  0.78013  0.40279  1.0000
  H   H338      1.0  0.51594  0.92380  0.02934  1.0000
  H   H339      1.0  0.49265  0.03353  0.10238  1.0000
  C   C191      1.0  0.53410  0.93979  0.05394  1.0000
  Fe  Fe27      1.0  0.36029  0.01958  0.00767  1.0000
  S   S56       1.0  0.33998  0.03404  0.06100  1.0000
  H   H340      1.0  0.50744  0.96021  0.35182  1.0000
  H   H341      1.0  0.15726  0.88553  0.41164  1.0000
  C   C192      1.0  0.51429  0.96153  0.07296  1.0000
  Fe  Fe28      1.0  0.37610  0.00980  0.08947  1.0000
  H   H342      1.0  0.52831  0.93226  0.39394  1.0000
  H   H343      1.0  0.51970  0.00240  0.37788  1.0000
  C   C193      1.0  0.52654  0.99325  0.35097  1.0000
  H   H344      1.0  0.48323  0.01029  0.33120  1.0000
  H   H345      1.0  0.50867  0.97875  0.05110  1.0000
  C   C194      1.0  0.51155  0.01859  0.45276  1.0000
  H   H346      1.0  0.26926  0.82801  0.25522  1.0000
  H   H347      1.0  0.18117  0.86692  0.38272  1.0000
  H   H348      1.0  0.52951  0.03788  0.30885  1.0000
  H   H349      1.0  0.49238  0.02745  0.43821  1.0000
  C   C195      1.0  0.16513  0.80065  0.41953  1.0000
  H   H350      1.0  0.24379  0.85153  0.43764  1.0000
  S   S57       1.0  0.08065  0.72179  0.24668  1.0000
  C   C196      1.0  0.51483  0.02669  0.99255  1.0000
  H   H351      1.0  0.23184  0.85934  0.01659  1.0000
  H   H352      1.0  0.20272  0.81065  0.97912  1.0000
  H   H353      1.0  0.53476  0.91683  0.07251  1.0000
  H   H354      1.0  0.18926  0.76206  0.43685  1.0000
  H   H355      1.0  0.26033  0.89942  0.45736  1.0000
  C   C197      1.0  0.40482  0.02491  0.18755  1.0000
  C   C198      1.0  0.12316  0.81642  0.45901  1.0000
  H   H356      1.0  0.14700  0.82310  0.00339  1.0000
  H   H357      1.0  0.27506  0.85693  0.96971  1.0000
  H   H358      1.0  0.18547  0.88789  0.98427  1.0000
  N   N14       1.0  0.53549  0.98785  0.10575  1.0000
  H   H359      1.0  0.13304  0.77277  0.99258  1.0000
  C   C199      1.0  0.19552  0.86250  0.45728  1.0000
  C   C200      1.0  0.21317  0.88904  0.97339  1.0000
  S   S58       1.0  0.05533  0.77141  0.18686  1.0000
  C   C201      1.0  0.14359  0.80297  0.98025  1.0000
  C   C202      1.0  0.50179  0.97844  0.45387  1.0000
  H   H360      1.0  0.14068  0.74803  0.45663  1.0000
  H   H361      1.0  0.10472  0.86252  0.45269  1.0000
  C   C203      1.0  0.47601  0.00176  0.11137  1.0000
  H   H362      1.0  0.45957  0.98306  0.08736  1.0000
  C   C204      1.0  0.50384  0.98830  0.13034  1.0000
  H   H363      1.0  0.45304  0.99910  0.13169  1.0000
  H   H364      1.0  0.06461  0.74746  0.39849  1.0000
  H   H365      1.0  0.51755  0.00878  0.15411  1.0000
  S   S59       1.0  0.41696  0.03920  0.29889  1.0000
  C   C205      1.0  0.30948  0.03803  0.22730  1.0000
  H   H366      1.0  0.55214  0.95294  0.31347  1.0000
  H   H367      1.0  0.36777  0.92463  0.90110  1.0000
  S   S60       1.0  0.53690  0.93788  0.92641  1.0000
  S   S61       1.0  0.18521  0.77348  0.85956  1.0000
  Fe  Fe29      1.0  0.24643  0.96127  0.73710  1.0000
  S   S62       1.0  0.30106  0.95420  0.73650  1.0000
  S   S63       1.0  0.18767  0.91333  0.76151  1.0000
  Fe  Fe30      1.0  0.30757  0.97531  0.67727  1.0000
  S   S64       1.0  0.31731  0.94054  0.63248  1.0000
  C   C206      1.0  0.24177  0.86643  0.92355  1.0000
  S   S65       1.0  0.25059  0.97801  0.67661  1.0000
  C   C207      1.0  0.19861  0.87217  0.64473  1.0000
  C   C208      1.0  0.52961  0.97214  0.95299  1.0000
  C   C209      1.0  0.52727  0.96755  0.47268  1.0000
  H   H368      1.0  0.08694  0.75299  0.69355  1.0000
  C   C210      1.0  0.32313  0.99859  0.84776  1.0000
  C   C211      1.0  0.09969  0.77716  0.71427  1.0000
  H   H369      1.0  0.08360  0.82953  0.49157  1.0000
  N   N15       1.0  0.46214  0.99375  0.86393  1.0000
  C   C212      1.0  0.31796  0.95895  0.58740  1.0000
  C   C213      1.0  0.31798  0.93698  0.55671  1.0000
  C   C214      1.0  0.32258  0.95305  0.52065  1.0000
  C   C215      1.0  0.32721  0.99116  0.51500  1.0000
  C   C216      1.0  0.32564  0.01242  0.54570  1.0000
  C   C217      1.0  0.32100  0.99641  0.58179  1.0000
  H   H370      1.0  0.31547  0.90790  0.56089  1.0000
  H   H371      1.0  0.32287  0.93597  0.49741  1.0000
  C   C218      1.0  0.30958  0.98664  0.88440  1.0000
  H   H372      1.0  0.19551  0.84969  0.48517  1.0000
  C   C219      1.0  0.18739  0.87501  0.78930  1.0000
  C   C220      1.0  0.15068  0.84311  0.80135  1.0000
  C   C221      1.0  0.14946  0.81130  0.82221  1.0000
  C   C222      1.0  0.18502  0.81141  0.83150  1.0000
  C   C223      1.0  0.22167  0.84334  0.81952  1.0000
  C   C224      1.0  0.22287  0.87507  0.79867  1.0000
  H   H373      1.0  0.12308  0.84284  0.79424  1.0000
  H   H374      1.0  0.12105  0.78692  0.83120  1.0000
  H   H375      1.0  0.24934  0.84375  0.82667  1.0000
  H   H376      1.0  0.25131  0.89968  0.79023  1.0000
  H   H377      1.0  0.13471  0.86793  0.49364  1.0000
  H   H378      1.0  0.19133  0.85314  0.61993  1.0000
  H   H379      1.0  0.17514  0.88052  0.64972  1.0000
  H   H380      1.0  0.45234  0.93659  0.84301  1.0000
  H   H381      1.0  0.32083  0.01352  0.60535  1.0000
  H   H382      1.0  0.22991  0.91960  0.96102  1.0000
  H   H383      1.0  0.12707  0.80042  0.48331  1.0000
  H   H384      1.0  0.12528  0.82420  0.67372  1.0000
  H   H385      1.0  0.42340  0.95105  0.79949  1.0000
  H   H386      1.0  0.44340  0.03111  0.83444  1.0000
  N   N16       1.0  0.17275  0.81142  0.68962  1.0000
  H   H387      1.0  0.16501  0.76273  0.72639  1.0000
  H   H388      1.0  0.26197  0.89915  0.91979  1.0000
  S   S66       1.0  0.31715  0.98913  0.96031  1.0000
  H   H389      1.0  0.39141  0.93756  0.51413  1.0000
  Fe  Fe31      1.0  0.12672  0.72023  0.87808  1.0000
  H   H390      1.0  0.51931  0.95248  0.82922  1.0000
  C   C225      1.0  0.16190  0.78242  0.65818  1.0000
  H   H391      1.0  0.22653  0.90032  0.63804  1.0000
  H   H392      1.0  0.51993  0.93654  0.47371  1.0000
  C   C226      1.0  0.20597  0.85272  0.67945  1.0000
  C   C227      1.0  0.13626  0.81517  0.69870  1.0000
  H   H393      1.0  0.07575  0.78442  0.72108  1.0000
  H   H394      1.0  0.14635  0.78905  0.63525  1.0000
  H   H395      1.0  0.51270  0.99072  0.80698  1.0000
  C   C228      1.0  0.49508  0.00272  0.56740  1.0000
  Fe  Fe32      1.0  0.33376  0.01919  0.75066  1.0000
  H   H396      1.0  0.43488  0.97800  0.91871  1.0000
  H   H397      1.0  0.14387  0.83921  0.71929  1.0000
  H   H398      1.0  0.16904  0.89750  0.87330  1.0000
  H   H399      1.0  0.25173  0.81604  0.93736  1.0000
  H   H400      1.0  0.49931  0.99564  0.53849  1.0000
  H   H401      1.0  0.48024  0.95188  0.88414  1.0000
  N   N17       1.0  0.20404  0.85813  0.94405  1.0000
  H   H402      1.0  0.18574  0.78954  0.47415  1.0000
  H   H403      1.0  0.42743  0.99186  0.77360  1.0000
  C   C229      1.0  0.26714  0.84900  0.94035  1.0000
  H   H404      1.0  0.29563  0.86108  0.92452  1.0000
  C   C230      1.0  0.37297  0.03788  0.90793  1.0000
  C   C231      1.0  0.19298  0.89916  0.89198  1.0000
  C   C232      1.0  0.46073  0.02598  0.60853  1.0000
  H   H405      1.0  0.14905  0.85907  0.93067  1.0000
  C   C233      1.0  0.42578  0.97609  0.88905  1.0000
  H   H406      1.0  0.10656  0.76607  0.74037  1.0000
  C   C234      1.0  0.17563  0.86093  0.91643  1.0000
  H   H407      1.0  0.23923  0.79742  0.70369  1.0000
  H   H408      1.0  0.23030  0.78920  0.75252  1.0000
  H   H409      1.0  0.18802  0.76693  0.61227  1.0000
  S   S67       1.0  0.33610  0.01334  0.47024  1.0000
  C   C235      1.0  0.47556  0.96343  0.85716  1.0000
  C   C236      1.0  0.51439  0.97821  0.83440  1.0000
  C   C237      1.0  0.18376  0.79578  0.72391  1.0000
  H   H410      1.0  0.27968  0.96240  0.88924  1.0000
  H   H411      1.0  0.43319  0.98303  0.49806  1.0000
  H   H412      1.0  0.21213  0.87339  0.70311  1.0000
  C   C238      1.0  0.33456  0.00593  0.91464  1.0000
  C   C239      1.0  0.19590  0.77715  0.64136  1.0000
  C   C240      1.0  0.11138  0.84633  0.47482  1.0000
  S   S68       1.0  0.27867  0.02534  0.75500  1.0000
  H   H413      1.0  0.23488  0.85347  0.67459  1.0000
  C   C241      1.0  0.42389  0.97813  0.55909  1.0000
  C   C242      1.0  0.22781  0.80586  0.72810  1.0000
  H   H414      1.0  0.17722  0.80753  0.74936  1.0000
  H   H415      1.0  0.20349  0.92655  0.90859  1.0000
  H   H416      1.0  0.21741  0.90203  0.87362  1.0000
  C   C243      1.0  0.49587  0.02856  0.88363  1.0000
  H   H417      1.0  0.22479  0.80513  0.63919  1.0000
  H   H418      1.0  0.19992  0.75438  0.65725  1.0000
  H   H419      1.0  0.54105  0.00016  0.84996  1.0000
  H   H420      1.0  0.23443  0.85406  0.89508  1.0000
  H   H421      1.0  0.16356  0.83516  0.89721  1.0000
  H   H422      1.0  0.13901  0.75198  0.66750  1.0000
  H   H423      1.0  0.17705  0.79437  0.93686  1.0000
  H   H424      1.0  0.24743  0.83807  0.73390  1.0000
  H   H425      1.0  0.48626  0.97491  0.58400  1.0000
  H   H426      1.0  0.45624  0.00126  0.62796  1.0000
  C   C244      1.0  0.36176  0.03022  0.84116  1.0000
  C   C245      1.0  0.42202  0.97893  0.80216  1.0000
  H   H427      1.0  0.41603  0.95390  0.58020  1.0000
  H   H428      1.0  0.39147  0.97204  0.81080  1.0000
  H   H429      1.0  0.40601  0.91184  0.89306  1.0000
  H   H430      1.0  0.39772  0.01297  0.61137  1.0000
  H   H431      1.0  0.40970  0.99347  0.88675  1.0000
  C   C246      1.0  0.45393  0.00951  0.82830  1.0000
  N   N18       1.0  0.46283  0.01454  0.56900  1.0000
  H   H432      1.0  0.11956  0.80012  0.96112  1.0000
  H   H433      1.0  0.38370  0.92483  0.85469  1.0000
  H   H434      1.0  0.30377  0.98318  0.82464  1.0000
  H   H435      1.0  0.44046  0.94452  0.52029  1.0000
  S   S69       1.0  0.06780  0.71930  0.87661  1.0000
  H   H436      1.0  0.50701  0.01785  0.90723  1.0000
  C   C247      1.0  0.39434  0.93183  0.88360  1.0000
  H   H437      1.0  0.46590  0.93284  0.95728  1.0000
  H   H438      1.0  0.19418  0.89018  0.46324  1.0000
  H   H439      1.0  0.39856  0.98409  0.55984  1.0000
  C   C248      1.0  0.42272  0.96028  0.52064  1.0000
  H   H440      1.0  0.48174  0.02790  0.81195  1.0000
  C   C249      1.0  0.18340  0.81606  0.95962  1.0000
  C   C250      1.0  0.53711  0.03414  0.58068  1.0000
  H   H441      1.0  0.53835  0.03763  0.61126  1.0000
  C   C251      1.0  0.42826  0.03713  0.61762  1.0000
  Fe  Fe33      1.0  0.93843  0.29967  0.07456  1.0000
  S   S70       1.0  0.99417  0.29437  0.07674  1.0000
  S   S71       1.0  0.87654  0.25171  0.09298  1.0000
  N   N19       1.0  0.79094  0.11281  0.04116  1.0000
  Fe  Fe34      1.0  0.00881  0.32574  0.02106  1.0000
  H   H442      1.0  0.84322  0.07664  0.09530  1.0000
  S   S72       1.0  0.95035  0.32576  0.01679  1.0000
  H   H443      1.0  0.92275  0.22793  0.29471  1.0000
  H   H444      1.0  0.62009  0.07091  0.06725  1.0000
  S   S73       1.0  0.85289  0.10251  0.18999  1.0000
  C   C252      1.0  0.79918  0.15522  0.03615  1.0000
  H   H445      1.0  0.81891  0.05472  0.05269  1.0000
  H   H446      1.0  0.98903  0.19179  0.25723  1.0000
  Fe  Fe35      1.0  0.02275  0.35599  0.10045  1.0000
  C   C253      1.0  0.95619  0.17390  0.26011  1.0000
  N   N20       1.0  0.95035  0.23633  0.24039  1.0000
  H   H447      1.0  0.85298  0.12882  0.05031  1.0000
  H   H448      1.0  0.79026  0.05396  0.09290  1.0000
  H   H449      1.0  0.94860  0.27834  0.27894  1.0000
  H   H450      1.0  0.01374  0.28635  0.29449  1.0000
  H   H451      1.0  0.93824  0.27980  0.21265  1.0000
  H   H452      1.0  0.88094  0.24548  0.25848  1.0000
  C   C254      1.0  0.74702  0.09902  0.09989  1.0000
  C   C255      1.0  0.87078  0.21082  0.12029  1.0000
  C   C256      1.0  0.83561  0.18899  0.14122  1.0000
  C   C257      1.0  0.82960  0.15554  0.16254  1.0000
  C   C258      1.0  0.85864  0.14352  0.16280  1.0000
  C   C259      1.0  0.89372  0.16523  0.14170  1.0000
  C   C260      1.0  0.89980  0.19877  0.12051  1.0000
  H   H453      1.0  0.81303  0.19816  0.14109  1.0000
  H   H454      1.0  0.80267  0.13929  0.17896  1.0000
  H   H455      1.0  0.91623  0.15597  0.14164  1.0000
  H   H456      1.0  0.92673  0.21503  0.10409  1.0000
  C   C261      1.0  0.93318  0.19169  0.23938  1.0000
  C   C262      1.0  0.75045  0.08874  0.05925  1.0000
  H   H457      1.0  0.92812  0.18057  0.21052  1.0000
  C   C263      1.0  0.95008  0.25006  0.27948  1.0000
  H   H458      1.0  0.82098  0.10858  0.99181  1.0000
  H   H459      1.0  0.99271  0.23402  0.30662  1.0000
  H   H460      1.0  0.68162  0.06391  0.38254  1.0000
  C   C264      1.0  0.92406  0.24688  0.21675  1.0000
  H   H461      1.0  0.74068  0.05645  0.05849  1.0000
  H   H462      1.0  0.79609  0.13138  0.45133  1.0000
  H   H463      1.0  0.75459  0.13058  0.10300  1.0000
  C   C265      1.0  0.83723  0.18343  0.01388  1.0000
  H   H464      1.0  0.60644  0.06964  0.40300  1.0000
  H   H465      1.0  0.76579  0.09231  0.11897  1.0000
  H   H466      1.0  0.86485  0.18765  0.02790  1.0000
  H   H467      1.0  0.83968  0.21347  0.01223  1.0000
  H   H468      1.0  0.98041  0.26564  0.33278  1.0000
  H   H469      1.0  0.86327  0.19941  0.23297  1.0000
  H   H470      1.0  0.02869  0.26610  0.17573  1.0000
  C   C266      1.0  0.88118  0.23240  0.23130  1.0000
  H   H471      1.0  0.77340  0.15617  0.02279  1.0000
  H   H472      1.0  0.62898  0.05649  0.34273  1.0000
  C   C267      1.0  0.82360  0.11311  0.06484  1.0000
  C   C268      1.0  0.99208  0.25843  0.22434  1.0000
  S   S74       1.0  0.69346  0.04174  0.30968  1.0000
  H   H473      1.0  0.98743  0.35534  0.17460  1.0000
  H   H474      1.0  0.57864  0.06564  0.98902  1.0000
  H   H475      1.0  0.92040  0.23443  0.18850  1.0000
  H   H476      1.0  0.98458  0.21819  0.17786  1.0000
  H   H477      1.0  0.72718  0.09204  0.04347  1.0000
  S   S75       1.0  0.96612  0.35988  0.10134  1.0000
  H   H478      1.0  0.90257  0.17621  0.25155  1.0000
  H   H479      1.0  0.61286  0.10655  0.36934  1.0000
  H   H480      1.0  0.56324  0.06864  0.38082  1.0000
  H   H481      1.0  0.98201  0.26268  0.16437  1.0000
  H   H482      1.0  0.71557  0.08011  0.10937  1.0000
  H   H483      1.0  0.80265  0.16961  0.06354  1.0000
  H   H484      1.0  0.80800  0.18215  0.44751  1.0000
  H   H485      1.0  0.93552  0.19728  0.42341  1.0000
  C   C269      1.0  0.98646  0.25911  0.30430  1.0000
  H   H486      1.0  0.01353  0.25256  0.24019  1.0000
  C   C270      1.0  0.99640  0.25036  0.18323  1.0000
  H   H487      1.0  0.94775  0.16884  0.28995  1.0000
  H   H488      1.0  0.82765  0.13033  0.09037  1.0000
  H   H489      1.0  0.94840  0.14469  0.24758  1.0000
  H   H490      1.0  0.00405  0.29109  0.22679  1.0000
  H   H491      1.0  0.59193  0.06175  0.31870  1.0000
  C   C271      1.0  0.81805  0.07197  0.07674  1.0000
  H   H492      1.0  0.86551  0.24232  0.21132  1.0000
  C   C272      1.0  0.79056  0.09425  0.00445  1.0000
  H   H493      1.0  0.96070  0.35202  0.23774  1.0000
  C   C273      1.0  0.59426  0.07437  0.37656  1.0000
  H   H494      1.0  0.83631  0.17355  0.98496  1.0000
  C   C274      1.0  0.04606  0.36881  0.19337  1.0000
  H   H495      1.0  0.57253  0.05072  0.11755  1.0000
  C   C275      1.0  0.76111  0.09442  0.97517  1.0000
  S   S76       1.0  0.03687  0.30882  0.97442  1.0000
  S   S77       1.0  0.99460  0.35835  0.31002  1.0000
  H   H496      1.0  0.78234  0.06240  0.00844  1.0000
  H   H497      1.0  0.91830  0.21958  0.45527  1.0000
  H   H498      1.0  0.76722  0.12496  0.96771  1.0000
  C   C276      1.0  0.82144  0.16242  0.45097  1.0000
  C   C277      1.0  0.00653  0.36058  0.19830  1.0000
  H   H499      1.0  0.84068  0.16736  0.42638  1.0000
  Fe  Fe36      1.0  0.05005  0.34501  0.43327  1.0000
  C   C278      1.0  0.01540  0.36411  0.26540  1.0000
  C   C279      1.0  0.59714  0.04937  0.34475  1.0000
  H   H500      1.0  0.93871  0.31845  0.45920  1.0000
  H   H501      1.0  0.72952  0.07584  0.98419  1.0000
  C   C280      1.0  0.99135  0.35851  0.23418  1.0000
  C   C281      1.0  0.92801  0.19696  0.45322  1.0000
  H   H502      1.0  0.69964  0.05102  0.44511  1.0000
  S   S78       1.0  0.73488  0.05844  0.20667  1.0000
  H   H503      1.0  0.87932  0.13842  0.43935  1.0000
  C   C282      1.0  0.69802  0.04782  0.38548  1.0000
  Fe  Fe37      1.0  0.79117  0.05405  0.20831  1.0000
  C   C283      1.0  0.70882  0.04109  0.42106  1.0000
  Fe  Fe38      1.0  0.03826  0.37170  0.35684  1.0000
  C   C284      1.0  0.84554  0.17304  0.48749  1.0000
  Fe  Fe39      1.0  0.00835  0.30461  0.76558  1.0000
  S   S79       1.0  0.01179  0.24809  0.76755  1.0000
  S   S80       1.0  0.98172  0.32334  0.81159  1.0000
  H   H504      1.0  0.77835  0.10233  0.84410  1.0000
  Fe  Fe40      1.0  0.98772  0.23921  0.70926  1.0000
  S   S81       1.0  0.93867  0.17858  0.69054  1.0000
  S   S82       1.0  0.97947  0.29298  0.70944  1.0000
  Fe  Fe41      1.0  0.74700  0.10364  0.57075  1.0000
  H   H505      1.0  0.93293  0.22687  0.51968  1.0000
  S   S83       1.0  0.79808  0.16436  0.58659  1.0000
  H   H506      1.0  0.91279  0.13868  0.47247  1.0000
  C   C285      1.0  0.05110  0.35004  0.59583  1.0000
  C   C286      1.0  0.81168  0.15154  0.72494  1.0000
  S   S84       1.0  0.69146  0.04110  0.80475  1.0000
  H   H507      1.0  0.86231  0.08506  0.54305  1.0000
  C   C287      1.0  0.80450  0.11170  0.82533  1.0000
  S   S85       1.0  0.68495  0.07649  0.59498  1.0000
  S   S86       1.0  0.72474  0.09482  0.51201  1.0000
  H   H508      1.0  0.01986  0.28868  0.61448  1.0000
  H   H509      1.0  0.81023  0.04655  0.73243  1.0000
  S   S87       1.0  0.04905  0.27103  0.68349  1.0000
  H   H510      1.0  0.83156  0.32171  0.53539  1.0000
  C   C288      1.0  0.83666  0.10844  0.74932  1.0000
  H   H511      1.0  0.95965  0.33890  0.88261  1.0000
  C   C289      1.0  0.69813  0.04894  0.72878  1.0000
  C   C290      1.0  0.89908  0.17285  0.78988  1.0000
  H   H512      1.0  0.80682  0.08452  0.82028  1.0000
  C   C291      1.0  0.90067  0.17527  0.66052  1.0000
  C   C292      1.0  0.89841  0.20916  0.64957  1.0000
  C   C293      1.0  0.86648  0.20532  0.62733  1.0000
  C   C294      1.0  0.83650  0.16760  0.61599  1.0000
  C   C295      1.0  0.83870  0.13367  0.62696  1.0000
  C   C296      1.0  0.87091  0.13756  0.64880  1.0000
  H   H513      1.0  0.92113  0.23827  0.65837  1.0000
  H   H514      1.0  0.86494  0.23164  0.61891  1.0000
  H   H515      1.0  0.81583  0.10446  0.61843  1.0000
  H   H516      1.0  0.87247  0.11119  0.65715  1.0000
  C   C297      1.0  0.99520  0.31657  0.85675  1.0000
  C   C298      1.0  0.02180  0.30199  0.86277  1.0000
  H   H517      1.0  0.00563  0.26108  0.55094  1.0000
  C   C299      1.0  0.01930  0.31055  0.92947  1.0000
  C   C300      1.0  0.99262  0.32503  0.92334  1.0000
  C   C301      1.0  0.98029  0.32764  0.88713  1.0000
  H   H518      1.0  0.94020  0.29258  0.49987  1.0000
  S   S88       1.0  0.61507  0.07408  0.51121  1.0000
  H   H519      1.0  0.82191  0.09441  0.47214  1.0000
  H   H520      1.0  0.93592  0.29398  0.56139  1.0000
  H   H521      1.0  0.77557  0.05680  0.75605  1.0000
  H   H522      1.0  0.78984  0.07300  0.70816  1.0000
  H   H523      1.0  0.91115  0.30598  0.62165  1.0000
  H   H524      1.0  0.71296  0.08072  0.73332  1.0000
  H   H525      1.0  0.86004  0.11888  0.72725  1.0000
  H   H526      1.0  0.88785  0.15242  0.81410  1.0000
  N   N21       1.0  0.93212  0.34757  0.54989  1.0000
  H   H527      1.0  0.95586  0.20679  0.46965  1.0000
  H   H528      1.0  0.83222  0.15793  0.70108  1.0000
  C   C302      1.0  0.02190  0.29305  0.55466  1.0000
  H   H529      1.0  0.97782  0.36550  0.50705  1.0000
  C   C303      1.0  0.79702  0.12918  0.78946  1.0000
  H   H530      1.0  0.87812  0.32549  0.58296  1.0000
  H   H531      1.0  0.03348  0.29339  0.83949  1.0000
  H   H532      1.0  0.95727  0.30545  0.62552  1.0000
  S   S89       1.0  0.02054  0.29868  0.47872  1.0000
  H   H533      1.0  0.70523  0.05511  0.66917  1.0000
  C   C304      1.0  0.88717  0.32492  0.55375  1.0000
  C   C305      1.0  0.03337  0.29853  0.89911  1.0000
  N   N22       1.0  0.82812  0.14159  0.75921  1.0000
  H   H534      1.0  0.91234  0.15328  0.53476  1.0000
  H   H535      1.0  0.98149  0.33878  0.56573  1.0000
  C   C306      1.0  0.86654  0.17871  0.76982  1.0000
  C   C307      1.0  0.89585  0.15433  0.46474  1.0000
  H   H536      1.0  0.87439  0.07811  0.49594  1.0000
  Fe  Fe42      1.0  0.66263  0.06172  0.53610  1.0000
  H   H537      1.0  0.79323  0.15481  0.79810  1.0000
  C   C308      1.0  0.92827  0.31160  0.48850  1.0000
  C   C309      1.0  0.85123  0.07829  0.51408  1.0000
  H   H538      1.0  0.82425  0.16832  0.51051  1.0000
  S   S90       1.0  0.75050  0.04709  0.57303  1.0000
  C   C310      1.0  0.83640  0.10672  0.49931  1.0000
  H   H539      1.0  0.86837  0.14849  0.55564  1.0000
  H   H540      1.0  0.92284  0.20223  0.79996  1.0000
  H   H541      1.0  0.83102  0.13418  0.84042  1.0000
  C   C311      1.0  0.86412  0.34045  0.52967  1.0000
  H   H542      1.0  0.95818  0.35198  0.62698  1.0000
  H   H543      1.0  0.82553  0.04735  0.51454  1.0000
  C   C312      1.0  0.94317  0.32241  0.61362  1.0000
  C   C313      1.0  0.03038  0.30867  0.59071  1.0000
  H   H544      1.0  0.91380  0.16185  0.77041  1.0000
  C   C314      1.0  0.94907  0.32523  0.57111  1.0000
  Fe  Fe43      1.0  0.04221  0.32562  0.68734  1.0000
  H   H545      1.0  0.81179  0.10298  0.51820  1.0000
  N   N23       1.0  0.86762  0.15032  0.49561  1.0000
  H   H546      1.0  0.87501  0.29266  0.54773  1.0000
  C   C315      1.0  0.91094  0.20814  0.54106  1.0000
  H   H547      1.0  0.84953  0.09999  0.77316  1.0000
  H   H548      1.0  0.78259  0.12590  0.71645  1.0000
  H   H549      1.0  0.92782  0.21292  0.56744  1.0000
  H   H550      1.0  0.86581  0.20572  0.48654  1.0000
  C   C316      1.0  0.80420  0.18740  0.72799  1.0000
  H   H551      1.0  0.88213  0.19692  0.74462  1.0000
  H   H552      1.0  0.77976  0.18125  0.74787  1.0000
  H   H553      1.0  0.86014  0.19859  0.78735  1.0000
  H   H554      1.0  0.76721  0.10659  0.77893  1.0000
  H   H555      1.0  0.98197  0.33491  0.94629  1.0000
  C   C317      1.0  0.94472  0.35119  0.50971  1.0000
  C   C318      1.0  0.03406  0.31868  0.52358  1.0000
  H   H556      1.0  0.79442  0.19278  0.70040  1.0000
  H   H557      1.0  0.89514  0.29461  0.48788  1.0000
  H   H558      1.0  0.88908  0.21869  0.54588  1.0000
  H   H559      1.0  0.83159  0.21536  0.73548  1.0000
  C   C319      1.0  0.88956  0.16322  0.53219  1.0000
  C   C320      1.0  0.80061  0.06930  0.73580  1.0000
  H   H560      1.0  0.86830  0.33824  0.49953  1.0000
  H   H561      1.0  0.76434  0.08071  0.94934  1.0000
  H   H562      1.0  0.05313  0.28641  0.90367  1.0000
  H   H563      1.0  0.55399  0.07859  0.46905  1.0000
  H   H564      1.0  0.93664  0.37129  0.49384  1.0000
  H   H565      1.0  0.87227  0.37157  0.53646  1.0000
  H   H566      1.0  0.77477  0.60729  0.33384  1.0000
  Fe  Fe44      1.0  0.66078  0.65589  0.34925  1.0000
  S   S91       1.0  0.60003  0.65070  0.34381  1.0000
  S   S92       1.0  0.68626  0.63293  0.30535  1.0000
  Fe  Fe45      1.0  0.59275  0.63260  0.40427  1.0000
  S   S93       1.0  0.65158  0.63321  0.40845  1.0000
  Fe  Fe46      1.0  0.74231  0.62066  0.07422  1.0000
  S   S94       1.0  0.74443  0.67996  0.07402  1.0000
  S   S95       1.0  0.79326  0.61156  0.09574  1.0000
  Fe  Fe47      1.0  0.65888  0.57892  0.03705  1.0000
  S   S96       1.0  0.65525  0.63542  0.03506  1.0000
  S   S97       1.0  0.61124  0.51994  0.01326  1.0000
  Fe  Fe48      1.0  0.71931  0.66430  0.01625  1.0000
  Fe  Fe49      1.0  0.68047  0.64489  0.09304  1.0000
  H   H567      1.0  0.99041  0.62192  0.04643  1.0000
  S   S98       1.0  0.72192  0.60738  0.01483  1.0000
  S   S99       1.0  0.67943  0.58605  0.09661  1.0000
  S   S100      1.0  0.65671  0.66757  0.13868  1.0000
  Fe  Fe50      1.0  0.01597  0.68968  0.26359  1.0000
  S   S101      1.0  0.97281  0.43533  0.02148  1.0000
  H   H568      1.0  0.95851  0.48805  0.38096  1.0000
  S   S102      1.0  0.99248  0.64184  0.30824  1.0000
  H   H569      1.0  0.01315  0.50882  0.06994  1.0000
  C   C321      1.0  0.00329  0.64980  0.42028  1.0000
  C   C322      1.0  0.99142  0.63517  0.38420  1.0000
  C   C323      1.0  0.79930  0.68834  0.23088  1.0000
  H   H570      1.0  0.97054  0.60388  0.38023  1.0000
  C   C324      1.0  0.01431  0.59142  0.10527  1.0000
  C   C325      1.0  0.03515  0.58192  0.33916  1.0000
  H   H571      1.0  0.76767  0.61781  0.19047  1.0000
  C   C326      1.0  0.01437  0.54228  0.39668  1.0000
  C   C327      1.0  0.05123  0.58222  0.05481  1.0000
  H   H572      1.0  0.97120  0.55964  0.15016  1.0000
  H   H573      1.0  0.78489  0.58302  0.19697  1.0000
  H   H574      1.0  0.55523  0.45864  0.96577  1.0000
  H   H575      1.0  0.92118  0.66337  0.16149  1.0000
  C   C328      1.0  0.00169  0.52348  0.08914  1.0000
  C   C329      1.0  0.00648  0.66092  0.35331  1.0000
  C   C330      1.0  0.00997  0.47692  0.99688  1.0000
  H   H576      1.0  0.82710  0.63748  0.32586  1.0000
  C   C331      1.0  0.83693  0.68531  0.12891  1.0000
  H   H577      1.0  0.01734  0.52622  0.11599  1.0000
  H   H578      1.0  0.99191  0.62965  0.44382  1.0000
  H   H579      1.0  0.86502  0.63765  0.05134  1.0000
  H   H580      1.0  0.95785  0.53426  0.37183  1.0000
  C   C332      1.0  0.83382  0.64831  0.12128  1.0000
  C   C333      1.0  0.85760  0.69764  0.26668  1.0000
  C   C334      1.0  0.98774  0.59925  0.02623  1.0000
  C   C335      1.0  0.86446  0.64066  0.13310  1.0000
  C   C336      1.0  0.99836  0.49918  0.97381  1.0000
  H   H581      1.0  0.86232  0.61214  0.12725  1.0000
  H   H582      1.0  0.94132  0.48214  0.06830  1.0000
  C   C337      1.0  0.67527  0.63999  0.25912  1.0000
  C   C338      1.0  0.65431  0.66042  0.25115  1.0000
  H   H583      1.0  0.75569  0.58777  0.23293  1.0000
  C   C339      1.0  0.66250  0.65489  0.18474  1.0000
  C   C340      1.0  0.68294  0.63390  0.19268  1.0000
  C   C341      1.0  0.68842  0.62566  0.22976  1.0000
  C   C342      1.0  0.82963  0.66480  0.98455  1.0000
  C   C343      1.0  0.02897  0.47981  0.35928  1.0000
  H   H584      1.0  0.69447  0.62394  0.17033  1.0000
  H   H585      1.0  0.70316  0.60844  0.23564  1.0000
  H   H586      1.0  0.04106  0.60851  0.35563  1.0000
  C   C344      1.0  0.02742  0.51485  0.33931  1.0000
  H   H587      1.0  0.04280  0.57760  0.27924  1.0000
  C   C345      1.0  0.78856  0.64732  0.28658  1.0000
  C   C346      1.0  0.05069  0.48931  0.00108  1.0000
  C   C347      1.0  0.92336  0.64539  0.03929  1.0000
  C   C348      1.0  0.64710  0.66690  0.21411  1.0000
  S   S103      1.0  0.99256  0.67604  0.20514  1.0000
  H   H588      1.0  0.83962  0.65221  0.20609  1.0000
  H   H589      1.0  0.62944  0.68116  0.20827  1.0000
  C   C349      1.0  0.89794  0.66971  0.15240  1.0000
  C   C350      1.0  0.88909  0.68385  0.27191  1.0000
  C   C351      1.0  0.98059  0.56014  0.04543  1.0000
  H   H590      1.0  0.99673  0.50367  0.32796  1.0000
  C   C352      1.0  0.81859  0.63663  0.22934  1.0000
  H   H591      1.0  0.75713  0.62912  0.27710  1.0000
  H   H592      1.0  0.76886  0.66746  0.22068  1.0000
  N   N24       1.0  0.89657  0.69337  0.02016  1.0000
  N   N25       1.0  0.03994  0.55157  0.36227  1.0000
  H   H593      1.0  0.81784  0.70182  0.20555  1.0000
  C   C353      1.0  0.56913  0.51547  0.98879  1.0000
  C   C354      1.0  0.96864  0.51871  0.39088  1.0000
  S   S104      1.0  0.61709  0.69586  0.42348  1.0000
  H   H594      1.0  0.83944  0.68280  0.04170  1.0000
  Fe  Fe51      1.0  0.98365  0.38580  0.04365  1.0000
  H   H595      1.0  0.83129  0.61999  0.24434  1.0000
  H   H596      1.0  0.93444  0.65663  0.06758  1.0000
  H   H597      1.0  0.94124  0.50336  0.11294  1.0000
  H   H598      1.0  0.87877  0.65695  0.28970  1.0000
  H   H599      1.0  0.94869  0.56939  0.10982  1.0000
  C   C355      1.0  0.02966  0.69044  0.42570  1.0000
  H   H600      1.0  0.79676  0.59488  0.29650  1.0000
  H   H601      1.0  0.01072  0.46998  0.38499  1.0000
  H   H602      1.0  0.97905  0.53962  0.02322  1.0000
  C   C356      1.0  0.56213  0.53501  0.45622  1.0000
  H   H603      1.0  0.02073  0.57023  0.41107  1.0000
  N   N26       1.0  0.81612  0.66686  0.25391  1.0000
  H   H604      1.0  0.95529  0.46557  0.10914  1.0000
  C   C357      1.0  0.79796  0.62032  0.31170  1.0000
  H   H605      1.0  0.57467  0.57104  0.00702  1.0000
  C   C358      1.0  0.97587  0.58101  0.12712  1.0000
  H   H606      1.0  0.97889  0.60884  0.13921  1.0000
  H   H607      1.0  0.01434  0.61191  0.00772  1.0000
  H   H608      1.0  0.91407  0.68354  0.96599  1.0000
  H   H609      1.0  0.78828  0.67009  0.30514  1.0000
  C   C359      1.0  0.88737  0.65103  0.02848  1.0000
  H   H610      1.0  0.89887  0.67828  0.24470  1.0000
  H   H611      1.0  0.94985  0.54588  0.05695  1.0000
  S   S105      1.0  0.02228  0.38163  0.41413  1.0000
  H   H612      1.0  0.91343  0.61296  0.04009  1.0000
  H   H613      1.0  0.95372  0.51556  0.41810  1.0000
  H   H614      1.0  0.96181  0.59276  0.00804  1.0000
  H   H615      1.0  0.00350  0.56984  0.33030  1.0000
  H   H616      1.0  0.02169  0.52510  0.41731  1.0000
  H   H617      1.0  0.81364  0.69164  0.11992  1.0000
  Fe  Fe52      1.0  0.67633  0.69754  0.42382  1.0000
  C   C360      1.0  0.85694  0.69244  0.01528  1.0000
  C   C361      1.0  0.77907  0.60482  0.21184  1.0000
  N   N27       1.0  0.01110  0.56414  0.07418  1.0000
  H   H618      1.0  0.81494  0.63303  0.99374  1.0000
  C   C362      1.0  0.95719  0.49245  0.09521  1.0000
  C   C363      1.0  0.03322  0.70141  0.35865  1.0000
  H   H619      1.0  0.96688  0.48959  0.97026  1.0000
  H   H620      1.0  0.64356  0.67119  0.27346  1.0000
  H   H621      1.0  0.94822  0.65958  0.01891  1.0000
  H   H622      1.0  0.01692  0.45375  0.34050  1.0000
  H   H623      1.0  0.90003  0.70410  0.07898  1.0000
  C   C364      1.0  0.55762  0.54479  0.99042  1.0000
  H   H624      1.0  0.04910  0.56519  0.02940  1.0000
  H   H625      1.0  0.59124  0.55694  0.44587  1.0000
  H   H626      1.0  0.03610  0.59278  0.12651  1.0000
  H   H627      1.0  0.80523  0.67190  0.97878  1.0000
  S   S106      1.0  0.04286  0.38718  0.04488  1.0000
  H   H628      1.0  0.02754  0.62284  0.09554  1.0000
  H   H629      1.0  0.87326  0.63156  0.00412  1.0000
  H   H630      1.0  0.04696  0.52210  0.31437  1.0000
  H   H631      1.0  0.75185  0.66904  0.45288  1.0000
  H   H632      1.0  0.55393  0.45373  0.08729  1.0000
  H   H633      1.0  0.78012  0.64410  0.46067  1.0000
  H   H634      1.0  0.94895  0.66252  0.77782  1.0000
  Fe  Fe53      1.0  0.94565  0.62823  0.57284  1.0000
  S   S107      1.0  0.00332  0.68640  0.57312  1.0000
  S   S108      1.0  0.88493  0.61857  0.59114  1.0000
  Fe  Fe54      1.0  0.98638  0.58146  0.54522  1.0000
  H   H635      1.0  0.61849  0.61425  0.93930  1.0000
  S   S109      1.0  0.97444  0.51909  0.53126  1.0000
  Fe  Fe55      1.0  0.02927  0.65056  0.59874  1.0000
  C   C365      1.0  0.94760  0.38894  0.56513  1.0000
  Fe  Fe56      1.0  0.01538  0.66637  0.51845  1.0000
  S   S110      1.0  0.97096  0.59346  0.60202  1.0000
  S   S111      1.0  0.95535  0.61077  0.51600  1.0000
  C   C366      1.0  0.99544  0.63224  0.73280  1.0000
  C   C367      1.0  0.01124  0.64124  0.69663  1.0000
  H   H636      1.0  0.58255  0.49515  0.47701  1.0000
  H   H637      1.0  0.96345  0.61467  0.73689  1.0000
  H   H638      1.0  0.99130  0.63130  0.67310  1.0000
  C   C368      1.0  0.00939  0.51287  0.50445  1.0000
  H   H639      1.0  0.84509  0.66629  0.48254  1.0000
  H   H640      1.0  0.62749  0.64084  0.80427  1.0000
  S   S112      1.0  0.99988  0.63433  0.80866  1.0000
  H   H641      1.0  0.62089  0.66006  0.92619  1.0000
  H   H642      1.0  0.96914  0.45033  0.49614  1.0000
  H   H643      1.0  0.93799  0.40660  0.54735  1.0000
  Fe  Fe57      1.0  0.71623  0.70576  0.68072  1.0000
  C   C369      1.0  0.73047  0.66496  0.85080  1.0000
  C   C370      1.0  0.71814  0.63786  0.88082  1.0000
  C   C371      1.0  0.72165  0.65140  0.91744  1.0000
  H   H644      1.0  0.71094  0.63018  0.94026  1.0000
  H   H645      1.0  0.70517  0.60625  0.87570  1.0000
  H   H646      1.0  0.89089  0.66962  0.83199  1.0000
  C   C372      1.0  0.83834  0.67391  0.65201  1.0000
  C   C373      1.0  0.84367  0.64514  0.63303  1.0000
  C   C374      1.0  0.88037  0.65538  0.61594  1.0000
  H   H647      1.0  0.57789  0.60052  0.79239  1.0000
  H   H648      1.0  0.81920  0.61481  0.63149  1.0000
  H   H649      1.0  0.56185  0.57324  0.55438  1.0000
  H   H650      1.0  0.80998  0.66556  0.66504  1.0000
  H   H651      1.0  0.60450  0.64124  0.86200  1.0000
  C   C375      1.0  0.60955  0.60873  0.79741  1.0000
  H   H652      1.0  0.84153  0.62042  0.49960  1.0000
  C   C376      1.0  0.60279  0.51769  0.87767  1.0000
  H   H653      1.0  0.64613  0.59243  0.83091  1.0000
  C   C377      1.0  0.88203  0.61055  0.71289  1.0000
  C   C378      1.0  0.99895  0.47482  0.49128  1.0000
  H   H654      1.0  0.77090  0.70396  0.51004  1.0000
  H   H655      1.0  0.05335  0.41998  0.96060  1.0000
  H   H656      1.0  0.01111  0.40661  0.54990  1.0000
  H   H657      1.0  0.70866  0.62208  0.58668  1.0000
  N   N28       1.0  0.90507  0.67462  0.75163  1.0000
  H   H658      1.0  0.87178  0.66548  0.52388  1.0000
  C   C379      1.0  0.05269  0.66269  0.69115  1.0000
  H   H659      1.0  0.01780  0.55068  0.93767  1.0000
  H   H660      1.0  0.97748  0.41742  0.85815  1.0000
  C   C380      1.0  0.61428  0.62295  0.87869  1.0000
  H   H661      1.0  0.03522  0.56198  0.59343  1.0000
  C   C381      1.0  0.02717  0.53391  0.95544  1.0000
  C   C382      1.0  0.76882  0.66404  0.56853  1.0000
  C   C383      1.0  0.66819  0.68286  0.52341  1.0000
  H   H662      1.0  0.01049  0.48497  0.67161  1.0000
  H   H663      1.0  0.81157  0.62870  0.55965  1.0000
  C   C384      1.0  0.91880  0.65865  0.78365  1.0000
  C   C385      1.0  0.99366  0.41406  0.56940  1.0000
  H   H664      1.0  0.00744  0.40771  0.91353  1.0000
  C   C386      1.0  0.97492  0.50547  0.64162  1.0000
  H   H665      1.0  0.90427  0.67031  0.69193  1.0000
  C   C387      1.0  0.90963  0.65606  0.71660  1.0000
  H   H666      1.0  0.00293  0.41231  0.59830  1.0000
  H   H667      1.0  0.60161  0.55195  0.81526  1.0000
  S   S113      1.0  0.04703  0.63603  0.54421  1.0000
  H   H668      1.0  0.00303  0.44601  0.56426  1.0000
  C   C388      1.0  0.04763  0.54469  0.49699  1.0000
  C   C389      1.0  0.65717  0.67129  0.56066  1.0000
  H   H669      1.0  0.03229  0.58172  0.65486  1.0000
  H   H670      1.0  0.94794  0.47545  0.64344  1.0000
  H   H671      1.0  0.77954  0.65720  0.59500  1.0000
  H   H672      1.0  0.56366  0.53715  0.60813  1.0000
  H   H673      1.0  0.02743  0.53053  0.71400  1.0000
  C   C390      1.0  0.61365  0.58196  0.82742  1.0000
  H   H674      1.0  0.57355  0.61551  0.92538  1.0000
  H   H675      1.0  0.62894  0.64495  0.56699  1.0000
  H   H676      1.0  0.56518  0.46681  0.60489  1.0000
  H   H677      1.0  0.85060  0.69967  0.57565  1.0000
  H   H678      1.0  0.97361  0.51854  0.61441  1.0000
  H   H679      1.0  0.94070  0.66132  0.71343  1.0000
  H   H680      1.0  0.73521  0.63026  0.48695  1.0000
  H   H681      1.0  0.03970  0.44532  0.82685  1.0000
  C   C391      1.0  0.84345  0.64903  0.50801  1.0000
  Fe  Fe58      1.0  0.04392  0.65682  0.85615  1.0000
  S   S114      1.0  0.66933  0.67669  0.63599  1.0000
  C   C392      1.0  0.02316  0.43878  0.90211  1.0000
  C   C393      1.0  0.72682  0.62892  0.56089  1.0000
  C   C394      1.0  0.55711  0.49995  0.47387  1.0000
  H   H682      1.0  0.96691  0.43927  0.89685  1.0000
  C   C395      1.0  0.01263  0.50096  0.64501  1.0000
  H   H683      1.0  0.84693  0.65913  0.72798  1.0000
  H   H684      1.0  0.71103  0.63724  0.53970  1.0000
  N   N29       1.0  0.59514  0.58065  0.86461  1.0000
  H   H685      1.0  0.64855  0.66536  0.50120  1.0000
  S   S115      1.0  0.72270  0.64687  0.80515  1.0000
  C   C396      1.0  0.91189  0.69464  0.61820  1.0000
  C   C397      1.0  0.76227  0.65561  0.47481  1.0000
  H   H686      1.0  0.76376  0.68943  0.57466  1.0000
  H   H687      1.0  0.03107  0.39924  0.84492  1.0000
  H   H688      1.0  0.97265  0.52337  0.66442  1.0000
  H   H689      1.0  0.84982  0.60179  0.71344  1.0000
  C   C398      1.0  0.92095  0.67688  0.82187  1.0000
  S   S116      1.0  0.75017  0.67580  0.70196  1.0000
  H   H690      1.0  0.72707  0.60125  0.55325  1.0000
  H   H691      1.0  0.63534  0.57417  0.90325  1.0000
  C   C399      1.0  0.99134  0.44218  0.87831  1.0000
  H   H692      1.0  0.05156  0.52779  0.58220  1.0000
  C   C400      1.0  0.02680  0.46832  0.47162  1.0000
  N   N30       1.0  0.79984  0.67499  0.53835  1.0000
  H   H693      1.0  0.60659  0.50135  0.90168  1.0000
  C   C401      1.0  0.60589  0.62778  0.91973  1.0000
  H   H694      1.0  0.88837  0.59344  0.73432  1.0000
  H   H695      1.0  0.88774  0.60129  0.68547  1.0000
  H   H696      1.0  0.81852  0.67797  0.78029  1.0000
  C   C402      1.0  0.80700  0.64018  0.53252  1.0000
  H   H697      1.0  0.84428  0.63346  0.77006  1.0000
  C   C403      1.0  0.73900  0.69228  0.92429  1.0000
  Fe  Fe59      1.0  0.73938  0.69227  0.75866  1.0000
  H   H698      1.0  0.78053  0.61436  0.52026  1.0000
  H   H699      1.0  0.00982  0.47948  0.62327  1.0000
  H   H700      1.0  0.62781  0.52463  0.85820  1.0000
  H   H701      1.0  0.62189  0.60495  0.77084  1.0000
  H   H702      1.0  0.00307  0.47109  0.86349  1.0000
  C   C404      1.0  0.78767  0.68816  0.50318  1.0000
  H   H703      1.0  0.58421  0.54758  0.91628  1.0000
  C   C405      1.0  0.68289  0.69319  0.58966  1.0000
  C   C406      1.0  0.02084  0.64561  0.76370  1.0000
  H   H704      1.0  0.94021  0.70293  0.60497  1.0000
  H   H705      1.0  0.84589  0.66852  0.95817  1.0000
  S   S117      1.0  0.02798  0.62888  0.91332  1.0000
  H   H706      1.0  0.03136  0.57794  0.71893  1.0000
  H   H707      1.0  0.93428  0.38713  0.59298  1.0000
  C   C407      1.0  0.60448  0.55615  0.89194  1.0000
  H   H708      1.0  0.64739  0.63806  0.87545  1.0000
  H   H709      1.0  0.02932  0.45842  0.92644  1.0000
  H   H710      1.0  0.89893  0.62593  0.78727  1.0000
  C   C408      1.0  0.85139  0.69252  0.77556  1.0000
  C   C409      1.0  0.04678  0.56249  0.70718  1.0000
  H   H711      1.0  0.57400  0.49709  0.86451  1.0000
  C   C410      1.0  0.86131  0.66299  0.75573  1.0000
  C   C411      1.0  0.74788  0.70579  0.85764  1.0000
  C   C412      1.0  0.05343  0.57164  0.66505  1.0000
  N   N31       1.0  0.05219  0.53901  0.64137  1.0000
  H   H712      1.0  0.93313  0.66353  0.84219  1.0000
  H   H713      1.0  0.86608  0.70227  0.80280  1.0000
  H   H714      1.0  0.01845  0.43888  0.46178  1.0000
  H   H715      1.0  0.69926  0.78301  0.31433  1.0000
  H   H716      1.0  0.75886  0.98166  0.04403  1.0000
  S   S118      1.0  0.61870  0.76227  0.33869  1.0000
  H   H717      1.0  0.82375  0.74409  0.26349  1.0000
  H   H718      1.0  0.71084  0.76958  0.12632  1.0000
  C   C413      1.0  0.92757  0.76197  0.05306  1.0000
  S   S119      1.0  0.01068  0.74513  0.26768  1.0000
  H   H719      1.0  0.67888  0.87475  0.14673  1.0000
  H   H720      1.0  0.58508  0.98358  0.25636  1.0000
  H   H721      1.0  0.64465  0.74915  0.24462  1.0000
  H   H722      1.0  0.59453  0.74016  0.15202  1.0000
  Fe  Fe60      1.0  0.74659  0.96717  0.23737  1.0000
  S   S120      1.0  0.68712  0.96510  0.23681  1.0000
  S   S121      1.0  0.75512  0.91499  0.25522  1.0000
  Fe  Fe61      1.0  0.70693  0.99730  0.18186  1.0000
  S   S122      1.0  0.66303  0.98179  0.13438  1.0000
  H   H723      1.0  0.73764  0.92762  0.45074  1.0000
  S   S123      1.0  0.76406  0.99463  0.18017  1.0000
  H   H724      1.0  0.67242  0.79307  0.40718  1.0000
  H   H725      1.0  0.57273  0.94009  0.41689  1.0000
  C   C414      1.0  0.04817  0.70881  0.02487  1.0000
  C   C415      1.0  0.68003  0.97940  0.08960  1.0000
  C   C416      1.0  0.65717  0.97822  0.05866  1.0000
  C   C417      1.0  0.67112  0.97900  0.02252  1.0000
  C   C418      1.0  0.70808  0.98081  0.01720  1.0000
  C   C419      1.0  0.73040  0.98062  0.04806  1.0000
  C   C420      1.0  0.71634  0.97981  0.08420  1.0000
  H   H726      1.0  0.62890  0.97730  0.06260  1.0000
  H   H727      1.0  0.65361  0.97892  0.99880  1.0000
  H   H728      1.0  0.60151  0.75503  0.24736  1.0000
  Fe  Fe62      1.0  0.99207  0.73410  0.20763  1.0000
  H   H729      1.0  0.94073  0.77513  0.08039  1.0000
  C   C421      1.0  0.73145  0.02174  0.42528  1.0000
  H   H730      1.0  0.57492  0.00381  0.40823  1.0000
  C   C422      1.0  0.57775  0.99285  0.16384  1.0000
  H   H731      1.0  0.71283  0.91702  0.37069  1.0000
  H   H732      1.0  0.69953  0.93362  0.43039  1.0000
  H   H733      1.0  0.95467  0.71772  0.99348  1.0000
  H   H734      1.0  0.56797  0.93003  0.36843  1.0000
  H   H735      1.0  0.64731  0.83247  0.38608  1.0000
  C   C423      1.0  0.65687  0.80443  0.31538  1.0000
  C   C424      1.0  0.65011  0.83609  0.30529  1.0000
  C   C425      1.0  0.68021  0.87054  0.28746  1.0000
  C   C426      1.0  0.71713  0.87329  0.27910  1.0000
  C   C427      1.0  0.72374  0.84153  0.28896  1.0000
  C   C428      1.0  0.69380  0.80728  0.30707  1.0000
  H   H736      1.0  0.62157  0.83407  0.31153  1.0000
  H   H737      1.0  0.67472  0.89475  0.28003  1.0000
  H   H738      1.0  0.75216  0.84337  0.28248  1.0000
  S   S124      1.0  0.94144  0.74345  0.18565  1.0000
  H   H739      1.0  0.76009  0.99356  0.39675  1.0000
  H   H740      1.0  0.78656  0.73759  0.22994  1.0000
  H   H741      1.0  0.64791  0.89811  0.37313  1.0000
  C   C429      1.0  0.72395  0.77768  0.15448  1.0000
  H   H742      1.0  0.73360  0.75557  0.16223  1.0000
  C   C430      1.0  0.04454  0.71610  0.39473  1.0000
  C   C431      1.0  0.71936  0.89395  0.38261  1.0000
  C   C432      1.0  0.65248  0.85337  0.40913  1.0000
  N   N32       1.0  0.69649  0.87681  0.41831  1.0000
  H   H743      1.0  0.56444  0.96008  0.04344  1.0000
  C   C433      1.0  0.58168  0.99126  0.38344  1.0000
  Fe  Fe63      1.0  0.72080  0.02592  0.26179  1.0000
  H   H744      1.0  0.60466  0.98121  0.32117  1.0000
  H   H745      1.0  0.73664  0.84871  0.98529  1.0000
  H   H746      1.0  0.85599  0.71141  0.29317  1.0000
  H   H747      1.0  0.77855  0.93925  0.40395  1.0000
  H   H748      1.0  0.70961  0.87066  0.36111  1.0000
  C   C434      1.0  0.73042  0.01385  0.35825  1.0000
  H   H749      1.0  0.75133  0.80735  0.15403  1.0000
  S   S125      1.0  0.77956  0.02645  0.26558  1.0000
  H   H750      1.0  0.63102  0.89607  0.42053  1.0000
  H   H751      1.0  0.77531  0.89181  0.39288  1.0000
  C   C435      1.0  0.63257  0.87826  0.39724  1.0000
  S   S126      1.0  0.72793  0.98566  0.97240  1.0000
  C   C436      1.0  0.76536  0.91354  0.38494  1.0000
  C   C437      1.0  0.58406  0.00401  0.27733  1.0000
  H   H752      1.0  0.61455  0.00250  0.38416  1.0000
  H   H753      1.0  0.60127  0.85763  0.38860  1.0000
  H   H754      1.0  0.77806  0.92528  0.35690  1.0000
  H   H755      1.0  0.73391  0.98002  0.10772  1.0000
  C   C438      1.0  0.70886  0.84933  0.43719  1.0000
  N   N33       1.0  0.67423  0.80085  0.17632  1.0000
  C   C439      1.0  0.70747  0.84374  0.17556  1.0000
  C   C440      1.0  0.69316  0.77499  0.18344  1.0000
  C   C441      1.0  0.64584  0.79597  0.20765  1.0000
  C   C442      1.0  0.65313  0.79229  0.13935  1.0000
  C   C443      1.0  0.69423  0.87581  0.17319  1.0000
  C   C444      1.0  0.56115  0.94570  0.39043  1.0000
  C   C445      1.0  0.62368  0.75492  0.22763  1.0000
  C   C446      1.0  0.62019  0.74899  0.13301  1.0000
  H   H756      1.0  0.72663  0.85019  0.20075  1.0000
  H   H757      1.0  0.72775  0.84976  0.15144  1.0000
  H   H758      1.0  0.67032  0.74310  0.18492  1.0000
  H   H759      1.0  0.70823  0.78191  0.21106  1.0000
  H   H760      1.0  0.66222  0.81699  0.23034  1.0000
  H   H761      1.0  0.62292  0.80399  0.19821  1.0000
  H   H762      1.0  0.63848  0.81086  0.13519  1.0000
  C   C447      1.0  0.04454  0.71666  0.09153  1.0000
  H   H763      1.0  0.67531  0.87432  0.19703  1.0000
  N   N34       1.0  0.57019  0.00480  0.34811  1.0000
  H   H764      1.0  0.72140  0.90568  0.17411  1.0000
  C   C448      1.0  0.92285  0.74292  0.96373  1.0000
  H   H765      1.0  0.73809  0.00243  0.33428  1.0000
  C   C449      1.0  0.74243  0.00835  0.39375  1.0000
  H   H766      1.0  0.87183  0.72298  0.24630  1.0000
  S   S127      1.0  0.74342  0.71041  0.96979  1.0000
  H   H767      1.0  0.63155  0.72754  0.13528  1.0000
  H   H768      1.0  0.71338  0.78629  0.02219  1.0000
  H   H769      1.0  0.87267  0.74298  0.15385  1.0000
  C   C450      1.0  0.71848  0.78704  0.99178  1.0000
  H   H770      1.0  0.67506  0.80072  0.11622  1.0000
  H   H771      1.0  0.60845  0.74650  0.10433  1.0000
  C   C451      1.0  0.87046  0.71440  0.14809  1.0000
  H   H772      1.0  0.04515  0.72148  0.33500  1.0000
  C   C452      1.0  0.70521  0.91072  0.44400  1.0000
  H   H773      1.0  0.74041  0.86611  0.44697  1.0000
  H   H774      1.0  0.58007  0.96865  0.11137  1.0000
  H   H775      1.0  0.95065  0.77972  0.03191  1.0000
  H   H776      1.0  0.03176  0.72411  0.11476  1.0000
  H   H777      1.0  0.90068  0.76543  0.04972  1.0000
  H   H778      1.0  0.72195  0.82369  0.38773  1.0000
  C   C453      1.0  0.57736  0.98403  0.31606  1.0000
  H   H779      1.0  0.77112  0.70908  0.27190  1.0000
  H   H780      1.0  0.71531  0.79663  0.43010  1.0000
  H   H781      1.0  0.63479  0.83342  0.43255  1.0000
  C   C454      1.0  0.70424  0.81397  0.41376  1.0000
  H   H782      1.0  0.60720  0.72979  0.20859  1.0000
  H   H783      1.0  0.86054  0.72234  0.00937  1.0000
  C   C455      1.0  0.70852  0.03400  0.35395  1.0000
  C   C456      1.0  0.03276  0.71955  0.05512  1.0000
  H   H784      1.0  0.61351  0.03181  0.27578  1.0000
  H   H785      1.0  0.94700  0.71917  0.05805  1.0000
  H   H786      1.0  0.01160  0.73000  0.05039  1.0000
  H   H787      1.0  0.59646  0.02318  0.04686  1.0000
  S   S128      1.0  0.69185  0.72045  0.36508  1.0000
  C   C457      1.0  0.91783  0.71810  0.05353  1.0000
  H   H788      1.0  0.74975  0.79309  0.98814  1.0000
  H   H789      1.0  0.56000  0.01045  0.26908  1.0000
  H   H790      1.0  0.91447  0.76215  0.97951  1.0000
  Fe  Fe64      1.0  0.63064  0.71426  0.36335  1.0000
  S   S129      1.0  0.03134  0.71083  0.97970  1.0000
  C   C458      1.0  0.79533  0.72163  0.25070  1.0000
  H   H791      1.0  0.59444  0.97867  0.17618  1.0000
  H   H792      1.0  0.60003  0.02451  0.15815  1.0000
  H   H793      1.0  0.62161  0.03105  0.09151  1.0000
  C   C459      1.0  0.56132  0.00964  0.96214  1.0000
  C   C460      1.0  0.56350  0.03032  0.09342  1.0000
  C   C461      1.0  0.55393  0.03671  0.98197  1.0000
  C   C462      1.0  0.90096  0.70667  0.16015  1.0000
  C   C463      1.0  0.92299  0.70829  0.98608  1.0000
  C   C464      1.0  0.55675  0.97042  0.12814  1.0000
  H   H794      1.0  0.91622  0.70817  0.28510  1.0000
  C   C465      1.0  0.71230  0.82029  0.97376  1.0000
  H   H795      1.0  0.69758  0.75698  0.98141  1.0000
  H   H796      1.0  0.68382  0.81691  0.98523  1.0000
  H   H797      1.0  0.69896  0.88247  0.96933  1.0000
  H   H798      1.0  0.55610  0.99072  0.18526  1.0000
  C   C466      1.0  0.60238  0.03847  0.07375  1.0000
  Fe  Fe65      1.0  0.75631  0.77473  0.73433  1.0000
  C   C467      1.0  0.65356  0.84559  0.60384  1.0000
  S   S130      1.0  0.76131  0.83388  0.75092  1.0000
  H   H799      1.0  0.95349  0.76271  0.95268  1.0000
  H   H800      1.0  0.94156  0.70953  0.82203  1.0000
  H   H801      1.0  0.68610  0.81834  0.70539  1.0000
  C   C468      1.0  0.68082  0.82222  0.67557  1.0000
  H   H802      1.0  0.75847  0.76522  0.53775  1.0000
  S   S131      1.0  0.66693  0.97391  0.64095  1.0000
  H   H803      1.0  0.98146  0.72674  0.71279  1.0000
  S   S132      1.0  0.77053  0.76634  0.67561  1.0000
  S   S133      1.0  0.79542  0.75174  0.75901  1.0000
  S   S134      1.0  0.65983  0.00201  0.53682  1.0000
  Fe  Fe66      1.0  0.63960  0.90727  0.86909  1.0000
  S   S135      1.0  0.69937  0.96277  0.86911  1.0000
  S   S136      1.0  0.63148  0.84749  0.85001  1.0000
  Fe  Fe67      1.0  0.59789  0.94985  0.90551  1.0000
  S   S137      1.0  0.65513  0.00845  0.90801  1.0000
  Fe  Fe68      1.0  0.66576  0.99385  0.85012  1.0000
  H   H804      1.0  0.98969  0.72619  0.76252  1.0000
  Fe  Fe69      1.0  0.68282  0.97139  0.92659  1.0000
  S   S138      1.0  0.60642  0.93764  0.84609  1.0000
  S   S139      1.0  0.62504  0.91372  0.92821  1.0000
  H   H805      1.0  0.82154  0.74097  0.59304  1.0000
  C   C469      1.0  0.66342  0.98134  0.75297  1.0000
  C   C470      1.0  0.65751  0.96692  0.71659  1.0000
  H   H806      1.0  0.65204  0.96060  0.77615  1.0000
  H   H807      1.0  0.64059  0.93522  0.71214  1.0000
  H   H808      1.0  0.71659  0.94267  0.69948  1.0000
  C   C471      1.0  0.72782  0.89294  0.68547  1.0000
  Fe  Fe70      1.0  0.80366  0.73700  0.70054  1.0000
  H   H809      1.0  0.62313  0.86615  0.73483  1.0000
  C   C472      1.0  0.67294  0.99329  0.68617  1.0000
  H   H810      1.0  0.70501  0.91029  0.92785  1.0000
  H   H811      1.0  0.69085  0.83592  0.46284  1.0000
  H   H812      1.0  0.66333  0.86122  0.93151  1.0000
  H   H813      1.0  0.76761  0.75101  0.89935  1.0000
  H   H814      1.0  0.92828  0.73517  0.77181  1.0000
  H   H815      1.0  0.69913  0.77855  0.66259  1.0000
  C   C473      1.0  0.69094  0.87328  0.62687  1.0000
  H   H816      1.0  0.71849  0.86699  0.89027  1.0000
  C   C474      1.0  0.70657  0.80913  0.65330  1.0000
  H   H817      1.0  0.66290  0.84315  0.57527  1.0000
  H   H818      1.0  0.63791  0.73344  0.89562  1.0000
  C   C475      1.0  0.72519  0.83678  0.77915  1.0000
  C   C476      1.0  0.73257  0.87430  0.79148  1.0000
  C   C477      1.0  0.70399  0.87808  0.81285  1.0000
  C   C478      1.0  0.66772  0.84430  0.82217  1.0000
  C   C479      1.0  0.66036  0.80674  0.80993  1.0000
  C   C480      1.0  0.68895  0.80295  0.78852  1.0000
  H   H819      1.0  0.76049  0.90066  0.78429  1.0000
  H   H820      1.0  0.71005  0.90716  0.82197  1.0000
  H   H821      1.0  0.63235  0.78044  0.81699  1.0000
  H   H822      1.0  0.68281  0.77393  0.77910  1.0000
  H   H823      1.0  0.67593  0.88906  0.74063  1.0000
  H   H824      1.0  0.64586  0.83533  0.73688  1.0000
  S   S140      1.0  0.74596  0.01369  0.46965  1.0000
  C   C481      1.0  0.69536  0.87977  0.93876  1.0000
  H   H825      1.0  0.74293  0.94973  0.65604  1.0000
  H   H826      1.0  0.76778  0.95498  0.69923  1.0000
  H   H827      1.0  0.71944  0.79262  0.86084  1.0000
  C   C482      1.0  0.73013  0.73900  0.54406  1.0000
  H   H828      1.0  0.64783  0.79772  0.93040  1.0000
  C   C483      1.0  0.65010  0.86440  0.72645  1.0000
  H   H829      1.0  0.62529  0.84515  0.67226  1.0000
  H   H830      1.0  0.71793  0.87456  0.61401  1.0000
  H   H831      1.0  0.69540  0.90386  0.62192  1.0000
  H   H832      1.0  0.86707  0.77164  0.56902  1.0000
  H   H833      1.0  0.65660  0.89709  0.67507  1.0000
  H   H834      1.0  0.99106  0.76858  0.74023  1.0000
  H   H835      1.0  0.73901  0.82884  0.65828  1.0000
  H   H836      1.0  0.82069  0.75604  0.54509  1.0000
  C   C484      1.0  0.65440  0.86822  0.68380  1.0000
  C   C485      1.0  0.73879  0.93737  0.68467  1.0000
  H   H837      1.0  0.91919  0.73007  0.72354  1.0000
  H   H838      1.0  0.59148  0.01788  0.95374  1.0000
  C   C486      1.0  0.90655  0.72342  0.63733  1.0000
  N   N35       1.0  0.68846  0.86412  0.66788  1.0000
  H   H839      1.0  0.64888  0.79966  0.67107  1.0000
  S   S141      1.0  0.86435  0.74985  0.67855  1.0000
  S   S142      1.0  0.04459  0.70996  0.47066  1.0000
  H   H840      1.0  0.93101  0.75375  0.63896  1.0000
  H   H841      1.0  0.63253  0.85772  0.60228  1.0000
  C   C487      1.0  0.67156  0.79389  0.91646  1.0000
  H   H842      1.0  0.70162  0.89380  0.50302  1.0000
  H   H843      1.0  0.75301  0.89132  0.67192  1.0000
  H   H844      1.0  0.72885  0.88463  0.71494  1.0000
  Fe  Fe71      1.0  0.68719  0.01915  0.59381  1.0000
  H   H845      1.0  0.70016  0.80739  0.62312  1.0000
  C   C488      1.0  0.74739  0.81644  0.87321  1.0000
  H   H846      1.0  0.74255  0.78769  0.92560  1.0000
  C   C489      1.0  0.86971  0.71318  0.65422  1.0000
  C   C490      1.0  0.56236  0.99655  0.49003  1.0000
  H   H847      1.0  0.66877  0.80091  0.88692  1.0000
  H   H848      1.0  0.63710  0.81468  0.61489  1.0000
  C   C491      1.0  0.57216  0.03672  0.48879  1.0000
  C   C492      1.0  0.72161  0.86441  0.92076  1.0000
  C   C493      1.0  0.93048  0.71932  0.74718  1.0000
  C   C494      1.0  0.71918  0.72736  0.58121  1.0000
  S   S143      1.0  0.72154  0.72994  0.46887  1.0000
  H   H849      1.0  0.75780  0.72695  0.83473  1.0000
  H   H850      1.0  0.75475  0.84578  0.86077  1.0000
  H   H851      1.0  0.68231  0.74162  0.91740  1.0000
  C   C495      1.0  0.68343  0.89910  0.48191  1.0000
  C   C496      1.0  0.69332  0.03445  0.69237  1.0000
  H   H852      1.0  0.65339  0.87243  0.48086  1.0000
  H   H853      1.0  0.77478  0.83941  0.92643  1.0000
  H   H854      1.0  0.85947  0.71929  0.75782  1.0000
  H   H855      1.0  0.73905  0.74463  0.60320  1.0000
  S   S144      1.0  0.69952  0.71592  0.73782  1.0000
  C   C497      1.0  0.68365  0.02241  0.75922  1.0000
  C   C498      1.0  0.70495  0.71653  0.51507  1.0000
  H   H856      1.0  0.67851  0.92379  0.49138  1.0000
  H   H857      1.0  0.64084  0.73587  0.94554  1.0000
  C   C499      1.0  0.74503  0.81626  0.91600  1.0000
  N   N36       1.0  0.71223  0.82261  0.93181  1.0000
  H   H858      1.0  0.90335  0.73135  0.93889  1.0000
  H   H859      1.0  0.58161  0.98776  0.50457  1.0000
  H   H860      1.0  0.55877  0.02379  0.57383  1.0000
  C   C500      1.0  0.83620  0.74640  0.56540  1.0000
  H   H861      1.0  0.77183  0.81048  0.86488  1.0000
  C   C501      1.0  0.97562  0.73542  0.74035  1.0000
  H   H862      1.0  0.75331  0.88645  0.92739  1.0000
  H   H863      1.0  0.86200  0.72055  0.53033  1.0000
  C   C502      1.0  0.75281  0.71939  0.89431  1.0000
  Fe  Fe72      1.0  0.72309  0.03589  0.51616  1.0000
  C   C503      1.0  0.65786  0.74891  0.91943  1.0000
  C   C504      1.0  0.83844  0.70947  0.55223  1.0000
  H   H864      1.0  0.81432  0.71068  0.48739  1.0000
