data_image0
_chemical_formula_structural       FeS2FeS2FeHFeS3H2SH2CH2C2H3C2H4C6H4C7H2NC4H10CH3CHSCHCH2CH5CSHCH3CNH4SH3CH2CH2FeH4NHCSFeHC2H2SCH2C2HCH5C2H7CH4NCH2CH3CH2C3H2CHCH3CNCHCH2CH4SC4FeS2FeS2FeSFeS3H2SH3C2HC6H4C3H4C6H5C2HCSCHCHFeH5CHCHCNC4NCH3CH5C2H4SH2CNHCH2CH5CH8CH2CHCH2CH4CH2C4H4CH2CHCH2CH4SHNHFeHSCH4CH2C3FeH2C2SH2CH2C2HCSH9CHC5H4C3FeSCFeS2FeCFeSFeS2FeS2FeSFeS3C5HC2SHC6H7CH2SC3HCHNCH4C2H3FeC3SC3H3NH2C2HFeHC2HCHCH2CSCH3CHCSH9NH16CSH5CH2CHNHSH8C2HC3HCH2CSCH5FeH3CH2C2H4CHCHCHCH4CHCH3CFeS2FeSHFe2S3FeS2FeS2FeS2FeS2FeSFeS3H3CHC6H2CH2C7H4CH2CHCHC6H4C2H3CH3CH2CH4CH4CH2C2H5NH4CHCNC4H9CH2SH3CHCH2CH3CH2CH4CHCHCHCNC2H3CHCHC2HC2H5CH5CHC3HCH4CH2CHNHNH4FeSFeS2FeHFeHS2FeS2FeSHSFeS2FeS2FeSFeS3HC6H4C6H4C5H2C3H4CSC6H4CNHCSCHCH2CH2CH3NCH2NCHCHCH3NC8H20NC8H20CHC2HCHCH7C2HC2H4CHSCH5SH4C2HCH6CHCH4CNC3HCH5CSH8CH4CHC3HC2FeSFeSHFe3S3FeS2FeS2FeSFeS3C2HCHCHCH2CH2SHC7H5C6H10CFeH2CH2NHC2HNC8H20S2H4CHCH2S2H4CHCHC2HSHCHCH3CHSH3CH2CH2NC2H3C4HC2HC2S2HC2H4FeHCHSH2CFeHCH2FeSHSFeSH2SHFeSHSHCFeH2C2H2SC6H5C5H5CHC2HSCH2CH3NHFeCHCH8CNC2HC4H2FeHC2H3SH2FeH3C2HC2H7SH3CHCH3NH3CSHCHC2H2CH3C3NH7C3H5CSH4C2HSHSH6C4H2CHNH7CNH2CHCHCH2CHFeCH4SCH2CH2NHCHCHC3H2SFeH5S2CHFeHCH2C6HCH3C2FeS3FeS2FeHFeSFeS3H4FeH3C6H5C3H4CNHC2HCHSCH3C3H3CS2H3CNC8H20C2H6C2H4CHSH2CH
_chemical_formula_sum              "Fe72 S144 H864 C504 N36"
_cell_length_a       42.6999
_cell_length_b       42.3817
_cell_length_c       58.5078
_cell_angle_alpha    88.3205
_cell_angle_beta     91.9929
_cell_angle_gamma    118.524

_space_group_name_H-M_alt    "P 1"
_space_group_IT_number       1

loop_
  _space_group_symop_operation_xyz
  'x, y, z'

loop_
  _atom_site_type_symbol
  _atom_site_label
  _atom_site_symmetry_multiplicity
  _atom_site_fract_x
  _atom_site_fract_y
  _atom_site_fract_z
  _atom_site_occupancy
  Fe  Fe1       1.0  0.16296  0.12661  0.09045  1.0000
  S   S1        1.0  0.15148  0.08626  0.06326  1.0000
  S   S2        1.0  0.12004  0.13469  0.10659  1.0000
  Fe  Fe2       1.0  0.24258  0.14960  0.09389  1.0000
  S   S3        1.0  0.23724  0.11061  0.06673  1.0000
  S   S4        1.0  0.29536  0.19452  0.10848  1.0000
  Fe  Fe3       1.0  0.20158  0.12789  0.04727  1.0000
  H   H1        1.0  0.13456  0.03200  0.01464  1.0000
  Fe  Fe4       1.0  0.18718  0.07112  0.08419  1.0000
  S   S5        1.0  0.17107  0.01208  0.08317  1.0000
  S   S6        1.0  0.21043  0.17020  0.07279  1.0000
  S   S7        1.0  0.19513  0.10833  0.11316  1.0000
  H   H2        1.0  0.35334  0.19230  0.01392  1.0000
  H   H3        1.0  0.14750  0.00824  0.12935  1.0000
  S   S8        1.0  0.40960  0.19801  0.18386  1.0000
  H   H4        1.0  0.29984  0.16522  0.22110  1.0000
  H   H5        1.0  0.04684  0.10998  0.03584  1.0000
  C   C1        1.0  0.27769  0.23709  0.03848  1.0000
  H   H6        1.0  0.25209  0.21733  0.24058  1.0000
  H   H7        1.0  0.44695  0.29673  0.32812  1.0000
  C   C2        1.0  0.30280  0.14800  0.02135  1.0000
  C   C3        1.0  0.36401  0.20837  0.06158  1.0000
  H   H8        1.0  0.27395  0.13928  0.01988  1.0000
  H   H9        1.0  0.08471  0.05673  0.09182  1.0000
  H   H10       1.0  0.27862  0.20147  0.25616  1.0000
  C   C4        1.0  0.16197  0.99954  0.00795  1.0000
  C   C5        1.0  0.01842  0.04240  0.10694  1.0000
  H   H11       1.0  0.03094  0.04992  0.08997  1.0000
  H   H12       1.0  0.03590  0.00314  0.07148  1.0000
  H   H13       1.0  0.39955  0.25259  0.02802  1.0000
  H   H14       1.0  0.01659  0.19442  0.00885  1.0000
  C   C6        1.0  0.37925  0.19784  0.16204  1.0000
  C   C7        1.0  0.35058  0.16471  0.15524  1.0000
  C   C8        1.0  0.32487  0.16306  0.13876  1.0000
  C   C9        1.0  0.32749  0.19464  0.12883  1.0000
  C   C10       1.0  0.35639  0.22776  0.13543  1.0000
  C   C11       1.0  0.38207  0.22941  0.15195  1.0000
  H   H15       1.0  0.34809  0.14009  0.16288  1.0000
  H   H16       1.0  0.30291  0.13738  0.13388  1.0000
  H   H17       1.0  0.35879  0.25238  0.12785  1.0000
  H   H18       1.0  0.40397  0.25509  0.15689  1.0000
  C   C12       1.0  0.02168  0.11931  0.06429  1.0000
  C   C13       1.0  0.02522  0.12815  0.08739  1.0000
  C   C14       1.0  0.05618  0.13416  0.09992  1.0000
  C   C15       1.0  0.08339  0.13046  0.08961  1.0000
  C   C16       1.0  0.08004  0.12193  0.06641  1.0000
  C   C17       1.0  0.04936  0.11669  0.05372  1.0000
  C   C18       1.0  0.38549  0.26085  0.01497  1.0000
  H   H19       1.0  0.05872  0.14093  0.11782  1.0000
  H   H20       1.0  0.10102  0.11930  0.05829  1.0000
  N   N1        1.0  0.33172  0.22341  0.22101  1.0000
  C   C19       1.0  0.35946  0.25156  0.20584  1.0000
  C   C20       1.0  0.34790  0.22025  0.24373  1.0000
  C   C21       1.0  0.38064  0.28948  0.21601  1.0000
  C   C22       1.0  0.38083  0.21454  0.24256  1.0000
  H   H21       1.0  0.37907  0.24307  0.20056  1.0000
  H   H22       1.0  0.35548  0.24429  0.25440  1.0000
  H   H23       1.0  0.32819  0.19714  0.25392  1.0000
  H   H24       1.0  0.31478  0.25932  0.23516  1.0000
  H   H25       1.0  0.36342  0.30190  0.21881  1.0000
  H   H26       1.0  0.39531  0.28976  0.23208  1.0000
  H   H27       1.0  0.17168  0.04099  0.03242  1.0000
  H   H28       1.0  0.37509  0.18979  0.23336  1.0000
  H   H29       1.0  0.38974  0.21178  0.26023  1.0000
  H   H30       1.0  0.40356  0.23788  0.23466  1.0000
  C   C23       1.0  0.29295  0.18383  0.18752  1.0000
  H   H31       1.0  0.34712  0.25495  0.18955  1.0000
  H   H32       1.0  0.30789  0.20401  0.17416  1.0000
  H   H33       1.0  0.25611  0.18057  0.22975  1.0000
  C   C24       1.0  0.30345  0.23409  0.22523  1.0000
  H   H34       1.0  0.26834  0.18518  0.19113  1.0000
  S   S9        1.0  0.46620  0.22568  0.23858  1.0000
  C   C25       1.0  0.27095  0.20648  0.23869  1.0000
  H   H35       1.0  0.08251  0.01269  0.09355  1.0000
  C   C26       1.0  0.08674  0.03652  0.10326  1.0000
  H   H36       1.0  0.40095  0.30712  0.20355  1.0000
  H   H37       1.0  0.35932  0.19097  0.07708  1.0000
  C   C27       1.0  0.28512  0.20897  0.02702  1.0000
  H   H38       1.0  0.11472  0.04905  0.10988  1.0000
  H   H39       1.0  0.29342  0.24024  0.20877  1.0000
  H   H40       1.0  0.26558  0.18246  0.03419  1.0000
  H   H41       1.0  0.28432  0.15704  0.18004  1.0000
  H   H42       1.0  0.32901  0.23038  0.06522  1.0000
  C   C28       1.0  0.06185  0.02570  0.12368  1.0000
  S   S10       1.0  0.45375  0.28587  0.28057  1.0000
  H   H43       1.0  0.40190  0.29033  0.01240  1.0000
  C   C29       1.0  0.32566  0.18789  0.01464  1.0000
  H   H44       1.0  0.30656  0.18394  0.06170  1.0000
  H   H45       1.0  0.30793  0.13122  0.00936  1.0000
  H   H46       1.0  0.01390  0.02795  0.15134  1.0000
  C   C30       1.0  0.34783  0.25253  0.02208  1.0000
  N   N2        1.0  0.02281  0.01227  0.11819  1.0000
  H   H47       1.0  0.38543  0.23575  0.06586  1.0000
  H   H48       1.0  0.98996  0.99331  0.07117  1.0000
  H   H49       1.0  0.33771  0.18206  0.20383  1.0000
  H   H50       1.0  0.28199  0.23757  0.05729  1.0000
  S   S11       1.0  0.20356  0.12617  0.00866  1.0000
  H   H51       1.0  0.24926  0.22981  0.03544  1.0000
  H   H52       1.0  0.03268  0.06718  0.11728  1.0000
  H   H53       1.0  0.06613  0.00503  0.13320  1.0000
  C   C31       1.0  0.31615  0.18771  0.20920  1.0000
  H   H54       1.0  0.07233  0.04941  0.13511  1.0000
  H   H55       1.0  0.19014  0.01883  0.00383  1.0000
  C   C32       1.0  0.14838  0.01878  0.02367  1.0000
  H   H56       1.0  0.00418  0.13058  0.09561  1.0000
  H   H57       1.0  0.29347  0.26442  0.03108  1.0000
  Fe  Fe5       1.0  0.45895  0.24182  0.20241  1.0000
  H   H58       1.0  0.19674  0.19090  0.01453  1.0000
  H   H59       1.0  0.35139  0.27195  0.03566  1.0000
  H   H60       1.0  0.27741  0.20849  0.00855  1.0000
  H   H61       1.0  0.37336  0.19651  0.04867  1.0000
  N   N3        1.0  0.32277  0.21455  0.02980  1.0000
  H   H62       1.0  0.33622  0.26018  0.00689  1.0000
  C   C33       1.0  0.32907  0.20892  0.05475  1.0000
  S   S12       1.0  0.46794  0.29651  0.21250  1.0000
  Fe  Fe6       1.0  0.47836  0.28128  0.24805  1.0000
  H   H63       1.0  0.30961  0.14193  0.03881  1.0000
  C   C34       1.0  0.47169  0.31887  0.32232  1.0000
  C   C35       1.0  0.00383  0.00347  0.14066  1.0000
  H   H64       1.0  0.04217  0.15538  0.00450  1.0000
  H   H65       1.0  0.13090  0.00012  0.03701  1.0000
  S   S13       1.0  0.98275  0.11105  0.04843  1.0000
  C   C36       1.0  0.12671  0.98627  0.11985  1.0000
  H   H66       1.0  0.98013  0.15105  0.00448  1.0000
  H   H67       1.0  0.99944  0.09210  0.00072  1.0000
  C   C37       1.0  0.30645  0.40874  0.48361  1.0000
  C   C38       1.0  0.05369  0.40665  0.49207  1.0000
  H   H68       1.0  0.40986  0.40109  0.45660  1.0000
  C   C39       1.0  0.37594  0.42316  0.46711  1.0000
  H   H69       1.0  0.29371  0.39205  0.46845  1.0000
  H   H70       1.0  0.28511  0.41043  0.49302  1.0000
  H   H71       1.0  0.21521  0.45729  0.65416  1.0000
  H   H72       1.0  0.08350  0.46442  0.46824  1.0000
  H   H73       1.0  0.44733  0.46580  0.51522  1.0000
  C   C40       1.0  0.02306  0.46539  0.48793  1.0000
  C   C41       1.0  0.46919  0.44406  0.49113  1.0000
  H   H74       1.0  0.35309  0.39562  0.46713  1.0000
  H   H75       1.0  0.03700  0.45878  0.54606  1.0000
  H   H76       1.0  0.07264  0.43805  0.52215  1.0000
  H   H77       1.0  0.38769  0.42657  0.48478  1.0000
  H   H78       1.0  0.32380  0.39154  0.43523  1.0000
  H   H79       1.0  0.00073  0.45140  0.49995  1.0000
  H   H80       1.0  0.03105  0.44789  0.45391  1.0000
  C   C42       1.0  0.33298  0.44978  0.66390  1.0000
  H   H81       1.0  0.03626  0.40167  0.47673  1.0000
  H   H82       1.0  0.04474  0.38044  0.50114  1.0000
  H   H83       1.0  0.42809  0.44757  0.44986  1.0000
  H   H84       1.0  0.31739  0.39517  0.49538  1.0000
  N   N4        1.0  0.05735  0.46896  0.49845  1.0000
  C   C43       1.0  0.40278  0.42206  0.45054  1.0000
  H   H85       1.0  0.45613  0.41733  0.49862  1.0000
  H   H86       1.0  0.12910  0.48274  0.62462  1.0000
  C   C44       1.0  0.05199  0.43352  0.50853  1.0000
  H   H87       1.0  0.08153  0.41570  0.48690  1.0000
  H   H88       1.0  0.02585  0.41915  0.51710  1.0000
  H   H89       1.0  0.29666  0.41348  0.43077  1.0000
  C   C45       1.0  0.32318  0.41558  0.42792  1.0000
  H   H90       1.0  0.32114  0.46163  0.47037  1.0000
  H   H91       1.0  0.99498  0.45677  0.45510  1.0000
  C   C46       1.0  0.00968  0.44512  0.46519  1.0000
  C   C47       1.0  0.35331  0.45128  0.43716  1.0000
  C   C48       1.0  0.35940  0.45809  0.64762  1.0000
  H   H92       1.0  0.16484  0.46670  0.64506  1.0000
  H   H93       1.0  0.34672  0.45985  0.49435  1.0000
  C   C49       1.0  0.46407  0.47148  0.50056  1.0000
  H   H94       1.0  0.38170  0.45329  0.65169  1.0000
  C   C50       1.0  0.33533  0.44716  0.47754  1.0000
  H   H95       1.0  0.39125  0.41462  0.43302  1.0000
  H   H96       1.0  0.99109  0.41622  0.46834  1.0000
  H   H97       1.0  0.32639  0.41440  0.40924  1.0000
  C   C51       1.0  0.30401  0.45580  0.65876  1.0000
  N   N5        1.0  0.36458  0.45138  0.46185  1.0000
  C   C52       1.0  0.35732  0.47283  0.62618  1.0000
  H   H98       1.0  0.27874  0.47380  0.63287  1.0000
  C   C53       1.0  0.30149  0.46988  0.63717  1.0000
  H   H99       1.0  0.18481  0.47401  0.49369  1.0000
  H   H100      1.0  0.37644  0.46091  0.42562  1.0000
  C   C54       1.0  0.32825  0.47874  0.62101  1.0000
  H   H101      1.0  0.23908  0.46967  0.48605  1.0000
  H   H102      1.0  0.01645  0.48345  0.53194  1.0000
  H   H103      1.0  0.34356  0.47119  0.43415  1.0000
  H   H104      1.0  0.47957  0.99874  0.47772  1.0000
  S   S14       1.0  0.39230  0.48472  0.60685  1.0000
  C   C55       1.0  0.04195  0.48443  0.53762  1.0000
  C   C56       1.0  0.08759  0.48368  0.48187  1.0000
  C   C57       1.0  0.23932  0.48616  0.49990  1.0000
  C   C58       1.0  0.21212  0.47734  0.66432  1.0000
  Fe  Fe7       1.0  0.10030  0.17974  0.88004  1.0000
  S   S15       1.0  0.12105  0.18329  0.84498  1.0000
  S   S16       1.0  0.04321  0.15477  0.89117  1.0000
  Fe  Fe8       1.0  0.17429  0.21873  0.90133  1.0000
  S   S17       1.0  0.20200  0.22647  0.86768  1.0000
  S   S18       1.0  0.19713  0.23810  0.93676  1.0000
  Fe  Fe9       1.0  0.16079  0.24088  0.85279  1.0000
  S   S19       1.0  0.16201  0.28028  0.82443  1.0000
  Fe  Fe10      1.0  0.16033  0.16884  0.86213  1.0000
  S   S20       1.0  0.16747  0.12566  0.84505  1.0000
  S   S21       1.0  0.13670  0.23787  0.88695  1.0000
  S   S22       1.0  0.13599  0.16035  0.89662  1.0000
  H   H105      1.0  0.00602  0.01763  0.92483  1.0000
  H   H106      1.0  0.09330  0.04606  0.87816  1.0000
  S   S23       1.0  0.28348  0.43606  0.79312  1.0000
  H   H107      1.0  0.01310  0.24684  0.78324  1.0000
  H   H108      1.0  0.28333  0.32461  0.76327  1.0000
  H   H109      1.0  0.19774  0.17059  0.93141  1.0000
  C   C59       1.0  0.04167  0.25391  0.78333  1.0000
  C   C60       1.0  0.33483  0.40403  0.75901  1.0000
  H   H110      1.0  0.03526  0.06900  0.88333  1.0000
  C   C61       1.0  0.19612  0.32387  0.81643  1.0000
  C   C62       1.0  0.23023  0.33956  0.82663  1.0000
  C   C63       1.0  0.25645  0.37399  0.81943  1.0000
  C   C64       1.0  0.24901  0.39319  0.80196  1.0000
  C   C65       1.0  0.21491  0.37750  0.79175  1.0000
  C   C66       1.0  0.18870  0.34306  0.79893  1.0000
  H   H111      1.0  0.23642  0.32524  0.84011  1.0000
  H   H112      1.0  0.28269  0.38586  0.82751  1.0000
  H   H113      1.0  0.20859  0.39213  0.77858  1.0000
  H   H114      1.0  0.16241  0.33132  0.79096  1.0000
  C   C67       1.0  0.98067  0.17253  0.83935  1.0000
  C   C68       1.0  0.01926  0.11151  0.85327  1.0000
  C   C69       1.0  0.01091  0.12016  0.87431  1.0000
  H   H115      1.0  0.07722  0.20264  0.77725  1.0000
  H   H116      1.0  0.22327  0.98940  0.87263  1.0000
  H   H117      1.0  0.04602  0.12635  0.84699  1.0000
  H   H118      1.0  0.99849  0.22883  0.83208  1.0000
  C   C70       1.0  0.16433  0.03716  0.89311  1.0000
  C   C71       1.0  0.15538  0.03021  0.86990  1.0000
  C   C72       1.0  0.15718  0.05776  0.85509  1.0000
  C   C73       1.0  0.16667  0.09189  0.86361  1.0000
  C   C74       1.0  0.17507  0.09856  0.88687  1.0000
  C   C75       1.0  0.17445  0.07144  0.90148  1.0000
  H   H119      1.0  0.32858  0.39889  0.72273  1.0000
  H   H120      1.0  0.15066  0.05253  0.83709  1.0000
  H   H121      1.0  0.18297  0.12493  0.89350  1.0000
  H   H122      1.0  0.18192  0.07721  0.91931  1.0000
  H   H123      1.0  0.22163  0.28503  0.74846  1.0000
  C   C76       1.0  0.19648  0.20575  0.95672  1.0000
  C   C77       1.0  0.19729  0.17502  0.94948  1.0000
  H   H124      1.0  0.02042  0.99606  0.83212  1.0000
  C   C78       1.0  0.16422  0.04491  0.96685  1.0000
  S   S24       1.0  0.26916  0.44247  0.67827  1.0000
  C   C79       1.0  0.00467  0.13891  0.94980  1.0000
  H   H125      1.0  0.08225  0.08995  0.85851  1.0000
  C   C80       1.0  0.06909  0.03405  0.86684  1.0000
  H   H126      1.0  0.99502  0.18471  0.98145  1.0000
  Fe  Fe11      1.0  0.28423  0.47190  0.76281  1.0000
  H   H127      1.0  0.08149  0.17390  0.79825  1.0000
  H   H128      1.0  0.08569  0.26436  0.80673  1.0000
  H   H129      1.0  0.99726  0.02431  0.85821  1.0000
  H   H130      1.0  0.26677  0.36908  0.68914  1.0000
  H   H131      1.0  0.18336  0.04255  0.95567  1.0000
  C   C81       1.0  0.19915  0.15076  0.96565  1.0000
  H   H132      1.0  0.11861  0.99565  0.95590  1.0000
  C   C82       1.0  0.03510  0.98868  0.89589  1.0000
  H   H133      1.0  0.02097  0.18141  0.79104  1.0000
  C   C83       1.0  0.19932  0.15654  0.98917  1.0000
  N   N6        1.0  0.27821  0.35856  0.73663  1.0000
  C   C84       1.0  0.26893  0.33331  0.71685  1.0000
  C   C85       1.0  0.26644  0.33753  0.75881  1.0000
  C   C86       1.0  0.26321  0.38428  0.73357  1.0000
  C   C87       1.0  0.27893  0.35146  0.69300  1.0000
  N   N7        1.0  0.01734  0.13023  0.97238  1.0000
  C   C88       1.0  0.22340  0.36855  0.72632  1.0000
  H   H134      1.0  0.24021  0.31379  0.71578  1.0000
  H   H135      1.0  0.28207  0.31615  0.71934  1.0000
  H   H136      1.0  0.13540  0.47266  0.67624  1.0000
  C   C89       1.0  0.03665  0.04827  0.89473  1.0000
  H   H137      1.0  0.26679  0.39916  0.74962  1.0000
  H   H138      1.0  0.27875  0.40583  0.72088  1.0000
  H   H139      1.0  0.32432  0.42304  0.76105  1.0000
  H   H140      1.0  0.26866  0.33039  0.67974  1.0000
  H   H141      1.0  0.03040  0.23736  0.86506  1.0000
  C   C90       1.0  0.22747  0.30749  0.76004  1.0000
  C   C91       1.0  0.05980  0.22046  0.84200  1.0000
  H   H142      1.0  0.05282  0.27333  0.81755  1.0000
  H   H143      1.0  0.20771  0.36945  0.74077  1.0000
  H   H144      1.0  0.21044  0.34084  0.72003  1.0000
  H   H145      1.0  0.22062  0.38521  0.71218  1.0000
  S   S25       1.0  0.23878  0.45795  0.73756  1.0000
  H   H146      1.0  0.05263  0.18597  0.98086  1.0000
  H   H147      1.0  0.10000  0.22036  0.80417  1.0000
  C   C92       1.0  0.23770  0.02521  0.83339  1.0000
  N   N8        1.0  0.03589  0.01854  0.88081  1.0000
  H   H148      1.0  0.20099  0.12772  0.95986  1.0000
  C   C93       1.0  0.31847  0.38035  0.73776  1.0000
  H   H149      1.0  0.36408  0.42043  0.75697  1.0000
  H   H150      1.0  0.06445  0.01990  0.92656  1.0000
  C   C94       1.0  0.07695  0.19755  0.79597  1.0000
  H   H151      1.0  0.24240  0.04788  0.82148  1.0000
  H   H152      1.0  0.11270  0.01447  0.98075  1.0000
  H   H153      1.0  0.20812  0.31761  0.75720  1.0000
  H   H154      1.0  0.33094  0.36251  0.73714  1.0000
  H   H155      1.0  0.05644  0.28168  0.77624  1.0000
  C   C95       1.0  0.07332  0.06411  0.84964  1.0000
  H   H156      1.0  0.04572  0.23626  0.77156  1.0000
  H   H157      1.0  0.07140  0.27392  0.85410  1.0000
  H   H158      1.0  0.00663  0.12236  0.93602  1.0000
  H   H159      1.0  0.03130  0.16314  0.81592  1.0000
  H   H160      1.0  0.25696  0.03594  0.84804  1.0000
  H   H161      1.0  0.09137  0.01051  0.90738  1.0000
  H   H162      1.0  0.33084  0.38786  0.77496  1.0000
  H   H163      1.0  0.33483  0.43833  0.68032  1.0000
  C   C96       1.0  0.00607  0.03688  0.91159  1.0000
  H   H164      1.0  0.22286  0.29581  0.77767  1.0000
  H   H165      1.0  0.06248  0.06303  0.90430  1.0000
  C   C97       1.0  0.99295  0.08301  0.84050  1.0000
  H   H166      1.0  0.98530  0.20112  0.80789  1.0000
  C   C98       1.0  0.04031  0.18847  0.80574  1.0000
  H   H167      1.0  0.99323  0.05122  0.97044  1.0000
  H   H168      1.0  0.27193  0.00619  0.82128  1.0000
  C   C99       1.0  0.19645  0.21146  0.98026  1.0000
  H   H169      1.0  0.04017  0.10083  0.95598  1.0000
  H   H170      1.0  0.05703  0.11485  0.98423  1.0000
  H   H171      1.0  0.17838  0.05970  0.98247  1.0000
  H   H172      1.0  0.27027  0.35577  0.77317  1.0000
  C   C100      1.0  0.00264  0.00298  0.86574  1.0000
  H   H173      1.0  0.02251  0.16733  0.94460  1.0000
  H   H174      1.0  0.08858  0.23084  0.83885  1.0000
  C   C101      1.0  0.04826  0.12332  0.96808  1.0000
  C   C102      1.0  0.03071  0.16136  0.98855  1.0000
  C   C103      1.0  0.05627  0.25317  0.80771  1.0000
  C   C104      1.0  0.05797  0.24546  0.85996  1.0000
  H   H175      1.0  0.05111  0.19370  0.85017  1.0000
  H   H176      1.0  0.23724  0.99918  0.80199  1.0000
  H   H177      1.0  0.15453  0.06182  0.95742  1.0000
  H   H178      1.0  0.10049  0.14514  0.95270  1.0000
  C   C105      1.0  0.24274  0.99671  0.82052  1.0000
  H   H179      1.0  0.99248  0.17556  0.85685  1.0000
  H   H180      1.0  0.04881  0.05775  0.83941  1.0000
  C   C106      1.0  0.06457  0.00007  0.91471  1.0000
  H   H181      1.0  0.99954  0.07589  0.82442  1.0000
  C   C107      1.0  0.08180  0.15495  0.95774  1.0000
  H   H182      1.0  0.07557  0.16647  0.94207  1.0000
  H   H183      1.0  0.07238  0.24400  0.87577  1.0000
  C   C108      1.0  0.00091  0.20649  0.82426  1.0000
  H   H184      1.0  0.30820  0.36698  0.69096  1.0000
  H   H185      1.0  0.14764  0.00386  0.86331  1.0000
  H   H186      1.0  0.21041  0.01587  0.83945  1.0000
  H   H187      1.0  0.09431  0.06843  0.83738  1.0000
  S   S26       1.0  0.32534  0.48442  0.73567  1.0000
  H   H188      1.0  0.00931  0.06110  0.92047  1.0000
  N   N9        1.0  0.03936  0.21719  0.81989  1.0000
  H   H189      1.0  0.09671  0.17641  0.97036  1.0000
  Fe  Fe12      1.0  0.28055  0.47390  0.71085  1.0000
  H   H190      1.0  0.19569  0.23514  0.98595  1.0000
  S   S27       1.0  0.16372  0.00393  0.91211  1.0000
  C   C109      1.0  0.13194  0.00821  0.97243  1.0000
  H   H191      1.0  0.19891  0.46354  0.68033  1.0000
  H   H192      1.0  0.07114  0.01267  0.85743  1.0000
  H   H193      1.0  0.18731  0.99497  0.96722  1.0000
  H   H194      1.0  0.97989  0.02543  0.90248  1.0000
  C   C110      1.0  0.98904  0.09702  0.98399  1.0000
  H   H195      1.0  0.38459  0.24839  0.99835  1.0000
  H   H196      1.0  0.31834  0.19138  0.99660  1.0000
  C   C111      1.0  0.19731  0.18662  0.99646  1.0000
  C   C112      1.0  0.00349  0.17292  0.99597  1.0000
  C   C113      1.0  0.10440  0.95342  0.08463  1.0000
  Fe  Fe13      1.0  0.98581  0.85977  0.11170  1.0000
  H   H197      1.0  0.08115  0.97350  0.01343  1.0000
  H   H198      1.0  0.03292  0.98310  0.16342  1.0000
  C   C114      1.0  0.09585  0.96097  0.13090  1.0000
  C   C115      1.0  0.02626  0.84926  0.01969  1.0000
  S   S28       1.0  0.03026  0.90156  0.13313  1.0000
  H   H199      1.0  0.00097  0.71152  0.08872  1.0000
  H   H200      1.0  0.02883  0.74221  0.02910  1.0000
  C   C116      1.0  0.01255  0.76012  0.99888  1.0000
  H   H201      1.0  0.10797  0.94998  0.06684  1.0000
  H   H202      1.0  0.99486  0.68911  0.06221  1.0000
  C   C117      1.0  0.00906  0.98418  0.07759  1.0000
  C   C118      1.0  0.07302  0.92870  0.09553  1.0000
  H   H203      1.0  0.11092  0.93327  0.00636  1.0000
  C   C119      1.0  0.06889  0.93226  0.11878  1.0000
  S   S29       1.0  0.98838  0.81900  0.08904  1.0000
  H   H204      1.0  0.05241  0.90652  0.08610  1.0000
  H   H205      1.0  0.05314  0.92763  0.00645  1.0000
  H   H206      1.0  0.99557  0.76188  0.06768  1.0000
  H   H207      1.0  0.02781  0.84677  0.03809  1.0000
  H   H208      1.0  0.99822  0.94892  0.14578  1.0000
  H   H209      1.0  0.02665  0.78255  0.03272  1.0000
  H   H210      1.0  0.00125  0.95800  0.06950  1.0000
  H   H211      1.0  0.07665  0.85062  0.01421  1.0000
  H   H212      1.0  0.02102  0.96246  0.10843  1.0000
  C   C120      1.0  0.05389  0.85155  0.00616  1.0000
  H   H213      1.0  0.09289  0.96367  0.14892  1.0000
  C   C121      1.0  0.01198  0.75524  0.02519  1.0000
  C   C122      1.0  0.13119  0.98242  0.09672  1.0000
  C   C123      1.0  0.07416  0.95373  0.99973  1.0000
  C   C124      1.0  0.99648  0.84966  0.00927  1.0000
  C   C125      1.0  0.00381  0.71570  0.06989  1.0000
  H   H214      1.0  0.98722  0.96641  0.16979  1.0000
  H   H215      1.0  0.03264  0.73315  0.06686  1.0000
  H   H216      1.0  0.98762  0.67438  0.29607  1.0000
  H   H217      1.0  0.16444  0.97900  0.01904  1.0000
  C   C126      1.0  0.00603  0.97377  0.15549  1.0000
  C   C127      1.0  0.00755  0.97882  0.10386  1.0000
  C   C128      1.0  0.98170  0.73389  0.06124  1.0000
  Fe  Fe14      1.0  0.42044  0.83650  0.56319  1.0000
  S   S30       1.0  0.36721  0.80194  0.57946  1.0000
  C   C129      1.0  0.12732  0.50343  0.63483  1.0000
  Fe  Fe15      1.0  0.35648  0.52105  0.53012  1.0000
  S   S31       1.0  0.36169  0.54100  0.56570  1.0000
  S   S32       1.0  0.47538  0.94382  0.50939  1.0000
  Fe  Fe16      1.0  0.41299  0.58715  0.55387  1.0000
  C   C130      1.0  0.40717  0.84242  0.66292  1.0000
  Fe  Fe17      1.0  0.39422  0.51311  0.57300  1.0000
  S   S33       1.0  0.40513  0.56938  0.51752  1.0000
  Fe  Fe18      1.0  0.17314  0.60649  0.57997  1.0000
  S   S34       1.0  0.16011  0.64331  0.55803  1.0000
  S   S35       1.0  0.19235  0.61205  0.61694  1.0000
  Fe  Fe19      1.0  0.16899  0.56058  0.53942  1.0000
  S   S36       1.0  0.15662  0.59418  0.51417  1.0000
  S   S37       1.0  0.16811  0.51043  0.52694  1.0000
  Fe  Fe20      1.0  0.19875  0.64105  0.53378  1.0000
  S   S38       1.0  0.24307  0.68883  0.51613  1.0000
  Fe  Fe21      1.0  0.11873  0.59281  0.54031  1.0000
  S   S39       1.0  0.05985  0.57670  0.53329  1.0000
  S   S40       1.0  0.21402  0.60716  0.55660  1.0000
  S   S41       1.0  0.12892  0.55627  0.56472  1.0000
  C   C131      1.0  0.27005  0.50416  0.51362  1.0000
  C   C132      1.0  0.27004  0.52540  0.53160  1.0000
  C   C133      1.0  0.23923  0.52862  0.53560  1.0000
  C   C134      1.0  0.20836  0.50999  0.52190  1.0000
  C   C135      1.0  0.24654  0.79125  0.64337  1.0000
  H   H218      1.0  0.21413  0.81323  0.62603  1.0000
  C   C136      1.0  0.41575  0.57086  0.63798  1.0000
  C   C137      1.0  0.22338  0.73406  0.58894  1.0000
  S   S42       1.0  0.42083  0.63948  0.56798  1.0000
  H   H219      1.0  0.23664  0.71877  0.63527  1.0000
  C   C138      1.0  0.33401  0.76971  0.56151  1.0000
  C   C139      1.0  0.33324  0.77587  0.53794  1.0000
  C   C140      1.0  0.30512  0.75097  0.52418  1.0000
  C   C141      1.0  0.27779  0.71966  0.53387  1.0000
  C   C142      1.0  0.27900  0.71307  0.55736  1.0000
  C   C143      1.0  0.30704  0.73806  0.57113  1.0000
  H   H220      1.0  0.35364  0.80037  0.53040  1.0000
  H   H221      1.0  0.30431  0.75618  0.50601  1.0000
  H   H222      1.0  0.25819  0.68886  0.56496  1.0000
  H   H223      1.0  0.30786  0.73283  0.58926  1.0000
  H   H224      1.0  0.36723  0.64130  0.53229  1.0000
  H   H225      1.0  0.41669  0.92603  0.66185  1.0000
  H   H226      1.0  0.32611  0.48965  0.60446  1.0000
  C   C144      1.0  0.42638  0.70455  0.55763  1.0000
  H   H227      1.0  0.39850  0.82497  0.47295  1.0000
  H   H228      1.0  0.14592  0.69157  0.64137  1.0000
  S   S43       1.0  0.46120  0.81952  0.57336  1.0000
  C   C145      1.0  0.18702  0.64041  0.63601  1.0000
  C   C146      1.0  0.16573  0.65641  0.63028  1.0000
  C   C147      1.0  0.06840  0.49520  0.51785  1.0000
  H   H229      1.0  0.15166  0.65105  0.61392  1.0000
  C   C148      1.0  0.02885  0.55373  0.46600  1.0000
  H   H230      1.0  0.05351  0.50538  0.55092  1.0000
  N   N10       1.0  0.18191  0.51762  0.66153  1.0000
  C   C149      1.0  0.03421  0.56096  0.50739  1.0000
  H   H231      1.0  0.39280  0.54736  0.62998  1.0000
  H   H232      1.0  0.45855  0.65294  0.65029  1.0000
  H   H233      1.0  0.45669  0.70733  0.63033  1.0000
  H   H234      1.0  0.43953  0.87783  0.45011  1.0000
  C   C150      1.0  0.05010  0.56737  0.48604  1.0000
  C   C151      1.0  0.20858  0.48868  0.50419  1.0000
  H   H235      1.0  0.22283  0.77075  0.65258  1.0000
  H   H236      1.0  0.07875  0.58314  0.48493  1.0000
  H   H237      1.0  0.32726  0.60120  0.52733  1.0000
  Fe  Fe22      1.0  0.43423  0.53830  0.52775  1.0000
  C   C152      1.0  0.29932  0.64033  0.49763  1.0000
  C   C153      1.0  0.39062  0.52051  0.46371  1.0000
  C   C154      1.0  0.30125  0.64069  0.53909  1.0000
  S   S44       1.0  0.47561  0.54187  0.50242  1.0000
  C   C155      1.0  0.35904  0.62254  0.49757  1.0000
  C   C156      1.0  0.43582  0.67876  0.55121  1.0000
  C   C157      1.0  0.37569  0.70480  0.49867  1.0000
  H   H238      1.0  0.39110  0.73445  0.50045  1.0000
  H   H239      1.0  0.39554  0.69493  0.49989  1.0000
  H   H240      1.0  0.25757  0.59600  0.47853  1.0000
  N   N11       1.0  0.25509  0.77393  0.62408  1.0000
  H   H241      1.0  0.40845  0.69895  0.57162  1.0000
  H   H242      1.0  0.27934  0.81952  0.60033  1.0000
  C   C158      1.0  0.26210  0.74404  0.63322  1.0000
  C   C159      1.0  0.28602  0.80066  0.61029  1.0000
  H   H243      1.0  0.31866  0.83147  0.64031  1.0000
  Fe  Fe23      1.0  0.47363  0.89991  0.53387  1.0000
  H   H244      1.0  0.18100  0.54252  0.62892  1.0000
  C   C160      1.0  0.32165  0.82259  0.62334  1.0000
  C   C161      1.0  0.43983  0.73758  0.54602  1.0000
  H   H245      1.0  0.02437  0.49205  0.48548  1.0000
  C   C162      1.0  0.16421  0.53137  0.64422  1.0000
  H   H246      1.0  0.32759  0.58163  0.64490  1.0000
  C   C163      1.0  0.41084  0.81482  0.64809  1.0000
  H   H247      1.0  0.27728  0.73761  0.62079  1.0000
  H   H248      1.0  0.29218  0.78680  0.59670  1.0000
  C   C164      1.0  0.47069  0.71581  0.61382  1.0000
  S   S45       1.0  0.45668  0.89483  0.57059  1.0000
  C   C165      1.0  0.46431  0.74592  0.52869  1.0000
  H   H249      1.0  0.19739  0.72246  0.57943  1.0000
  H   H250      1.0  0.22683  0.71099  0.59535  1.0000
  H   H251      1.0  0.07256  0.52187  0.51166  1.0000
  C   C166      1.0  0.47294  0.71968  0.52166  1.0000
  H   H252      1.0  0.46996  0.86641  0.42105  1.0000
  C   C167      1.0  0.22255  0.75755  0.60837  1.0000
  S   S46       1.0  0.30749  0.49918  0.50720  1.0000
  H   H253      1.0  0.33662  0.80722  0.62508  1.0000
  H   H254      1.0  0.26170  0.84455  0.62764  1.0000
  H   H255      1.0  0.33804  0.84777  0.61355  1.0000
  H   H256      1.0  0.11283  0.48816  0.49082  1.0000
  H   H257      1.0  0.43117  0.75656  0.55058  1.0000
  H   H258      1.0  0.38524  0.52517  0.44561  1.0000
  H   H259      1.0  0.19818  0.74058  0.61832  1.0000
  H   H260      1.0  0.39025  0.61884  0.64967  1.0000
  H   H261      1.0  0.23895  0.54455  0.54962  1.0000
  N   N12       1.0  0.40650  0.57913  0.66090  1.0000
  H   H262      1.0  0.43188  0.81155  0.47810  1.0000
  H   H263      1.0  0.30121  0.63884  0.57625  1.0000
  H   H264      1.0  0.28292  0.61131  0.54040  1.0000
  H   H265      1.0  0.16152  0.55413  0.65118  1.0000
  H   H266      1.0  0.20392  0.50232  0.63363  1.0000
  H   H267      1.0  0.29353  0.53900  0.54246  1.0000
  H   H268      1.0  0.26808  0.80200  0.65665  1.0000
  H   H269      1.0  0.24407  0.75006  0.57633  1.0000
  H   H270      1.0  0.31376  0.64792  0.48139  1.0000
  H   H271      1.0  0.36250  0.69971  0.48155  1.0000
  H   H272      1.0  0.23484  0.83377  0.65233  1.0000
  H   H273      1.0  0.41552  0.54472  0.46910  1.0000
  H   H274      1.0  0.38983  0.85076  0.65272  1.0000
  H   H275      1.0  0.45264  0.88015  0.47938  1.0000
  H   H276      1.0  0.24944  0.59326  0.50828  1.0000
  H   H277      1.0  0.42209  0.82621  0.63114  1.0000
  C   C168      1.0  0.27080  0.60053  0.49570  1.0000
  S   S47       1.0  0.44644  0.56074  0.56346  1.0000
  H   H278      1.0  0.04149  0.55882  0.44961  1.0000
  H   H279      1.0  0.33381  0.68075  0.56512  1.0000
  H   H280      1.0  0.38723  0.62873  0.50061  1.0000
  H   H281      1.0  0.21777  0.77868  0.59977  1.0000
  H   H282      1.0  0.30719  0.77479  0.65754  1.0000
  C   C169      1.0  0.34437  0.62846  0.51997  1.0000
  H   H283      1.0  0.36577  0.69759  0.53406  1.0000
  H   H284      1.0  0.46868  0.82769  0.43425  1.0000
  C   C170      1.0  0.34903  0.68943  0.51822  1.0000
  H   H285      1.0  0.28230  0.58205  0.49766  1.0000
  N   N13       1.0  0.32412  0.64952  0.51829  1.0000
  H   H286      1.0  0.35897  0.63916  0.48275  1.0000
  S   S48       1.0  0.43313  0.84251  0.52596  1.0000
  H   H287      1.0  0.28389  0.65364  0.53761  1.0000
  H   H288      1.0  0.28487  0.65640  0.49742  1.0000
  H   H289      1.0  0.34090  0.64166  0.56506  1.0000
  H   H290      1.0  0.33349  0.70436  0.51800  1.0000
  H   H291      1.0  0.34432  0.59375  0.49278  1.0000
  H   H292      1.0  0.22118  0.63473  0.66197  1.0000
  H   H293      1.0  0.28768  0.72704  0.65998  1.0000
  H   H294      1.0  0.45989  0.61741  0.62155  1.0000
  C   C171      1.0  0.32102  0.65132  0.56252  1.0000
  C   C172      1.0  0.16250  0.67928  0.64585  1.0000
  H   H295      1.0  0.46632  0.88077  0.63761  1.0000
  C   C173      1.0  0.99677  0.54122  0.50833  1.0000
  C   C174      1.0  0.43042  0.60140  0.61999  1.0000
  C   C175      1.0  0.42305  0.82646  0.46594  1.0000
  H   H296      1.0  0.41918  0.49270  0.45558  1.0000
  C   C176      1.0  0.28167  0.74956  0.65666  1.0000
  H   H297      1.0  0.11617  0.52585  0.45680  1.0000
  H   H298      1.0  0.10751  0.49039  0.64839  1.0000
  C   C177      1.0  0.20481  0.64718  0.65741  1.0000
  S   S49       1.0  0.38466  0.48849  0.53805  1.0000
  C   C178      1.0  0.24522  0.56901  0.65303  1.0000
  H   H299      1.0  0.43624  0.56183  0.64002  1.0000
  H   H300      1.0  0.41532  0.81259  0.44929  1.0000
  H   H301      1.0  0.46443  0.69085  0.60469  1.0000
  H   H302      1.0  0.36916  0.51889  0.47461  1.0000
  H   H303      1.0  0.43972  0.90153  0.63810  1.0000
  Fe  Fe24      1.0  0.47647  0.82936  0.53667  1.0000
  H   H304      1.0  0.23645  0.58079  0.63867  1.0000
  H   H305      1.0  0.38388  0.79193  0.64468  1.0000
  H   H306      1.0  0.10484  0.54186  0.48117  1.0000
  C   C179      1.0  0.99145  0.53342  0.46697  1.0000
  H   H307      1.0  0.32797  0.54283  0.65701  1.0000
  H   H308      1.0  0.07107  0.51657  0.45967  1.0000
  C   C180      1.0  0.09487  0.51898  0.46937  1.0000
  C   C181      1.0  0.23898  0.82243  0.63653  1.0000
  H   H309      1.0  0.47501  0.77996  0.64907  1.0000
  H   H310      1.0  0.41831  0.61929  0.62014  1.0000
  H   H311      1.0  0.98410  0.53637  0.52470  1.0000
  H   H312      1.0  0.42676  0.80345  0.65680  1.0000
  C   C182      1.0  0.45115  0.86643  0.46308  1.0000
  H   H313      1.0  0.36723  0.52320  0.66482  1.0000
  C   C183      1.0  0.34385  0.56759  0.64677  1.0000
  H   H314      1.0  0.42351  0.58931  0.60276  1.0000
  C   C184      1.0  0.45876  0.89644  0.64903  1.0000
  H   H315      1.0  0.34756  0.56054  0.62933  1.0000
  C   C185      1.0  0.18996  0.49105  0.64999  1.0000
  H   H316      1.0  0.25535  0.55160  0.64619  1.0000
  H   H317      1.0  0.11684  0.51747  0.62305  1.0000
  H   H318      1.0  0.26810  0.59166  0.66175  1.0000
  H   H319      1.0  0.47640  0.93662  0.44635  1.0000
  C   C186      1.0  0.37962  0.59270  0.65886  1.0000
  H   H320      1.0  0.46579  0.66598  0.52776  1.0000
  C   C187      1.0  0.45840  0.68587  0.53279  1.0000
  H   H321      1.0  0.09458  0.50008  0.52550  1.0000
  H   H322      1.0  0.45928  0.73102  0.60421  1.0000
  H   H323      1.0  0.40658  0.48788  0.48459  1.0000
  C   C188      1.0  0.39656  0.48741  0.46669  1.0000
  Fe  Fe25      1.0  0.09070  0.87454  0.92892  1.0000
  S   S50       1.0  0.07186  0.84235  0.89656  1.0000
  S   S51       1.0  0.08582  0.85491  0.96571  1.0000
  Fe  Fe26      1.0  0.12999  0.94577  0.90307  1.0000
  S   S52       1.0  0.11466  0.92014  0.86870  1.0000
  H   H324      1.0  0.24852  0.77643  0.82560  1.0000
  Fe  Fe27      1.0  0.06073  0.88718  0.88421  1.0000
  Fe  Fe28      1.0  0.12735  0.87769  0.88347  1.0000
  S   S53       1.0  0.16704  0.86090  0.86993  1.0000
  S   S54       1.0  0.07540  0.91629  0.91748  1.0000
  S   S55       1.0  0.14673  0.90637  0.91701  1.0000
  Fe  Fe29      1.0  0.33371  0.54096  0.73664  1.0000
  S   S56       1.0  0.29175  0.53087  0.70959  1.0000
  S   S57       1.0  0.38295  0.59117  0.72576  1.0000
  Fe  Fe30      1.0  0.25452  0.51677  0.73857  1.0000
  S   S58       1.0  0.21636  0.53933  0.73346  1.0000
  S   S59       1.0  0.29703  0.53022  0.76590  1.0000
  Fe  Fe31      1.0  0.28847  0.78892  0.73489  1.0000
  S   S60       1.0  0.27224  0.78050  0.77173  1.0000
  S   S61       1.0  0.34310  0.81983  0.71962  1.0000
  Fe  Fe32      1.0  0.21383  0.73775  0.71687  1.0000
  S   S62       1.0  0.19132  0.72415  0.75202  1.0000
  S   S63       1.0  0.17902  0.71848  0.68491  1.0000
  Fe  Fe33      1.0  0.22293  0.78333  0.75926  1.0000
  S   S64       1.0  0.19180  0.80979  0.77351  1.0000
  Fe  Fe34      1.0  0.24169  0.72231  0.76187  1.0000
  S   S65       1.0  0.24482  0.68048  0.78506  1.0000
  S   S66       1.0  0.24219  0.79705  0.72301  1.0000
  S   S67       1.0  0.26138  0.73056  0.72610  1.0000
  H   H325      1.0  0.32683  0.74831  0.78049  1.0000
  H   H326      1.0  0.22214  0.93997  0.79450  1.0000
  H   H327      1.0  0.33491  0.61026  0.78298  1.0000
  C   C189      1.0  0.10600  0.94898  0.99243  1.0000
  H   H328      1.0  0.38846  0.71024  0.70140  1.0000
  C   C190      1.0  0.37956  0.82544  0.73730  1.0000
  C   C191      1.0  0.40362  0.81482  0.72936  1.0000
  C   C192      1.0  0.43565  0.82370  0.74147  1.0000
  C   C193      1.0  0.44387  0.84332  0.76164  1.0000
  C   C194      1.0  0.41924  0.85295  0.76998  1.0000
  C   C195      1.0  0.38704  0.84388  0.75790  1.0000
  H   H329      1.0  0.39771  0.80016  0.71361  1.0000
  H   H330      1.0  0.45457  0.81661  0.73467  1.0000
  C   C196      1.0  0.18109  0.68690  0.66696  1.0000
  H   H331      1.0  0.36871  0.85241  0.76406  1.0000
  H   H332      1.0  0.33163  0.69624  0.78795  1.0000
  C   C197      1.0  0.99505  0.85359  0.98542  1.0000
  C   C198      1.0  0.22660  0.57955  0.74746  1.0000
  C   C199      1.0  0.21546  0.60312  0.73743  1.0000
  C   C200      1.0  0.22145  0.63435  0.74874  1.0000
  C   C201      1.0  0.23788  0.64180  0.77044  1.0000
  C   C202      1.0  0.24924  0.61841  0.78047  1.0000
  C   C203      1.0  0.24407  0.58759  0.76888  1.0000
  H   H333      1.0  0.20208  0.59730  0.72087  1.0000
  H   H334      1.0  0.21248  0.65214  0.74088  1.0000
  H   H335      1.0  0.26185  0.62398  0.79730  1.0000
  H   H336      1.0  0.25240  0.56938  0.77686  1.0000
  C   C204      1.0  0.41452  0.62291  0.74451  1.0000
  H   H337      1.0  0.22738  0.54047  0.68507  1.0000
  H   H338      1.0  0.23652  0.96139  0.88894  1.0000
  C   C205      1.0  0.41345  0.61755  0.76823  1.0000
  H   H339      1.0  0.37629  0.66872  0.71596  1.0000
  C   C206      1.0  0.22869  0.93509  0.81239  1.0000
  H   H340      1.0  0.39299  0.59288  0.77561  1.0000
  C   C207      1.0  0.17248  0.84537  0.84320  1.0000
  C   C208      1.0  0.14917  0.83977  0.82452  1.0000
  C   C209      1.0  0.15558  0.82886  0.80340  1.0000
  C   C210      1.0  0.18505  0.82300  0.80072  1.0000
  C   C211      1.0  0.20837  0.82860  0.81941  1.0000
  C   C212      1.0  0.20210  0.83975  0.84048  1.0000
  H   H341      1.0  0.12633  0.84403  0.82628  1.0000
  H   H342      1.0  0.13745  0.82476  0.78903  1.0000
  H   H343      1.0  0.23147  0.82488  0.81752  1.0000
  H   H344      1.0  0.22047  0.84428  0.85477  1.0000
  C   C213      1.0  0.02281  0.85623  0.97193  1.0000
  C   C214      1.0  0.05200  0.85458  0.98224  1.0000
  H   H345      1.0  0.37219  0.76307  0.77332  1.0000
  H   H346      1.0  0.02112  0.85854  0.95351  1.0000
  H   H347      1.0  0.38010  0.70391  0.80504  1.0000
  C   C215      1.0  0.33572  0.70458  0.76974  1.0000
  H   H348      1.0  0.32815  0.64410  0.79555  1.0000
  H   H349      1.0  0.19335  0.94191  0.87590  1.0000
  H   H350      1.0  0.47890  0.66168  0.67812  1.0000
  C   C216      1.0  0.43212  0.89533  0.68681  1.0000
  H   H351      1.0  0.43517  0.60256  0.69257  1.0000
  H   H352      1.0  0.28688  0.96724  0.80729  1.0000
  C   C217      1.0  0.26676  0.93956  0.81204  1.0000
  H   H353      1.0  0.18533  0.93649  0.96964  1.0000
  H   H354      1.0  0.23938  0.49897  0.66838  1.0000
  H   H355      1.0  0.45603  0.91901  0.69366  1.0000
  H   H356      1.0  0.40422  0.92624  0.69066  1.0000
  C   C218      1.0  0.22145  0.96252  0.87335  1.0000
  H   H357      1.0  0.43837  0.64033  0.80077  1.0000
  H   H358      1.0  0.17264  0.49253  0.69519  1.0000
  H   H359      1.0  0.37928  0.88686  0.67438  1.0000
  H   H360      1.0  0.17635  0.95981  0.84195  1.0000
  C   C219      1.0  0.14206  0.52037  0.69290  1.0000
  H   H361      1.0  0.39146  0.82760  0.67814  1.0000
  H   H362      1.0  0.43606  0.54673  0.69416  1.0000
  C   C220      1.0  0.46531  0.86148  0.68197  1.0000
  C   C221      1.0  0.18312  0.94484  0.82964  1.0000
  H   H363      1.0  0.39838  0.50331  0.69200  1.0000
  H   H364      1.0  0.21620  0.67597  0.68912  1.0000
  H   H365      1.0  0.05984  0.97607  0.92525  1.0000
  H   H366      1.0  0.03739  0.96830  0.88550  1.0000
  H   H367      1.0  0.09589  0.93076  0.97745  1.0000
  N   N14       1.0  0.22276  0.95833  0.82897  1.0000
  H   H368      1.0  0.46217  0.60000  0.67110  1.0000
  H   H369      1.0  0.12396  0.52561  0.68129  1.0000
  H   H370      1.0  0.12182  0.73952  0.85031  1.0000
  H   H371      1.0  0.00894  0.97347  0.90438  1.0000
  C   C222      1.0  0.46643  0.68164  0.74917  1.0000
  H   H372      1.0  0.13627  0.93781  0.80994  1.0000
  C   C223      1.0  0.34416  0.74425  0.76849  1.0000
  N   N15       1.0  0.36234  0.69620  0.75882  1.0000
  C   C224      1.0  0.36296  0.70609  0.73373  1.0000
  C   C225      1.0  0.34921  0.65625  0.76040  1.0000
  C   C226      1.0  0.38716  0.69795  0.71861  1.0000
  C   C227      1.0  0.34628  0.63980  0.78454  1.0000
  H   H373      1.0  0.33552  0.69238  0.72596  1.0000
  H   H374      1.0  0.37237  0.73537  0.73148  1.0000
  H   H375      1.0  0.30892  0.68868  0.76151  1.0000
  H   H376      1.0  0.32250  0.64136  0.75176  1.0000
  H   H377      1.0  0.36715  0.64890  0.75137  1.0000
  H   H378      1.0  0.37290  0.64947  0.79294  1.0000
  H   H379      1.0  0.41494  0.70967  0.72546  1.0000
  H   H380      1.0  0.33784  0.75140  0.75119  1.0000
  H   H381      1.0  0.99378  0.87573  0.91063  1.0000
  C   C228      1.0  0.38961  0.54449  0.67464  1.0000
  H   H382      1.0  0.12871  0.63656  0.85154  1.0000
  H   H383      1.0  0.41956  0.87829  0.70217  1.0000
  S   S68       1.0  0.01377  0.88269  0.86286  1.0000
  H   H384      1.0  0.16468  0.92688  0.79430  1.0000
  H   H385      1.0  0.12614  0.50442  0.70768  1.0000
  H   H386      1.0  0.19068  0.66760  0.81740  1.0000
  C   C229      1.0  0.39962  0.71704  0.76885  1.0000
  H   H387      1.0  0.41606  0.70433  0.76424  1.0000
  C   C230      1.0  0.14626  0.63486  0.83867  1.0000
  H   H388      1.0  0.19527  0.68196  0.84611  1.0000
  H   H389      1.0  0.15863  0.61919  0.84662  1.0000
  C   C231      1.0  0.40351  0.72230  0.79507  1.0000
  H   H390      1.0  0.41308  0.74459  0.76115  1.0000
  H   H391      1.0  0.42612  0.71817  0.80156  1.0000
  H   H392      1.0  0.14369  0.73332  0.78677  1.0000
  C   C232      1.0  0.17614  0.67215  0.83130  1.0000
  H   H393      1.0  0.21981  0.75538  0.84917  1.0000
  H   H394      1.0  0.14921  0.75597  0.82613  1.0000
  C   C233      1.0  0.45329  0.64592  0.66856  1.0000
  H   H395      1.0  0.20811  0.72475  0.80042  1.0000
  H   H396      1.0  0.14944  0.67528  0.79049  1.0000
  H   H397      1.0  0.13019  0.61920  0.82374  1.0000
  H   H398      1.0  0.11390  0.65883  0.81005  1.0000
  C   C234      1.0  0.13781  0.68362  0.80439  1.0000
  H   H399      1.0  0.16312  0.70774  0.86001  1.0000
  C   C235      1.0  0.12281  0.70723  0.79337  1.0000
  H   H400      1.0  0.41104  0.75049  0.79922  1.0000
  C   C236      1.0  0.22845  0.75016  0.83272  1.0000
  H   H401      1.0  0.24240  0.73398  0.83576  1.0000
  C   C237      1.0  0.46554  0.67649  0.77287  1.0000
  N   N16       1.0  0.16461  0.69960  0.82385  1.0000
  C   C238      1.0  0.19734  0.73213  0.81521  1.0000
  C   C239      1.0  0.16471  0.94613  0.80676  1.0000
  H   H402      1.0  0.19139  0.75333  0.80837  1.0000
  H   H403      1.0  0.12044  0.68578  0.84626  1.0000
  H   H404      1.0  0.10541  0.71133  0.80522  1.0000
  C   C240      1.0  0.14828  0.70756  0.84391  1.0000
  H   H405      1.0  0.10572  0.69305  0.77833  1.0000
  C   C241      1.0  0.14737  0.74368  0.84324  1.0000
  H   H406      1.0  0.21052  0.90616  0.81599  1.0000
  C   C242      1.0  0.44104  0.65493  0.73507  1.0000
  C   C243      1.0  0.23675  0.95395  0.85230  1.0000
  H   H407      1.0  0.37742  0.54756  0.69032  1.0000
  C   C244      1.0  0.43911  0.64436  0.78241  1.0000
  C   C245      1.0  0.43960  0.60560  0.67379  1.0000
  H   H408      1.0  0.42539  0.86810  0.78558  1.0000
  H   H409      1.0  0.37336  0.59814  0.67619  1.0000
  H   H410      1.0  0.20968  0.56965  0.67765  1.0000
  H   H411      1.0  0.16852  0.76346  0.85468  1.0000
  H   H412      1.0  0.23119  0.92560  0.85512  1.0000
  C   C246      1.0  0.20204  0.67053  0.67281  1.0000
  H   H413      1.0  0.26436  0.74858  0.67072  1.0000
  H   H414      1.0  0.44190  0.65933  0.71679  1.0000
  H   H415      1.0  0.14704  0.96050  0.95536  1.0000
  H   H416      1.0  0.16944  0.91648  0.83603  1.0000
  H   H417      1.0  0.44925  0.83581  0.69140  1.0000
  C   C247      1.0  0.16150  0.97153  0.97189  1.0000
  H   H418      1.0  0.27455  0.93136  0.82853  1.0000
  C   C248      1.0  0.15795  0.49904  0.68138  1.0000
  C   C249      1.0  0.21556  0.54904  0.67053  1.0000
  C   C250      1.0  0.41434  0.52874  0.68235  1.0000
  H   H419      1.0  0.26737  0.92145  0.79888  1.0000
  C   C251      1.0  0.40662  0.90918  0.67749  1.0000
  H   H420      1.0  0.00924  0.95867  0.85165  1.0000
  H   H421      1.0  0.99853  0.73421  0.98985  1.0000
  H   H422      1.0  0.43463  0.65501  0.67468  1.0000
  H   H423      1.0  0.17662  0.97359  0.79922  1.0000
  C   C252      1.0  0.17092  0.94320  0.98247  1.0000
  H   H424      1.0  0.16301  0.54606  0.69987  1.0000
  H   H425      1.0  0.26629  0.97057  0.85351  1.0000
  C   C253      1.0  0.00224  0.97966  0.84587  1.0000
  H   H426      1.0  0.14693  0.91771  0.98687  1.0000
  N   N17       1.0  0.44156  0.87474  0.67024  1.0000
  H   H427      1.0  0.06199  0.96105  0.98483  1.0000
  N   N18       1.0  0.14009  0.98257  0.98662  1.0000
  H   H428      1.0  0.42558  0.52190  0.66767  1.0000
  H   H429      1.0  0.00173  0.77814  0.99295  1.0000
  H   H430      1.0  0.04072  0.77341  0.99337  1.0000
  H   H431      1.0  0.18891  0.95349  0.99769  1.0000
  Fe  Fe35      1.0  0.89139  0.03350  0.10599  1.0000
  S   S69       1.0  0.90513  0.02768  0.07046  1.0000
  Fe  Fe36      1.0  0.87051  0.09081  0.09280  1.0000
  S   S70       1.0  0.88314  0.09000  0.05564  1.0000
  S   S71       1.0  0.84418  0.12489  0.10169  1.0000
  Fe  Fe37      1.0  0.85575  0.03012  0.05965  1.0000
  H   H432      1.0  0.62389  0.34547  0.27577  1.0000
  Fe  Fe38      1.0  0.93213  0.08773  0.06883  1.0000
  H   H433      1.0  0.79243  0.33314  0.31494  1.0000
  S   S72       1.0  0.83909  0.03049  0.09553  1.0000
  S   S73       1.0  0.92242  0.09394  0.10570  1.0000
  Fe  Fe39      1.0  0.52635  0.31442  0.20753  1.0000
  S   S74       1.0  0.53695  0.30369  0.24382  1.0000
  S   S75       1.0  0.56642  0.36481  0.18945  1.0000
  Fe  Fe40      1.0  0.52421  0.24947  0.23134  1.0000
  S   S76       1.0  0.56125  0.23091  0.24771  1.0000
  H   H434      1.0  0.69668  0.99601  0.15281  1.0000
  S   S77       1.0  0.51691  0.26100  0.19446  1.0000
  Fe  Fe41      1.0  0.77936  0.19777  0.20482  1.0000
  S   S78       1.0  0.81358  0.24922  0.22364  1.0000
  S   S79       1.0  0.80443  0.16186  0.19787  1.0000
  Fe  Fe42      1.0  0.71630  0.21342  0.20218  1.0000
  S   S80       1.0  0.74619  0.26606  0.21997  1.0000
  S   S81       1.0  0.66003  0.19407  0.18879  1.0000
  Fe  Fe43      1.0  0.79143  0.27445  0.19821  1.0000
  S   S82       1.0  0.82675  0.32474  0.17842  1.0000
  Fe  Fe44      1.0  0.76490  0.23581  0.24395  1.0000
  S   S83       1.0  0.76653  0.24896  0.28139  1.0000
  S   S84       1.0  0.76028  0.22408  0.17812  1.0000
  S   S85       1.0  0.73205  0.18218  0.22743  1.0000
  H   H435      1.0  0.60330  0.10310  0.29797  1.0000
  C   C254      1.0  0.81348  0.35812  0.17466  1.0000
  C   C255      1.0  0.81974  0.37638  0.15362  1.0000
  C   C256      1.0  0.81180  0.40467  0.15022  1.0000
  C   C257      1.0  0.79886  0.41605  0.16809  1.0000
  C   C258      1.0  0.79241  0.39780  0.18926  1.0000
  C   C259      1.0  0.79916  0.36840  0.19243  1.0000
  H   H436      1.0  0.83090  0.36872  0.13987  1.0000
  H   H437      1.0  0.81665  0.41847  0.13382  1.0000
  H   H438      1.0  0.78225  0.40630  0.20312  1.0000
  H   H439      1.0  0.79461  0.35463  0.20882  1.0000
  C   C260      1.0  0.58968  0.22542  0.22923  1.0000
  C   C261      1.0  0.62534  0.23771  0.23599  1.0000
  C   C262      1.0  0.64723  0.22857  0.22352  1.0000
  C   C263      1.0  0.63374  0.20766  0.20395  1.0000
  C   C264      1.0  0.59855  0.19692  0.19653  1.0000
  C   C265      1.0  0.57649  0.20578  0.20916  1.0000
  H   H440      1.0  0.63586  0.25374  0.25115  1.0000
  H   H441      1.0  0.67415  0.23682  0.22948  1.0000
  H   H442      1.0  0.58804  0.18092  0.18131  1.0000
  H   H443      1.0  0.54893  0.19618  0.20385  1.0000
  C   C266      1.0  0.60263  0.39728  0.20564  1.0000
  C   C267      1.0  0.63226  0.42377  0.19422  1.0000
  C   C268      1.0  0.63269  0.42215  0.24196  1.0000
  C   C269      1.0  0.60277  0.39687  0.22958  1.0000
  C   C270      1.0  0.66284  0.44770  0.23047  1.0000
  H   H444      1.0  0.57962  0.37767  0.23858  1.0000
  H   H445      1.0  0.67579  0.39413  0.32881  1.0000
  C   C271      1.0  0.73955  0.21403  0.30034  1.0000
  C   C272      1.0  0.72465  0.17801  0.29418  1.0000
  C   C273      1.0  0.82613  0.01898  0.16541  1.0000
  H   H446      1.0  0.73032  0.17112  0.27776  1.0000
  H   H447      1.0  0.80722  0.05708  0.13109  1.0000
  H   H448      1.0  0.85027  0.02794  0.17668  1.0000
  H   H449      1.0  0.83590  0.36087  0.25745  1.0000
  C   C274      1.0  0.66250  0.44853  0.20656  1.0000
  S   S86       1.0  0.89775  0.99954  0.13416  1.0000
  C   C275      1.0  0.83485  0.13640  0.12859  1.0000
  C   C276      1.0  0.85217  0.13434  0.14886  1.0000
  C   C277      1.0  0.84331  0.14324  0.16988  1.0000
  C   C278      1.0  0.81710  0.15429  0.17085  1.0000
  C   C279      1.0  0.80006  0.15667  0.15054  1.0000
  C   C280      1.0  0.80908  0.14802  0.12954  1.0000
  H   H450      1.0  0.87230  0.12578  0.14835  1.0000
  H   H451      1.0  0.85653  0.14115  0.18552  1.0000
  H   H452      1.0  0.77922  0.16422  0.15110  1.0000
  H   H453      1.0  0.79545  0.14959  0.11395  1.0000
  C   C281      1.0  0.62758  0.17376  0.30056  1.0000
  N   N19       1.0  0.84485  0.38087  0.31604  1.0000
  H   H454      1.0  0.87023  0.40715  0.28437  1.0000
  C   C282      1.0  0.85566  0.37958  0.29191  1.0000
  S   S87       1.0  0.81971  0.99001  0.03354  1.0000
  C   C283      1.0  0.52991  0.13571  0.27866  1.0000
  H   H455      1.0  0.51745  0.10816  0.28606  1.0000
  C   C284      1.0  0.58959  0.32340  0.30495  1.0000
  H   H456      1.0  0.63005  0.26064  0.32171  1.0000
  H   H457      1.0  0.94298  0.99053  0.00675  1.0000
  C   C285      1.0  0.53895  0.26224  0.30427  1.0000
  H   H458      1.0  0.57209  0.33375  0.29701  1.0000
  H   H459      1.0  0.52266  0.27349  0.29557  1.0000
  C   C286      1.0  0.68820  0.45017  0.32921  1.0000
  H   H460      1.0  0.80802  0.28851  0.32358  1.0000
  H   H461      1.0  0.80453  0.36657  0.27386  1.0000
  H   H462      1.0  0.61957  0.10679  0.25577  1.0000
  N   N20       1.0  0.59442  0.14771  0.28768  1.0000
  C   C287      1.0  0.53540  0.37618  0.30745  1.0000
  H   H463      1.0  0.92910  0.01747  0.02155  1.0000
  H   H464      1.0  0.81219  0.32838  0.27903  1.0000
  N   N21       1.0  0.77125  0.02948  0.15881  1.0000
  C   C288      1.0  0.60156  0.25268  0.31800  1.0000
  H   H465      1.0  0.77697  0.06762  0.20155  1.0000
  C   C289      1.0  0.82795  0.40505  0.31598  1.0000
  H   H466      1.0  0.59443  0.29885  0.27317  1.0000
  C   C290      1.0  0.90597  0.43409  0.32715  1.0000
  H   H467      1.0  0.91555  0.43877  0.30938  1.0000
  H   H468      1.0  0.54988  0.25436  0.29003  1.0000
  H   H469      1.0  0.63254  0.42177  0.26044  1.0000
  N   N22       1.0  0.87427  0.27193  0.14397  1.0000
  C   C291      1.0  0.84584  0.27529  0.12960  1.0000
  C   C292      1.0  0.90336  0.30960  0.14877  1.0000
  C   C293      1.0  0.85782  0.25402  0.16631  1.0000
  C   C294      1.0  0.88685  0.24973  0.13121  1.0000
  C   C295      1.0  0.81307  0.23983  0.12233  1.0000
  C   C296      1.0  0.92197  0.33272  0.12759  1.0000
  C   C297      1.0  0.88177  0.24673  0.18356  1.0000
  C   C298      1.0  0.92425  0.25431  0.13774  1.0000
  H   H470      1.0  0.83581  0.29145  0.13856  1.0000
  H   H471      1.0  0.85689  0.28990  0.11329  1.0000
  H   H472      1.0  0.92456  0.30996  0.16033  1.0000
  H   H473      1.0  0.89247  0.32454  0.15830  1.0000
  H   H474      1.0  0.84777  0.27013  0.17522  1.0000
  H   H475      1.0  0.83421  0.22752  0.16346  1.0000
  H   H476      1.0  0.86743  0.22063  0.13305  1.0000
  H   H477      1.0  0.88739  0.25583  0.11251  1.0000
  H   H478      1.0  0.82046  0.22194  0.11312  1.0000
  H   H479      1.0  0.79618  0.22520  0.13694  1.0000
  H   H480      1.0  0.79598  0.24620  0.11039  1.0000
  H   H481      1.0  0.92919  0.31809  0.11523  1.0000
  H   H482      1.0  0.90516  0.34308  0.11883  1.0000
  H   H483      1.0  0.94696  0.35663  0.13318  1.0000
  H   H484      1.0  0.88830  0.22623  0.17716  1.0000
  H   H485      1.0  0.86680  0.23514  0.19948  1.0000
  H   H486      1.0  0.90617  0.27139  0.18867  1.0000
  H   H487      1.0  0.92293  0.22744  0.13792  1.0000
  H   H488      1.0  0.93509  0.26599  0.15465  1.0000
  H   H489      1.0  0.94373  0.27025  0.12441  1.0000
  N   N23       1.0  0.66882  0.33462  0.18319  1.0000
  C   C299      1.0  0.63296  0.30156  0.18522  1.0000
  C   C300      1.0  0.68531  0.34433  0.20693  1.0000
  C   C301      1.0  0.69340  0.32810  0.16848  1.0000
  C   C302      1.0  0.66354  0.36438  0.17227  1.0000
  C   C303      1.0  0.61289  0.28522  0.16257  1.0000
  C   C304      1.0  0.66926  0.36157  0.22239  1.0000
  C   C305      1.0  0.69859  0.29556  0.17552  1.0000
  C   C306      1.0  0.69763  0.40088  0.16953  1.0000
  H   H490      1.0  0.63542  0.27993  0.19495  1.0000
  H   H491      1.0  0.61460  0.30724  0.19527  1.0000
  H   H492      1.0  0.71453  0.36278  0.20634  1.0000
  H   H493      1.0  0.68296  0.32010  0.21635  1.0000
  H   H494      1.0  0.68437  0.32497  0.15022  1.0000
  H   H495      1.0  0.72050  0.35194  0.16852  1.0000
  H   H496      1.0  0.65208  0.35707  0.15466  1.0000
  H   H497      1.0  0.64304  0.36828  0.18111  1.0000
  H   H498      1.0  0.60439  0.30323  0.15339  1.0000
  H   H499      1.0  0.62845  0.27777  0.15120  1.0000
  H   H500      1.0  0.58811  0.26006  0.16657  1.0000
  H   H501      1.0  0.68115  0.36446  0.23989  1.0000
  H   H502      1.0  0.67585  0.38898  0.21625  1.0000
  H   H503      1.0  0.63997  0.34516  0.22382  1.0000
  H   H504      1.0  0.67384  0.26980  0.17293  1.0000
  H   H505      1.0  0.70821  0.29723  0.19347  1.0000
  H   H506      1.0  0.71919  0.29505  0.16466  1.0000
  H   H507      1.0  0.71092  0.40215  0.15328  1.0000
  H   H508      1.0  0.71726  0.40679  0.18377  1.0000
  H   H509      1.0  0.69070  0.42299  0.16949  1.0000
  C   C307      1.0  0.77998  0.03417  0.13371  1.0000
  H   H510      1.0  0.78053  0.01000  0.12722  1.0000
  C   C308      1.0  0.75868  0.05559  0.16554  1.0000
  C   C309      1.0  0.63094  0.13628  0.25759  1.0000
  H   H511      1.0  0.60708  0.17148  0.25355  1.0000
  C   C310      1.0  0.73253  0.22256  0.32192  1.0000
  H   H512      1.0  0.63309  0.31493  0.29250  1.0000
  C   C311      1.0  0.93160  0.99252  0.02293  1.0000
  H   H513      1.0  0.87501  0.36901  0.29152  1.0000
  H   H514      1.0  0.66211  0.20824  0.27299  1.0000
  H   H515      1.0  0.63430  0.22466  0.28533  1.0000
  H   H516      1.0  0.74395  0.25032  0.32685  1.0000
  H   H517      1.0  0.77856  0.08319  0.16044  1.0000
  H   H518      1.0  0.59844  0.25361  0.29922  1.0000
  H   H519      1.0  0.65267  0.14541  0.27065  1.0000
  C   C312      1.0  0.83509  0.00144  0.00542  1.0000
  C   C313      1.0  0.60145  0.14617  0.26279  1.0000
  H   H520      1.0  0.55984  0.39857  0.30150  1.0000
  C   C314      1.0  0.70247  0.15072  0.30937  1.0000
  C   C315      1.0  0.80518  0.03841  0.17240  1.0000
  H   H521      1.0  0.95112  0.99717  0.03718  1.0000
  H   H522      1.0  0.96084  0.00714  0.09910  1.0000
  H   H523      1.0  0.56297  0.16433  0.30758  1.0000
  H   H524      1.0  0.55950  0.09001  0.28771  1.0000
  C   C316      1.0  0.48145  0.32044  0.29946  1.0000
  H   H525      1.0  0.81060  0.98943  0.16753  1.0000
  S   S88       1.0  0.79020  0.45239  0.16278  1.0000
  C   C317      1.0  0.75568  0.04225  0.11715  1.0000
  H   H526      1.0  0.49309  0.23122  0.32634  1.0000
  H   H527      1.0  0.63206  0.42475  0.17571  1.0000
  H   H528      1.0  0.73401  0.05123  0.15615  1.0000
  H   H529      1.0  0.69064  0.12292  0.30435  1.0000
  H   H530      1.0  0.97057  0.04231  0.11926  1.0000
  S   S89       1.0  0.77812  0.46517  0.22724  1.0000
  H   H531      1.0  0.80262  0.39318  0.30571  1.0000
  H   H532      1.0  0.88087  0.05140  0.01461  1.0000
  H   H533      1.0  0.52638  0.21621  0.32812  1.0000
  H   H534      1.0  0.73239  0.02967  0.19789  1.0000
  C   C318      1.0  0.51273  0.22722  0.31658  1.0000
  C   C319      1.0  0.82496  0.35752  0.27485  1.0000
  H   H535      1.0  0.71481  0.45950  0.32160  1.0000
  C   C320      1.0  0.51338  0.34920  0.29208  1.0000
  H   H536      1.0  0.84517  0.43121  0.30735  1.0000
  H   H537      1.0  0.57636  0.18694  0.28098  1.0000
  H   H538      1.0  0.53092  0.13486  0.25978  1.0000
  H   H539      1.0  0.75915  0.06959  0.11980  1.0000
  H   H540      1.0  0.60965  0.34541  0.31566  1.0000
  H   H541      1.0  0.57705  0.12577  0.25381  1.0000
  C   C321      1.0  0.56959  0.10624  0.32309  1.0000
  H   H542      1.0  0.49718  0.20658  0.30355  1.0000
  C   C322      1.0  0.58170  0.11079  0.29810  1.0000
  H   H543      1.0  0.66971  0.44414  0.31409  1.0000
  H   H544      1.0  0.52087  0.35100  0.27443  1.0000
  H   H545      1.0  0.62101  0.17922  0.31776  1.0000
  H   H546      1.0  0.74047  0.07486  0.19346  1.0000
  C   C323      1.0  0.56695  0.16021  0.28943  1.0000
  N   N24       1.0  0.56780  0.29020  0.31924  1.0000
  C   C324      1.0  0.75184  0.05641  0.19115  1.0000
  C   C325      1.0  0.65002  0.21056  0.28891  1.0000
  C   C326      1.0  0.69456  0.15930  0.33065  1.0000
  H   H547      1.0  0.83589  0.02581  0.14769  1.0000
  C   C327      1.0  0.61119  0.31972  0.28563  1.0000
  H   H548      1.0  0.64396  0.14983  0.24138  1.0000
  H   H549      1.0  0.56246  0.07859  0.32916  1.0000
  H   H550      1.0  0.82402  0.06773  0.17131  1.0000
  H   H551      1.0  0.67248  0.22770  0.30059  1.0000
  H   H552      1.0  0.72722  0.02225  0.11820  1.0000
  C   C328      1.0  0.81832  0.34411  0.32463  1.0000
  S   S90       1.0  0.70060  0.47818  0.24632  1.0000
  H   H553      1.0  0.64541  0.16202  0.30423  1.0000
  H   H554      1.0  0.79971  0.03218  0.19091  1.0000
  H   H555      1.0  0.68540  0.46849  0.19757  1.0000
  H   H556      1.0  0.58637  0.22443  0.32416  1.0000
  H   H557      1.0  0.51195  0.14716  0.28212  1.0000
  H   H558      1.0  0.53024  0.30799  0.32844  1.0000
  H   H559      1.0  0.76387  0.04211  0.09933  1.0000
  H   H560      1.0  0.97493  0.99428  0.13781  1.0000
  C   C329      1.0  0.74457  0.99113  0.16436  1.0000
  H   H561      1.0  0.54559  0.10961  0.32478  1.0000
  H   H562      1.0  0.63368  0.46245  0.33042  1.0000
  H   H563      1.0  0.97833  0.05296  0.08959  1.0000
  H   H564      1.0  0.89614  0.45310  0.33121  1.0000
  C   C330      1.0  0.86616  0.03341  0.00086  1.0000
  H   H565      1.0  0.84925  0.31858  0.31172  1.0000
  C   C331      1.0  0.52602  0.37434  0.33039  1.0000
  C   C332      1.0  0.83121  0.31566  0.32568  1.0000
  C   C333      1.0  0.97966  0.03534  0.10355  1.0000
  H   H566      1.0  0.89113  0.37820  0.33014  1.0000
  C   C334      1.0  0.87752  0.39485  0.33152  1.0000
  C   C335      1.0  0.59118  0.27705  0.33151  1.0000
  Fe  Fe45      1.0  0.84959  0.41952  0.40800  1.0000
  S   S91       1.0  0.83168  0.36649  0.39057  1.0000
  Fe  Fe46      1.0  0.61283  0.44271  0.42313  1.0000
  S   S92       1.0  0.58101  0.40743  0.45192  1.0000
  H   H567      1.0  0.61628  0.30022  0.33787  1.0000
  Fe  Fe47      1.0  0.55475  0.40269  0.38764  1.0000
  Fe  Fe48      1.0  0.53462  0.41202  0.43593  1.0000
  Fe  Fe49      1.0  0.56639  0.36189  0.42794  1.0000
  S   S93       1.0  0.57481  0.31695  0.44322  1.0000
  S   S94       1.0  0.56809  0.45140  0.40876  1.0000
  S   S95       1.0  0.60195  0.39710  0.40047  1.0000
  Fe  Fe50      1.0  0.66836  0.18811  0.42174  1.0000
  S   S96       1.0  0.65036  0.19365  0.38619  1.0000
  S   S97       1.0  0.71001  0.23361  0.44263  1.0000
  Fe  Fe51      1.0  0.61240  0.10860  0.42684  1.0000
  S   S98       1.0  0.58945  0.10814  0.39138  1.0000
  S   S99       1.0  0.60410  0.06244  0.45165  1.0000
  Fe  Fe52      1.0  0.64630  0.13986  0.38033  1.0000
  S   S100      1.0  0.66213  0.12482  0.34755  1.0000
  Fe  Fe53      1.0  0.59534  0.16240  0.39988  1.0000
  S   S101      1.0  0.55855  0.18413  0.38711  1.0000
  S   S102      1.0  0.66918  0.13681  0.41490  1.0000
  S   S103      1.0  0.61349  0.16031  0.43619  1.0000
  C   C336      1.0  0.56839  0.03195  0.46889  1.0000
  C   C337      1.0  0.49411  0.34556  0.33785  1.0000
  H   H568      1.0  0.57779  0.26126  0.34710  1.0000
  C   C338      1.0  0.64910  0.46925  0.34693  1.0000
  H   H569      1.0  0.53266  0.27676  0.34808  1.0000
  C   C339      1.0  0.53410  0.02832  0.46682  1.0000
  H   H570      1.0  0.73616  0.34768  0.45490  1.0000
  C   C340      1.0  0.72496  0.34859  0.40917  1.0000
  H   H571      1.0  0.52884  0.04513  0.45473  1.0000
  H   H572      1.0  0.87022  0.39228  0.34979  1.0000
  C   C341      1.0  0.50621  0.00199  0.47992  1.0000
  H   H573      1.0  0.48658  0.34402  0.35548  1.0000
  H   H574      1.0  0.70426  0.20220  0.35338  1.0000
  S   S104      1.0  0.89380  0.47145  0.39474  1.0000
  H   H575      1.0  0.66839  0.38067  0.38999  1.0000
  C   C342      1.0  0.68215  0.36652  0.42431  1.0000
  C   C343      1.0  0.56755  0.27906  0.42766  1.0000
  C   C344      1.0  0.57943  0.25593  0.43735  1.0000
  C   C345      1.0  0.57650  0.22672  0.42505  1.0000
  C   C346      1.0  0.56095  0.21987  0.40312  1.0000
  C   C347      1.0  0.54775  0.24218  0.39372  1.0000
  C   C348      1.0  0.55148  0.27208  0.40583  1.0000
  H   H576      1.0  0.59128  0.26083  0.45440  1.0000
  H   H577      1.0  0.58607  0.20938  0.43267  1.0000
  H   H578      1.0  0.53448  0.23613  0.37713  1.0000
  H   H579      1.0  0.54139  0.28929  0.39855  1.0000
  H   H580      1.0  0.63558  0.44449  0.35766  1.0000
  C   C349      1.0  0.79927  0.32879  0.40530  1.0000
  C   C350      1.0  0.77648  0.29761  0.39322  1.0000
  C   C351      1.0  0.74916  0.26801  0.40453  1.0000
  C   C352      1.0  0.74500  0.26926  0.42805  1.0000
  C   C353      1.0  0.76838  0.30004  0.44021  1.0000
  C   C354      1.0  0.79520  0.32988  0.42884  1.0000
  H   H581      1.0  0.77961  0.29648  0.37505  1.0000
  H   H582      1.0  0.73147  0.24422  0.39506  1.0000
  H   H583      1.0  0.76535  0.30115  0.45840  1.0000
  H   H584      1.0  0.81268  0.35374  0.43829  1.0000
  H   H585      1.0  0.67607  0.41177  0.41180  1.0000
  H   H586      1.0  0.72254  0.37682  0.37693  1.0000
  H   H587      1.0  0.76017  0.36956  0.38048  1.0000
  H   H588      1.0  0.71362  0.41087  0.40073  1.0000
  H   H589      1.0  0.71823  0.33287  0.37290  1.0000
  H   H590      1.0  0.65551  0.35648  0.43214  1.0000
  C   C355      1.0  0.65926  0.31293  0.40048  1.0000
  Fe  Fe54      1.0  0.82758  0.45697  0.44228  1.0000
  H   H591      1.0  0.74449  0.37273  0.41873  1.0000
  H   H592      1.0  0.75135  0.47899  0.35157  1.0000
  C   C356      1.0  0.70780  0.33190  0.45964  1.0000
  H   H593      1.0  0.63250  0.30674  0.40656  1.0000
  H   H594      1.0  0.64048  0.26535  0.37939  1.0000
  N   N25       1.0  0.68777  0.33553  0.41770  1.0000
  H   H595      1.0  0.73364  0.32811  0.41269  1.0000
  C   C357      1.0  0.60087  0.46939  0.50727  1.0000
  C   C358      1.0  0.75076  0.45583  0.45470  1.0000
  H   H596      1.0  0.70214  0.38290  0.43752  1.0000
  N   N26       1.0  0.66766  0.15598  0.49967  1.0000
  C   C359      1.0  0.69156  0.15977  0.48012  1.0000
  C   C360      1.0  0.66202  0.18858  0.49846  1.0000
  C   C361      1.0  0.63260  0.12258  0.49546  1.0000
  C   C362      1.0  0.68535  0.15290  0.52175  1.0000
  C   C363      1.0  0.70057  0.12893  0.47710  1.0000
  C   C364      1.0  0.69492  0.22474  0.50449  1.0000
  C   C365      1.0  0.60282  0.11301  0.51271  1.0000
  C   C366      1.0  0.67099  0.15897  0.54425  1.0000
  H   H597      1.0  0.67951  0.16273  0.46354  1.0000
  H   H598      1.0  0.71769  0.18451  0.48173  1.0000
  H   H599      1.0  0.64051  0.18591  0.50961  1.0000
  H   H600      1.0  0.65254  0.19172  0.48096  1.0000
  H   H601      1.0  0.62135  0.12437  0.47832  1.0000
  H   H602      1.0  0.63638  0.09841  0.49524  1.0000
  H   H603      1.0  0.68367  0.12587  0.52327  1.0000
  H   H604      1.0  0.71448  0.17218  0.52158  1.0000
  H   H605      1.0  0.67705  0.10379  0.47147  1.0000
  H   H606      1.0  0.72013  0.13666  0.46321  1.0000
  H   H607      1.0  0.71314  0.12385  0.49264  1.0000
  H   H608      1.0  0.70526  0.22480  0.52211  1.0000
  H   H609      1.0  0.71677  0.23266  0.49230  1.0000
  H   H610      1.0  0.68705  0.24625  0.50341  1.0000
  H   H611      1.0  0.57860  0.08883  0.50643  1.0000
  H   H612      1.0  0.59487  0.13415  0.51426  1.0000
  H   H613      1.0  0.60960  0.10528  0.52965  1.0000
  H   H614      1.0  0.66117  0.13447  0.55530  1.0000
  H   H615      1.0  0.64906  0.16569  0.54208  1.0000
  H   H616      1.0  0.69289  0.18100  0.55404  1.0000
  S   S105      1.0  0.86464  0.43283  0.44499  1.0000
  S   S106      1.0  0.51748  0.36328  0.41356  1.0000
  H   H617      1.0  0.69940  0.34954  0.46826  1.0000
  H   H618      1.0  0.64534  0.25691  0.40894  1.0000
  H   H619      1.0  0.58610  0.35716  0.34451  1.0000
  H   H620      1.0  0.81084  0.34555  0.34243  1.0000
  C   C367      1.0  0.57328  0.33063  0.35333  1.0000
  H   H621      1.0  0.68952  0.45726  0.37761  1.0000
  C   C368      1.0  0.57466  0.00980  0.48473  1.0000
  H   H622      1.0  0.60110  0.01244  0.48650  1.0000
  H   H623      1.0  0.92936  0.44053  0.33874  1.0000
  S   S107      1.0  0.80994  0.43965  0.40640  1.0000
  S   S108      1.0  0.55527  0.40845  0.34902  1.0000
  H   H624      1.0  0.68429  0.27956  0.39177  1.0000
  H   H625      1.0  0.66205  0.32752  0.38402  1.0000
  H   H626      1.0  0.84485  0.31650  0.34236  1.0000
  H   H627      1.0  0.59328  0.44410  0.49788  1.0000
  C   C369      1.0  0.69051  0.44838  0.45330  1.0000
  H   H628      1.0  0.65169  0.40311  0.34985  1.0000
  C   C370      1.0  0.68296  0.31273  0.43900  1.0000
  H   H629      1.0  0.65501  0.30074  0.44491  1.0000
  C   C371      1.0  0.73112  0.35740  0.38339  1.0000
  C   C372      1.0  0.65765  0.27682  0.39488  1.0000
  H   H630      1.0  0.68765  0.28971  0.43545  1.0000
  S   S109      1.0  0.78130  0.44195  0.46552  1.0000
  H   H631      1.0  0.54483  0.45788  0.50418  1.0000
  C   C373      1.0  0.71591  0.43939  0.46286  1.0000
  H   H632      1.0  0.66337  0.43447  0.45907  1.0000
  C   C374      1.0  0.49102  0.45088  0.47214  1.0000
  H   H633      1.0  0.70613  0.31137  0.47251  1.0000
  H   H634      1.0  0.70826  0.41877  0.47604  1.0000
  H   H635      1.0  0.55627  0.33282  0.36648  1.0000
  C   C375      1.0  0.68534  0.39349  0.40521  1.0000
  H   H636      1.0  0.84232  0.42633  0.35127  1.0000
  S   S110      1.0  0.49578  0.41493  0.46085  1.0000
  H   H637      1.0  0.80806  0.43259  0.33721  1.0000
  H   H638      1.0  0.59347  0.32532  0.36251  1.0000
  H   H639      1.0  0.79782  0.38906  0.34798  1.0000
  C   C376      1.0  0.70996  0.19530  0.33698  1.0000
  H   H640      1.0  0.66532  0.46669  0.50708  1.0000
  H   H641      1.0  0.69860  0.41649  0.35437  1.0000
  C   C377      1.0  0.76049  0.48243  0.43763  1.0000
  H   H642      1.0  0.61769  0.46910  0.52215  1.0000
  H   H643      1.0  0.55650  0.44380  0.53048  1.0000
  N   N27       1.0  0.68756  0.47888  0.34357  1.0000
  C   C378      1.0  0.56638  0.46576  0.51741  1.0000
  C   C379      1.0  0.54920  0.30017  0.33691  1.0000
  H   H644      1.0  0.63987  0.47354  0.47091  1.0000
  H   H645      1.0  0.74993  0.47572  0.38171  1.0000
  H   H646      1.0  0.58237  0.47446  0.46500  1.0000
  C   C380      1.0  0.67784  0.41400  0.34154  1.0000
  C   C381      1.0  0.70518  0.48145  0.36673  1.0000
  C   C382      1.0  0.70045  0.47545  0.43651  1.0000
  C   C383      1.0  0.81876  0.41338  0.33959  1.0000
  H   H647      1.0  0.59121  0.12480  0.33475  1.0000
  C   C384      1.0  0.50757  0.48552  0.46258  1.0000
  C   C385      1.0  0.95853  0.06262  0.84901  1.0000
  H   H648      1.0  0.96698  0.06553  0.95226  1.0000
  C   C386      1.0  0.96578  0.13259  0.94832  1.0000
  C   C387      1.0  0.85927  0.01940  0.96036  1.0000
  S   S111      1.0  0.87474  0.03242  0.93243  1.0000
  S   S112      1.0  0.92695  0.02421  0.83450  1.0000
  H   H649      1.0  0.92338  0.05710  0.87618  1.0000
  C   C388      1.0  0.87788  0.04259  0.97836  1.0000
  C   C389      1.0  0.95010  0.07199  0.86975  1.0000
  H   H650      1.0  0.96581  0.10014  0.98871  1.0000
  H   H651      1.0  0.90129  0.06786  0.97485  1.0000
  H   H652      1.0  0.96931  0.10758  0.89836  1.0000
  H   H653      1.0  0.96490  0.15402  0.93735  1.0000
  Fe  Fe55      1.0  0.85699  0.99031  0.90520  1.0000
  H   H654      1.0  0.95286  0.16746  0.84130  1.0000
  C   C390      1.0  0.97418  0.06209  0.97019  1.0000
  H   H655      1.0  0.94944  0.04144  0.97824  1.0000
  S   S113      1.0  0.83852  0.99633  0.86958  1.0000
  H   H656      1.0  0.95397  0.13294  0.96472  1.0000
  H   H657      1.0  0.94805  0.10710  0.93941  1.0000
  C   C391      1.0  0.97616  0.10074  0.88230  1.0000
  Fe  Fe56      1.0  0.88385  0.98786  0.85853  1.0000
  H   H658      1.0  0.97888  0.14822  0.83149  1.0000
  C   C392      1.0  0.82878  0.98686  0.96495  1.0000
  H   H659      1.0  0.63782  0.99387  0.84817  1.0000
  H   H660      1.0  0.80393  0.67806  0.16789  1.0000
  Fe  Fe57      1.0  0.90872  0.83644  0.09979  1.0000
  S   S114      1.0  0.86062  0.84475  0.10045  1.0000
  H   H661      1.0  0.91998  0.94854  0.15067  1.0000
  S   S115      1.0  0.90490  0.79408  0.07642  1.0000
  Fe  Fe58      1.0  0.79445  0.48772  0.19205  1.0000
  S   S116      1.0  0.76491  0.51995  0.19122  1.0000
  H   H662      1.0  0.91556  0.67590  0.05292  1.0000
  H   H663      1.0  0.70593  0.96631  0.13603  1.0000
  S   S117      1.0  0.84689  0.53396  0.20321  1.0000
  H   H664      1.0  0.73548  0.52068  0.32840  1.0000
  Fe  Fe59      1.0  0.81648  0.56494  0.20512  1.0000
  S   S118      1.0  0.83994  0.62560  0.19822  1.0000
  H   H665      1.0  0.79345  0.69870  0.09301  1.0000
  S   S119      1.0  0.80143  0.54798  0.24185  1.0000
  H   H666      1.0  0.94292  0.67875  0.26353  1.0000
  C   C393      1.0  0.77913  0.69409  0.13933  1.0000
  Fe  Fe60      1.0  0.95788  0.83549  0.06365  1.0000
  H   H667      1.0  0.76387  0.68004  0.12383  1.0000
  H   H668      1.0  0.82955  0.80417  0.15804  1.0000
  C   C394      1.0  0.82909  0.51767  0.30010  1.0000
  C   C395      1.0  0.89477  0.96055  0.02878  1.0000
  H   H669      1.0  0.86365  0.79848  0.17309  1.0000
  H   H670      1.0  0.81216  0.52077  0.28708  1.0000
  S   S120      1.0  0.91572  0.72067  0.10971  1.0000
  C   C396      1.0  0.89596  0.69485  0.13481  1.0000
  C   C397      1.0  0.89440  0.71072  0.15508  1.0000
  C   C398      1.0  0.87756  0.68912  0.17435  1.0000
  C   C399      1.0  0.86209  0.65142  0.17366  1.0000
  C   C400      1.0  0.86411  0.63559  0.15350  1.0000
  C   C401      1.0  0.88094  0.65720  0.13422  1.0000
  H   H671      1.0  0.90619  0.73964  0.15593  1.0000
  H   H672      1.0  0.87635  0.70168  0.18989  1.0000
  H   H673      1.0  0.85241  0.60667  0.15268  1.0000
  H   H674      1.0  0.88207  0.64458  0.11869  1.0000
  H   H675      1.0  0.96933  0.78157  0.03742  1.0000
  C   C402      1.0  0.86452  0.94162  0.10573  1.0000
  C   C403      1.0  0.85589  0.90699  0.09862  1.0000
  C   C404      1.0  0.87177  0.88811  0.10950  1.0000
  C   C405      1.0  0.89568  0.90359  0.12789  1.0000
  C   C406      1.0  0.90281  0.93741  0.13578  1.0000
  H   H676      1.0  0.97594  0.66603  0.25794  1.0000
  H   H677      1.0  0.83691  0.89486  0.08469  1.0000
  H   H678      1.0  0.90772  0.88897  0.13653  1.0000
  H   H679      1.0  0.74874  0.75506  0.10021  1.0000
  H   H680      1.0  0.85381  0.62438  0.26308  1.0000
  C   C407      1.0  0.85638  0.51053  0.29392  1.0000
  H   H681      1.0  0.78195  0.74634  0.08911  1.0000
  C   C408      1.0  0.82205  0.71204  0.09781  1.0000
  C   C409      1.0  0.69163  0.51757  0.30781  1.0000
  H   H682      1.0  0.91612  0.57310  0.24288  1.0000
  S   S121      1.0  0.95999  0.84415  0.02528  1.0000
  C   C410      1.0  0.90770  0.63008  0.23486  1.0000
  H   H683      1.0  0.90539  0.75521  0.03390  1.0000
  H   H684      1.0  0.80255  0.78141  0.12380  1.0000
  C   C411      1.0  0.89047  0.60289  0.27259  1.0000
  H   H685      1.0  0.74354  0.71099  0.10370  1.0000
  H   H686      1.0  0.89916  0.71134  0.02935  1.0000
  H   H687      1.0  0.89739  0.64937  0.23740  1.0000
  N   N28       1.0  0.92185  0.62218  0.25713  1.0000
  H   H688      1.0  0.95975  0.66967  0.22069  1.0000
  Fe  Fe61      1.0  0.82787  0.51370  0.23870  1.0000
  C   C412      1.0  0.82077  0.89738  0.03442  1.0000
  H   H689      1.0  0.75833  0.69169  0.15131  1.0000
  C   C413      1.0  0.91643  0.73673  0.03836  1.0000
  H   H690      1.0  0.95722  0.91414  0.03288  1.0000
  H   H691      1.0  0.77568  0.64256  0.14936  1.0000
  H   H692      1.0  0.85133  0.60916  0.29199  1.0000
  H   H693      1.0  0.93635  0.64855  0.04775  1.0000
  H   H694      1.0  0.84548  0.76628  0.11053  1.0000
  H   H695      1.0  0.91450  0.73251  0.05713  1.0000
  H   H696      1.0  0.91479  0.88684  0.04507  1.0000
  H   H697      1.0  0.86364  0.80084  0.14254  1.0000
  C   C414      1.0  0.87019  0.62357  0.27803  1.0000
  N   N29       1.0  0.80495  0.73314  0.13468  1.0000
  C   C415      1.0  0.79579  0.67148  0.14969  1.0000
  C   C416      1.0  0.76360  0.73980  0.10356  1.0000
  H   H698      1.0  0.80281  0.74219  0.17087  1.0000
  C   C417      1.0  0.93679  0.59741  0.25182  1.0000
  C   C418      1.0  0.95038  0.65712  0.26686  1.0000
  C   C419      1.0  0.82290  0.74930  0.15729  1.0000
  C   C420      1.0  0.78441  0.75219  0.12643  1.0000
  H   H699      1.0  0.76521  0.75010  0.13959  1.0000
  H   H700      1.0  0.84066  0.73810  0.16337  1.0000
  Fe  Fe62      1.0  0.75261  0.50065  0.22770  1.0000
  H   H701      1.0  0.83096  0.69158  0.10120  1.0000
  C   C421      1.0  0.84619  0.79054  0.15748  1.0000
  C   C422      1.0  0.83335  0.73856  0.11793  1.0000
  H   H702      1.0  0.88821  0.65125  0.28381  1.0000
  H   H703      1.0  0.85571  0.73655  0.12697  1.0000
  H   H704      1.0  0.81889  0.67463  0.13995  1.0000
  S   S122      1.0  0.93466  0.82033  0.12848  1.0000
  H   H705      1.0  0.83641  0.72688  0.08230  1.0000
  H   H706      1.0  0.88452  0.60523  0.22819  1.0000
  Fe  Fe63      1.0  0.93482  0.78064  0.10391  1.0000
  H   H707      1.0  0.69187  0.49839  0.29540  1.0000
  H   H708      1.0  0.93213  0.57062  0.28568  1.0000
  H   H709      1.0  0.93715  0.93502  0.04880  1.0000
  C   C423      1.0  0.91366  0.91701  0.01410  1.0000
  C   C424      1.0  0.85543  0.89539  0.03066  1.0000
  H   H710      1.0  0.92245  0.65565  0.20132  1.0000
  C   C425      1.0  0.82387  0.52115  0.32326  1.0000
  C   C426      1.0  0.88770  0.95673  0.12451  1.0000
  H   H711      1.0  0.89975  0.50176  0.30618  1.0000
  H   H712      1.0  0.87071  0.57711  0.26482  1.0000
  H   H713      1.0  0.80396  0.87559  0.04653  1.0000
  H   H714      1.0  0.70832  0.54491  0.30055  1.0000
  H   H715      1.0  0.84765  0.86890  0.02283  1.0000
  H   H716      1.0  0.80317  0.52735  0.32795  1.0000
  H   H717      1.0  0.68770  0.95397  0.16426  1.0000
  S   S123      1.0  0.86463  0.50746  0.26505  1.0000
  H   H718      1.0  0.82604  0.92305  0.04222  1.0000
  H   H719      1.0  0.86599  0.89407  0.04812  1.0000
  H   H720      1.0  0.85238  0.95616  0.09713  1.0000
  C   C427      1.0  0.92715  0.66683  0.03967  1.0000
  H   H721      1.0  0.90478  0.64983  0.02786  1.0000
  C   C428      1.0  0.87818  0.50658  0.31097  1.0000
  H   H722      1.0  0.95644  0.72110  0.07059  1.0000
  H   H723      1.0  0.89531  0.95633  0.04767  1.0000
  H   H724      1.0  0.95892  0.56424  0.26586  1.0000
  N   N30       1.0  0.88351  0.92562  0.01668  1.0000
  H   H725      1.0  0.89779  0.59471  0.28918  1.0000
  H   H726      1.0  0.93974  0.62563  0.20759  1.0000
  H   H727      1.0  0.95927  0.61052  0.23986  1.0000
  C   C429      1.0  0.95176  0.58441  0.27214  1.0000
  S   S124      1.0  0.95947  0.87900  0.08524  1.0000
  H   H728      1.0  0.93516  0.93710  0.00342  1.0000
  C   C430      1.0  0.93443  0.64620  0.21526  1.0000
  H   H729      1.0  0.66419  0.51380  0.30895  1.0000
  C   C431      1.0  0.93149  0.91327  0.03666  1.0000
  C   C432      1.0  0.70691  0.97649  0.15347  1.0000
  H   H730      1.0  0.87457  0.96976  0.02568  1.0000
  H   H731      1.0  0.97723  0.68749  0.02298  1.0000
  C   C433      1.0  0.70748  0.51454  0.33137  1.0000
  H   H732      1.0  0.75435  0.97263  0.15868  1.0000
  H   H733      1.0  0.95084  0.63136  0.30116  1.0000
  H   H734      1.0  0.94593  0.67130  0.30206  1.0000
  C   C434      1.0  0.95846  0.65772  0.29293  1.0000
  C   C435      1.0  0.95505  0.75409  0.03017  1.0000
  C   C436      1.0  0.95735  0.69695  0.02563  1.0000
  N   N31       1.0  0.97569  0.73408  0.03567  1.0000
  H   H735      1.0  0.94606  0.69777  0.00829  1.0000
  H   H736      1.0  0.97662  0.60666  0.27933  1.0000
  H   H737      1.0  0.95283  0.75784  0.01144  1.0000
  H   H738      1.0  0.90411  0.89135  0.00472  1.0000
  H   H739      1.0  0.80452  0.89294  0.01847  1.0000
  H   H740      1.0  0.97890  0.96083  0.10762  1.0000
  H   H741      1.0  0.74193  0.98602  0.18315  1.0000
  C   C437      1.0  0.52968  0.73006  0.58167  1.0000
  C   C438      1.0  0.50282  0.51307  0.47219  1.0000
  C   C439      1.0  0.49323  0.93225  0.65240  1.0000
  H   H742      1.0  0.56817  0.82347  0.62172  1.0000
  H   H743      1.0  0.51375  0.85267  0.40515  1.0000
  H   H744      1.0  0.53946  0.92100  0.45184  1.0000
  H   H745      1.0  0.55045  0.89926  0.48936  1.0000
  H   H746      1.0  0.66750  0.52006  0.47015  1.0000
  C   C440      1.0  0.65110  0.49766  0.48189  1.0000
  S   S125      1.0  0.87026  0.51226  0.43235  1.0000
  H   H747      1.0  0.60927  0.82299  0.62780  1.0000
  H   H748      1.0  0.53741  0.89459  0.41920  1.0000
  H   H749      1.0  0.66361  0.59335  0.50095  1.0000
  H   H750      1.0  0.51585  0.53981  0.46470  1.0000
  C   C441      1.0  0.54691  0.98385  0.49804  1.0000
  C   C442      1.0  0.59592  0.50126  0.47323  1.0000
  H   H751      1.0  0.57058  0.49055  0.52591  1.0000
  S   S126      1.0  0.53435  0.89732  0.60981  1.0000
  H   H752      1.0  0.54562  0.72016  0.54905  1.0000
  S   S127      1.0  0.51814  0.88694  0.54200  1.0000
  H   H753      1.0  0.55853  0.84089  0.58410  1.0000
  H   H754      1.0  0.71004  0.53690  0.34216  1.0000
  H   H755      1.0  0.61270  0.54203  0.50869  1.0000
  H   H756      1.0  0.58018  0.75786  0.61452  1.0000
  H   H757      1.0  0.51216  0.79442  0.60163  1.0000
  H   H758      1.0  0.57541  0.90412  0.65121  1.0000
  C   C443      1.0  0.52865  0.86660  0.63237  1.0000
  C   C444      1.0  0.49992  0.83181  0.63224  1.0000
  C   C445      1.0  0.63458  0.53531  0.50617  1.0000
  C   C446      1.0  0.66706  0.56967  0.49714  1.0000
  H   H759      1.0  0.50138  0.71397  0.57601  1.0000
  H   H760      1.0  0.51374  0.92388  0.47379  1.0000
  C   C447      1.0  0.55328  0.87711  0.65082  1.0000
  H   H761      1.0  0.57960  0.75939  0.56237  1.0000
  N   N32       1.0  0.48787  0.87348  0.45652  1.0000
  H   H762      1.0  0.67129  0.57073  0.47858  1.0000
  H   H763      1.0  0.55207  0.96669  0.50987  1.0000
  H   H764      1.0  0.74361  0.51397  0.41614  1.0000
  H   H765      1.0  0.51353  0.75793  0.63205  1.0000
  H   H766      1.0  0.57058  0.81344  0.56707  1.0000
  H   H767      1.0  0.52050  0.72072  0.62731  1.0000
  H   H768      1.0  0.48917  0.85454  0.49137  1.0000
  C   C448      1.0  0.84523  0.51649  0.34035  1.0000
  N   N33       1.0  0.62132  0.50188  0.49202  1.0000
  H   H769      1.0  0.78741  0.49545  0.43135  1.0000
  H   H770      1.0  0.55795  0.87967  0.46453  1.0000
  C   C449      1.0  0.49697  0.80706  0.64960  1.0000
  H   H771      1.0  0.49234  0.82731  0.47020  1.0000
  C   C450      1.0  0.48100  0.50623  0.49118  1.0000
  H   H772      1.0  0.53394  0.82029  0.55900  1.0000
  C   C451      1.0  0.54817  0.81591  0.57400  1.0000
  H   H773      1.0  0.70132  0.49789  0.49020  1.0000
  H   H774      1.0  0.57052  0.79267  0.64285  1.0000
  C   C452      1.0  0.54161  0.87395  0.47986  1.0000
  H   H775      1.0  0.69186  0.57405  0.50652  1.0000
  Fe  Fe64      1.0  0.90655  0.48704  0.43206  1.0000
  C   C453      1.0  0.51111  0.73867  0.61877  1.0000
  H   H776      1.0  0.63334  0.52836  0.44493  1.0000
  H   H777      1.0  0.49721  0.76799  0.57680  1.0000
  H   H778      1.0  0.88928  0.50610  0.34728  1.0000
  H   H779      1.0  0.65394  0.50364  0.37607  1.0000
  S   S128      1.0  0.96655  0.51447  0.44126  1.0000
  C   C454      1.0  0.55042  0.74373  0.55937  1.0000
  H   H780      1.0  0.59097  0.79138  0.59339  1.0000
  H   H781      1.0  0.59020  0.52403  0.44076  1.0000
  C   C455      1.0  0.64257  0.49783  0.35844  1.0000
  H   H782      1.0  0.52199  0.96409  0.43983  1.0000
  H   H783      1.0  0.94681  0.51194  0.48937  1.0000
  N   N34       1.0  0.53384  0.75816  0.59851  1.0000
  H   H784      1.0  0.57433  0.50527  0.48039  1.0000
  C   C456      1.0  0.57199  0.77751  0.60725  1.0000
  H   H785      1.0  0.53733  0.71058  0.58990  1.0000
  C   C457      1.0  0.52113  0.78314  0.58801  1.0000
  H   H786      1.0  0.53427  0.85368  0.43228  1.0000
  C   C458      1.0  0.57997  0.80566  0.62589  1.0000
  C   C459      1.0  0.61152  0.52954  0.45391  1.0000
  C   C460      1.0  0.87232  0.50904  0.33418  1.0000
  H   H787      1.0  0.54741  0.85583  0.49126  1.0000
  H   H788      1.0  0.54047  0.75931  0.54871  1.0000
  S   S129      1.0  0.83807  0.52124  0.36916  1.0000
  Fe  Fe65      1.0  0.49842  0.87781  0.57819  1.0000
  H   H789      1.0  0.61992  0.55693  0.46014  1.0000
  H   H790      1.0  0.51688  0.92783  0.65375  1.0000
  H   H791      1.0  0.49157  0.72579  0.50803  1.0000
  H   H792      1.0  0.68631  0.51437  0.51288  1.0000
  H   H793      1.0  0.64262  0.53030  0.52366  1.0000
  S   S130      1.0  0.66930  0.48772  0.42459  1.0000
  S   S131      1.0  0.48539  0.78954  0.51668  1.0000
  C   C461      1.0  0.73561  0.49280  0.42896  1.0000
  H   H794      1.0  0.61333  0.48719  0.35989  1.0000
  Fe  Fe66      1.0  0.85488  0.49272  0.39622  1.0000
  H   H795      1.0  0.52381  0.49100  0.44770  1.0000
  C   C462      1.0  0.50025  0.93581  0.44009  1.0000
  H   H796      1.0  0.70547  0.50354  0.37672  1.0000
  H   H797      1.0  0.47995  0.82381  0.61878  1.0000
  C   C463      1.0  0.67726  0.49405  0.49928  1.0000
  C   C464      1.0  0.48473  0.85747  0.43335  1.0000
  C   C465      1.0  0.51990  0.86546  0.42220  1.0000
  C   C466      1.0  0.50109  0.85581  0.47449  1.0000
  C   C467      1.0  0.74444  0.48919  0.36671  1.0000
  C   C468      1.0  0.51172  0.91359  0.45629  1.0000
  H   H798      1.0  0.65255  0.52304  0.34821  1.0000
  C   C469      1.0  0.51230  0.97926  0.49536  1.0000
  H   H799      1.0  0.49648  0.95005  0.63733  1.0000
  H   H800      1.0  0.49575  0.92640  0.42223  1.0000
  H   H801      1.0  0.76293  0.51852  0.36775  1.0000
  C   C470      1.0  0.97550  0.52742  0.48829  1.0000
  C   C471      1.0  0.60166  0.89732  0.82806  1.0000
  Fe  Fe67      1.0  0.86748  0.92662  0.89259  1.0000
  S   S132      1.0  0.88705  0.89127  0.91049  1.0000
  S   S133      1.0  0.49660  0.71072  0.79052  1.0000
  S   S134      1.0  0.82157  0.93076  0.90679  1.0000
  Fe  Fe68      1.0  0.59063  0.83553  0.76400  1.0000
  S   S135      1.0  0.56905  0.78179  0.74675  1.0000
  S   S136      1.0  0.64965  0.87466  0.77113  1.0000
  Fe  Fe69      1.0  0.51694  0.83086  0.76473  1.0000
  H   H802      1.0  0.91507  0.95104  0.97198  1.0000
  Fe  Fe70      1.0  0.52425  0.76354  0.77147  1.0000
  S   S137      1.0  0.85109  0.92777  0.85579  1.0000
  Fe  Fe71      1.0  0.53625  0.80006  0.72462  1.0000
  S   S138      1.0  0.51930  0.78426  0.68774  1.0000
  S   S139      1.0  0.54801  0.81561  0.79031  1.0000
  S   S140      1.0  0.56106  0.85519  0.73956  1.0000
  H   H803      1.0  0.97211  0.85404  0.97728  1.0000
  H   H804      1.0  0.54318  0.86763  0.82091  1.0000
  H   H805      1.0  0.87578  0.94893  0.95925  1.0000
  H   H806      1.0  0.61791  0.90324  0.84408  1.0000
  Fe  Fe72      1.0  0.80666  0.93562  0.86977  1.0000
  H   H807      1.0  0.95753  0.89533  0.84504  1.0000
  H   H808      1.0  0.97494  0.96595  0.83808  1.0000
  H   H809      1.0  0.65741  0.93591  0.79546  1.0000
  C   C472      1.0  0.72137  0.89140  0.83562  1.0000
  C   C473      1.0  0.73479  0.91267  0.81595  1.0000
  C   C474      1.0  0.71259  0.90677  0.79632  1.0000
  C   C475      1.0  0.67681  0.87948  0.79600  1.0000
  C   C476      1.0  0.66350  0.85793  0.81558  1.0000
  C   C477      1.0  0.68563  0.86396  0.83526  1.0000
  H   H810      1.0  0.76218  0.93384  0.81592  1.0000
  H   H811      1.0  0.72322  0.92360  0.78128  1.0000
  H   H812      1.0  0.63614  0.83669  0.81561  1.0000
  H   H813      1.0  0.57018  0.94371  0.82260  1.0000
  H   H814      1.0  0.51058  0.87419  0.70507  1.0000
  C   C478      1.0  0.92760  0.89576  0.87385  1.0000
  C   C479      1.0  0.92322  0.89051  0.89746  1.0000
  C   C480      1.0  0.94712  0.88321  0.91068  1.0000
  H   H815      1.0  0.49289  0.94762  0.66721  1.0000
  H   H816      1.0  0.67495  0.84726  0.85034  1.0000
  H   H817      1.0  0.90936  0.90143  0.86350  1.0000
  H   H818      1.0  0.94372  0.87891  0.92895  1.0000
  C   C481      1.0  0.95494  0.89236  0.86342  1.0000
  N   N35       1.0  0.61143  0.93047  0.81338  1.0000
  H   H819      1.0  0.55831  0.85242  0.84538  1.0000
  C   C482      1.0  0.54992  0.85252  0.66853  1.0000
  C   C483      1.0  0.65100  0.94979  0.80895  1.0000
  H   H820      1.0  0.48091  0.88887  0.71519  1.0000
  C   C484      1.0  0.60192  0.94672  0.77148  1.0000
  H   H821      1.0  0.55591  0.89322  0.84695  1.0000
  S   S141      1.0  0.49001  0.77738  0.74817  1.0000
  C   C485      1.0  0.56247  0.87689  0.83553  1.0000
  H   H822      1.0  0.79245  0.95331  0.99091  1.0000
  H   H823      1.0  0.56953  0.86053  0.68239  1.0000
  H   H824      1.0  0.60769  0.87811  0.81903  1.0000
  C   C486      1.0  0.59978  0.95542  0.82345  1.0000
  C   C487      1.0  0.86699  0.92558  0.99344  1.0000
  C   C488      1.0  0.67670  0.95360  0.82917  1.0000
  H   H825      1.0  0.56264  0.90577  0.79242  1.0000
  H   H826      1.0  0.89821  0.98107  0.98083  1.0000
  H   H827      1.0  0.79397  0.74449  0.88207  1.0000
  C   C489      1.0  0.59200  0.91787  0.79062  1.0000
  S   S142      1.0  0.90380  0.98535  0.89390  1.0000
  S   S143      1.0  0.74762  0.89795  0.86114  1.0000
  H   H828      1.0  0.59200  0.97212  0.85669  1.0000
  H   H829      1.0  0.67464  0.92732  0.83439  1.0000
  H   H830      1.0  0.59664  0.89628  0.78372  1.0000
  C   C490      1.0  0.97549  0.88142  0.90034  1.0000
  N   N36       1.0  0.78865  0.81470  0.86566  1.0000
  C   C491      1.0  0.78444  0.82483  0.84117  1.0000
  C   C492      1.0  0.82800  0.82850  0.87038  1.0000
  C   C493      1.0  0.77540  0.83389  0.88075  1.0000
  C   C494      1.0  0.76697  0.77447  0.86857  1.0000
  C   C495      1.0  0.74604  0.81428  0.83272  1.0000
  C   C496      1.0  0.84660  0.81415  0.85475  1.0000
  C   C497      1.0  0.77858  0.82924  0.90677  1.0000
  C   C498      1.0  0.77814  0.75677  0.88849  1.0000
  H   H831      1.0  0.80082  0.85436  0.83830  1.0000
  H   H832      1.0  0.79433  0.81203  0.82907  1.0000
  H   H833      1.0  0.83382  0.82304  0.88818  1.0000
  H   H834      1.0  0.84257  0.85828  0.86884  1.0000
  H   H835      1.0  0.78965  0.86327  0.87697  1.0000
  H   H836      1.0  0.74668  0.82512  0.87728  1.0000
  H   H837      1.0  0.73828  0.76659  0.87060  1.0000
  H   H838      1.0  0.76814  0.76105  0.85275  1.0000
  H   H839      1.0  0.73516  0.82995  0.84109  1.0000
  H   H840      1.0  0.74641  0.82078  0.81416  1.0000
  H   H841      1.0  0.72761  0.78516  0.83483  1.0000
  H   H842      1.0  0.83116  0.78474  0.85244  1.0000
  H   H843      1.0  0.85205  0.82800  0.83781  1.0000
  H   H844      1.0  0.87295  0.82015  0.86256  1.0000
  H   H845      1.0  0.76963  0.84647  0.91540  1.0000
  H   H846      1.0  0.80638  0.83826  0.91285  1.0000
  H   H847      1.0  0.76061  0.80132  0.91246  1.0000
  H   H848      1.0  0.75379  0.73410  0.89571  1.0000
  H   H849      1.0  0.79273  0.77444  0.90295  1.0000
  H   H850      1.0  0.58499  0.93403  0.75609  1.0000
  C   C499      1.0  0.61258  0.96801  0.84813  1.0000
  C   C500      1.0  0.89107  0.95344  0.97571  1.0000
  H   H851      1.0  0.81418  0.96896  0.95110  1.0000
  H   H852      1.0  0.47985  0.85509  0.66918  1.0000
  H   H853      1.0  0.70456  0.97044  0.82354  1.0000
  H   H854      1.0  0.61619  0.94826  0.85909  1.0000
  H   H855      1.0  0.59671  0.96888  0.77617  1.0000
  H   H856      1.0  0.62998  0.95751  0.76628  1.0000
  C   C501      1.0  0.49350  0.88637  0.69953  1.0000
  C   C502      1.0  0.81649  0.97809  0.98745  1.0000
  H   H857      1.0  0.84407  0.93088  0.99490  1.0000
  H   H858      1.0  0.65942  0.97737  0.80206  1.0000
  H   H859      1.0  0.67325  0.96676  0.84414  1.0000
  H   H860      1.0  0.51134  0.91331  0.69244  1.0000
  C   C503      1.0  0.52211  0.81719  0.66767  1.0000
  H   H861      1.0  0.85609  0.89862  0.98554  1.0000
  S   S144      1.0  0.48537  0.85751  0.77600  1.0000
  H   H862      1.0  0.60919  0.98041  0.81290  1.0000
  H   H863      1.0  0.48692  0.70615  0.74166  1.0000
  C   C504      1.0  0.97925  0.88569  0.87662  1.0000
  H   H864      1.0  0.97860  0.98594  0.87597  1.0000
