data_image0
_chemical_formula_structural       S2HCH2C3H4NCHFeS2H2FeSFeSC2SH3CHC2H2C6H4FeC2HCSFeH5CHS2HC2H2CHSC2H2NH3CHCH4NHFeHSHCH8CH4CH6C2H4CHSH4SHC2FeCH3SHCH3C2HCHC5H3C3NH2C2H6N2H2CH4FeS2FeS2FeCFeHS2FeS2CHCHCH2C2HCH3NH3CH2CHC3H2CHCHC6H2C6H9CH3NHNHCH2C2H2C2HCH4FeHC2HSCHC3H4CHCHSC2HCHCHC2H8C2H3CH8CH4CH5SH5CHCH3SNHCNH6FeS2H2FeSH2SH2C2H2CFeCSCNHCH4NCNHC3HC2H2CHC6H4SHFeSC2H3SH3C2H4SNCHCH7C2HC2H2C2HCHCH4CHCHCSH3CFeHCH5C2HC2SHC3H3CH2CH6C2HC2HCH3SH2SH2CH3C2FeSCH4CH4FeCH2SHFeS2HFeSHSFeS2H2SFeSCFeSHC6H4C3H2CH2C2H3CHCH2CH7CH6CH3CHCH2SH5CH3NHCHCH3C2SH2C2H2CH4CFeC2HCH5C2HNC4HC3H3C3H3CHC3H5C3H4CH2CH2CH4C4NH5CHSHNC3HC2HCH3CHCH5C2HSC3H3C2H4CH2CH5SCHC4H5SH2NHFeS2H2Fe2S2FeS2FeSFeS3FeCS2HS2HSFeH2FeS3C2H5C2SC6H4C7H3C6H4C6H4C6H4C2HSFeH2CH3CNC8H24CH2C2H2CH3CH4CHS3CH3FeH2CFeH2SHFeCH3S3FeCSHCHCNC5HNH2SHCHSCSFeCFeH2CH3CFeSCHCHCHSC3H2CSCH5CSH3C2H3CHCFeHC2HCHCS2H2FeCH2FeCH2SHCHCH2CHCHSH3SHCH5NHFeH4CHCH4CHCH2FeH2C2FeHNH3CH4CH2CH2CH3CH2S2HCH3C2HSH2C2HFeH3CH6CH2CHC2H3CHCHNHCH3C2H2CH3C2H2CH4SCHCHCHCHCHSH4SH3NH5C2NC4HNC2HCH5CH3CHCH5FeH2CH2C3H4CHSH3CH3CHCSCHSCFeSFeHCHFeHFeS2FeCFeS4FeS2FeS2FeSFeS3FeSFeS2HFeNS2C5H2SHCSC6H4C5H3C6H5C4HCSC6H4CHCH2FeC2HC3HSHSCH3CSHC2HCH3CH4CH5CH3SNCH2SHC2H2SHFeCH5NH3SHNC8H19NC8H20CHC2H3CH7CH5CH3FeCH5SHCH2SHSCH4CHCHSCSH7CFeS2HCH2NHFeH2C3H2CFeC4H2CHC2SH2NH9C2H2CH3C2H2C2FeH2C2H3C3HCHCHSCH5CH2C2H3CH2CHCH3CNHFeH2CH2SHNHCHCH2CHS2FeH2CH2CH4SH2FeS2FeS2FeSFeS3CHFeHFeS3FeSFeS2HC4H2C6H4C6H4FeHC7H3SC4H3C4H4FeC6H7SH4CH2NCFeCHCHCH11CH2C2H2C2H3C3HFe2HCH2NC8H19CHSCH2CHSH3NSHFeHCH2CH5SHFeCNH2CSH2CHFeSHC3H3NSH2C2HSC2SFeHNCH2C3H5CHSHCFeHCH2CHCHSC2H2CSH2CHNHCHC2SH9S2FeCHFeCH5C4H2CHCH2C2H2CHCH4CH2SH2SH2C2H4CH2CSH2C3H2CH3CH5CSH2SHSC2H3SCSHCH3CSNC3H3CH3SH2C5HCSC2FeHC2HFeHC2HC3H7CH2CHCH9CH3SFeHCHFe2H2CHSHNFeSH2S2C2FeS2FeS2FeSFeS3H3S2CHFeH3C6H5C3HC6H4C4H2C2HCH3C6H4C2H4C2H6FeHCHSHSHCHC2H5CHCHCHNCS2H3CSH3CH10FeC4H2CH3C2H2SC2HC3H2CHNHCH2NH4CH3SH3SHFeCHCSH3CHCFeC2H4C2FeCHS2CH2C2H6CH2C2HCHCH2SH3C2HCH2CHCFeCHNCHSHNCHCSCH4CHCH4CSHCH5CSH3C2HFeH4CHCHNC3H2SC3HCH2SH3CHCFeH3CSH2C2H3FeH3FeC2H3CHSHFeCHSCSCH2SFeHSH2FeH2FeH2CH2CHSH3CH6CHC2H3SH3CSC2HNCHCH5CH2SC2H3CHCHCNH4C2H4C4H4NH2C2HCHC2HC2H3CH4CH5CSC3NFeS2FeCFeS6H3C2H2CH2C2SCHC3H2C6H3SC6H4C2HCHCH2FeSHCHCH16CSCHNCHNC8H20CH4Fe2SHNCH2CSCNCH4C3H3CH2FeH3C2H2CH2CH3C3HSH2CH3CFeH3CH4FeS2HS3FeS2FeSNH3CH2C2H2C2SC5HCHC2H4C6H5FeHCSH2C7H4CHCH4CNHCH4NCSH2C2HNC6H14CHNH2FeH4SHCHFeCH7SHSCHC2HCH5CHCHCH6CH2C2HCH4CHCFeHSH3SCFeCH3SCFeSFeSHC2HC2H2C2HC7H6CH7CHCH3NH3CH2S2C2H4CHCNHNC2HCH3SH2CH2CH5CSC2H4C2H5CH4CH4FeSHFeSHFeSFeS3HSHFeS3C3H2NHNHFeHC2HC6H4C3H2NHCSH6FeSCHC2FeH2CH2SHC2HCH3CHCHC2H2C3HCH7C2HSH3CSHCH2CH5CHC2H5CH2CH3CH2CH2CH3CH2
_chemical_formula_sum              "S288 H1728 C1008 N72 Fe144"
_cell_length_a       42.2055
_cell_length_b       39.2831
_cell_length_c       85.985
_cell_angle_alpha    87.6994
_cell_angle_beta     84.113
_cell_angle_gamma    112.938

_space_group_name_H-M_alt    "P 1"
_space_group_IT_number       1

loop_
  _space_group_symop_operation_xyz
  'x, y, z'

loop_
  _atom_site_type_symbol
  _atom_site_label
  _atom_site_symmetry_multiplicity
  _atom_site_fract_x
  _atom_site_fract_y
  _atom_site_fract_z
  _atom_site_occupancy
  S   S1        1.0  0.13012  0.16359  0.14066  1.0000
  S   S2        1.0  0.12749  0.11186  0.18183  1.0000
  H   H1        1.0  0.28196  0.16726  0.19758  1.0000
  C   C1        1.0  0.34360  0.24369  0.16285  1.0000
  H   H2        1.0  0.05057  0.24302  0.21291  1.0000
  H   H3        1.0  0.10597  0.47130  0.99346  1.0000
  C   C2        1.0  0.06261  0.13734  0.15561  1.0000
  C   C3        1.0  0.08796  0.16239  0.14417  1.0000
  C   C4        1.0  0.07972  0.18724  0.13501  1.0000
  H   H4        1.0  0.02185  0.03898  0.20267  1.0000
  H   H5        1.0  0.06334  0.05727  0.23559  1.0000
  H   H6        1.0  0.45081  0.22969  0.06329  1.0000
  H   H7        1.0  0.09926  0.20672  0.12621  1.0000
  N   N1        1.0  0.46476  0.28868  0.06506  1.0000
  C   C5        1.0  0.16811  0.20009  0.19898  1.0000
  H   H8        1.0  0.17231  0.19446  0.18690  1.0000
  Fe  Fe1       1.0  0.18344  0.12911  0.18511  1.0000
  S   S3        1.0  0.20349  0.15197  0.16022  1.0000
  S   S4        1.0  0.20451  0.15842  0.20589  1.0000
  H   H9        1.0  0.10133  0.99805  0.15544  1.0000
  H   H10       1.0  0.02007  0.04350  0.15915  1.0000
  Fe  Fe2       1.0  0.20055  0.09486  0.15641  1.0000
  S   S5        1.0  0.24382  0.08820  0.14107  1.0000
  Fe  Fe3       1.0  0.14745  0.12925  0.15644  1.0000
  S   S6        1.0  0.18478  0.07352  0.18175  1.0000
  C   C6        1.0  0.04689  0.02713  0.13014  1.0000
  C   C7        1.0  0.04646  0.18732  0.13721  1.0000
  S   S7        1.0  0.38866  0.18152  0.16355  1.0000
  H   H11       1.0  0.46719  0.43839  0.08636  1.0000
  H   H12       1.0  0.09611  0.07506  0.12593  1.0000
  H   H13       1.0  0.08328  0.00132  0.22483  1.0000
  C   C8        1.0  0.17745  0.19482  0.22614  1.0000
  H   H14       1.0  0.05978  0.08755  0.12804  1.0000
  C   C9        1.0  0.99735  0.23068  0.22173  1.0000
  C   C10       1.0  0.14832  0.22072  0.20299  1.0000
  H   H15       1.0  0.04054  0.20697  0.13014  1.0000
  H   H16       1.0  0.31775  0.29704  0.17029  1.0000
  C   C11       1.0  0.28475  0.11170  0.14723  1.0000
  C   C12       1.0  0.31396  0.13021  0.13610  1.0000
  C   C13       1.0  0.34633  0.15093  0.14094  1.0000
  C   C14       1.0  0.34973  0.15250  0.15694  1.0000
  C   C15       1.0  0.32083  0.13266  0.16803  1.0000
  C   C16       1.0  0.28832  0.11272  0.16321  1.0000
  H   H17       1.0  0.31137  0.12923  0.12372  1.0000
  H   H18       1.0  0.36855  0.16583  0.13230  1.0000
  H   H19       1.0  0.32342  0.13346  0.18041  1.0000
  H   H20       1.0  0.26602  0.09820  0.17187  1.0000
  Fe  Fe4       1.0  0.47316  0.22072  0.11310  1.0000
  C   C17       1.0  0.16425  0.05765  0.22939  1.0000
  C   C18       1.0  0.18242  0.18689  0.21060  1.0000
  H   H21       1.0  0.07548  0.20565  0.19718  1.0000
  C   C19       1.0  0.40214  0.26441  0.07928  1.0000
  S   S8        1.0  0.43064  0.23827  0.12218  1.0000
  Fe  Fe5       1.0  0.43479  0.21387  0.14548  1.0000
  H   H22       1.0  0.34432  0.21956  0.15677  1.0000
  H   H23       1.0  0.99483  0.21397  0.23281  1.0000
  H   H24       1.0  0.00434  0.16519  0.22836  1.0000
  H   H25       1.0  0.45235  0.44527  0.10581  1.0000
  H   H26       1.0  0.01885  0.11327  0.22663  1.0000
  C   C20       1.0  0.08458  0.99494  0.23728  1.0000
  H   H27       1.0  0.44330  0.31151  0.04736  1.0000
  S   S9        1.0  0.47457  0.26758  0.15159  1.0000
  S   S10       1.0  0.47409  0.19185  0.13600  1.0000
  H   H28       1.0  0.39216  0.23449  0.07724  1.0000
  C   C21       1.0  0.28682  0.20172  0.17637  1.0000
  C   C22       1.0  0.46390  0.32106  0.05524  1.0000
  H   H29       1.0  0.47061  0.40643  0.13696  1.0000
  H   H30       1.0  0.42640  0.24845  0.05280  1.0000
  C   C23       1.0  0.02022  0.12834  0.21520  1.0000
  H   H31       1.0  0.06735  0.25172  0.18010  1.0000
  S   S11       1.0  0.11348  0.24851  0.22398  1.0000
  C   C24       1.0  0.02353  0.16799  0.21814  1.0000
  C   C25       1.0  0.02472  0.22869  0.20890  1.0000
  H   H32       1.0  0.04324  0.12857  0.20764  1.0000
  H   H33       1.0  0.15886  0.12089  0.23949  1.0000
  N   N2        1.0  0.02053  0.19069  0.20422  1.0000
  H   H34       1.0  0.48854  0.33475  0.04711  1.0000
  H   H35       1.0  0.02669  0.48299  0.01411  1.0000
  H   H36       1.0  0.14948  0.99829  0.22664  1.0000
  C   C26       1.0  0.05068  0.19556  0.19196  1.0000
  H   H37       1.0  0.26115  0.23421  0.15653  1.0000
  C   C27       1.0  0.29952  0.19520  0.19198  1.0000
  H   H38       1.0  0.38809  0.26660  0.09060  1.0000
  H   H39       1.0  0.07383  0.07126  0.14506  1.0000
  H   H40       1.0  0.47327  0.41400  0.10335  1.0000
  H   H41       1.0  0.48244  0.28313  0.03298  1.0000
  N   N3        1.0  0.30663  0.23914  0.16745  1.0000
  H   H42       1.0  0.18454  0.02847  0.21292  1.0000
  Fe  Fe6       1.0  0.13030  0.05780  0.17627  1.0000
  H   H43       1.0  0.08557  0.44099  0.01074  1.0000
  S   S12       1.0  0.47297  0.34523  0.12108  1.0000
  H   H44       1.0  0.04800  0.16857  0.18744  1.0000
  C   C28       1.0  0.30658  0.26982  0.17743  1.0000
  H   H45       1.0  0.36970  0.30469  0.15798  1.0000
  H   H46       1.0  0.13576  0.10120  0.21671  1.0000
  H   H47       1.0  0.02400  0.24651  0.19868  1.0000
  H   H48       1.0  0.31833  0.22143  0.13513  1.0000
  H   H49       1.0  0.13752  0.23115  0.19397  1.0000
  H   H50       1.0  0.35786  0.28011  0.14071  1.0000
  H   H51       1.0  0.29877  0.21543  0.20046  1.0000
  H   H52       1.0  0.39580  0.27979  0.06983  1.0000
  C   C29       1.0  0.28928  0.24118  0.15315  1.0000
  H   H53       1.0  0.28770  0.17940  0.16915  1.0000
  H   H54       1.0  0.17854  0.05283  0.23881  1.0000
  H   H55       1.0  0.06900  0.11843  0.16288  1.0000
  H   H56       1.0  0.08900  0.10678  0.23417  1.0000
  C   C30       1.0  0.29136  0.21517  0.14040  1.0000
  H   H57       1.0  0.29994  0.26996  0.14740  1.0000
  H   H58       1.0  0.27874  0.18548  0.14480  1.0000
  H   H59       1.0  0.27719  0.21890  0.13071  1.0000
  H   H60       1.0  0.32590  0.19513  0.19011  1.0000
  H   H61       1.0  0.07189  0.08495  0.21739  1.0000
  H   H62       1.0  0.35692  0.24402  0.17339  1.0000
  C   C31       1.0  0.27068  0.26601  0.18542  1.0000
  C   C32       1.0  0.02470  0.45451  0.01197  1.0000
  H   H63       1.0  0.32368  0.27285  0.18678  1.0000
  H   H64       1.0  0.17517  0.00799  0.15809  1.0000
  H   H65       1.0  0.25876  0.19600  0.17888  1.0000
  H   H66       1.0  0.14165  0.02299  0.21021  1.0000
  C   C33       1.0  0.44139  0.27951  0.08048  1.0000
  H   H67       1.0  0.46128  0.23370  0.03350  1.0000
  S   S13       1.0  0.47014  0.19925  0.08937  1.0000
  H   H68       1.0  0.25231  0.26413  0.17684  1.0000
  H   H69       1.0  0.03113  0.44381  0.02291  1.0000
  H   H70       1.0  0.18915  0.18542  0.23508  1.0000
  H   H71       1.0  0.43054  0.04326  0.99318  1.0000
  S   S14       1.0  0.08692  0.00684  0.18856  1.0000
  H   H72       1.0  0.25884  0.24188  0.19435  1.0000
  C   C34       1.0  0.02085  0.16196  0.14834  1.0000
  C   C35       1.0  0.45289  0.25471  0.05597  1.0000
  Fe  Fe7       1.0  0.47416  0.28982  0.12730  1.0000
  C   C36       1.0  0.06998  0.06755  0.13259  1.0000
  H   H73       1.0  0.27387  0.29104  0.19173  1.0000
  H   H74       1.0  0.03286  0.00571  0.15936  1.0000
  H   H75       1.0  0.07551  0.21904  0.16836  1.0000
  S   S15       1.0  0.14597  0.07373  0.15041  1.0000
  H   H76       1.0  0.06032  0.00937  0.13391  1.0000
  C   C37       1.0  0.36702  0.27910  0.15227  1.0000
  H   H77       1.0  0.39348  0.27919  0.14992  1.0000
  H   H78       1.0  0.47534  0.36284  0.07295  1.0000
  H   H79       1.0  0.44565  0.25819  0.08791  1.0000
  C   C38       1.0  0.14162  0.22673  0.21869  1.0000
  C   C39       1.0  0.99841  0.02476  0.21138  1.0000
  H   H80       1.0  0.11102  0.05545  0.21374  1.0000
  C   C40       1.0  0.02888  0.13689  0.15759  1.0000
  H   H81       1.0  0.44759  0.30370  0.08760  1.0000
  C   C41       1.0  0.45759  0.35182  0.06409  1.0000
  C   C42       1.0  0.47349  0.44077  0.09856  1.0000
  C   C43       1.0  0.47562  0.25690  0.04038  1.0000
  C   C44       1.0  0.15629  0.21388  0.23026  1.0000
  C   C45       1.0  0.08526  0.46513  0.00357  1.0000
  H   H82       1.0  0.00548  0.25987  0.22474  1.0000
  H   H83       1.0  0.00956  0.11798  0.16655  1.0000
  H   H84       1.0  0.18253  0.08350  0.22226  1.0000
  C   C46       1.0  0.03963  0.41826  0.99165  1.0000
  C   C47       1.0  0.05623  0.22234  0.17734  1.0000
  C   C48       1.0  0.11658  0.07473  0.22304  1.0000
  N   N4        1.0  0.01032  0.01256  0.13846  1.0000
  H   H85       1.0  0.43051  0.34212  0.06988  1.0000
  H   H86       1.0  0.03217  0.21648  0.17191  1.0000
  C   C49       1.0  0.08326  0.08106  0.22806  1.0000
  C   C50       1.0  0.15897  0.02491  0.21923  1.0000
  H   H87       1.0  0.48487  0.49158  0.06792  1.0000
  H   H88       1.0  0.38478  0.03483  0.99591  1.0000
  H   H89       1.0  0.46170  0.37546  0.05547  1.0000
  H   H90       1.0  0.99626  0.11231  0.21009  1.0000
  H   H91       1.0  0.99792  0.04497  0.21994  1.0000
  H   H92       1.0  0.04896  0.18247  0.22250  1.0000
  N   N5        1.0  0.13208  0.06260  0.23616  1.0000
  N   N6        1.0  0.05020  0.45579  0.99802  1.0000
  H   H93       1.0  0.04753  0.02569  0.11728  1.0000
  H   H94       1.0  0.00884  0.04141  0.10827  1.0000
  C   C51       1.0  0.01235  0.01443  0.15590  1.0000
  H   H95       1.0  0.03665  0.39675  0.00120  1.0000
  H   H96       1.0  0.02356  1.00000  0.22595  1.0000
  H   H97       1.0  0.00337  0.06491  0.13754  1.0000
  H   H98       1.0  0.41586  0.99215  0.01284  1.0000
  Fe  Fe8       1.0  0.08404  0.17486  0.27645  1.0000
  S   S16       1.0  0.06286  0.16464  0.25348  1.0000
  S   S17       1.0  0.10854  0.13860  0.28646  1.0000
  Fe  Fe9       1.0  0.06494  0.24089  0.28107  1.0000
  S   S18       1.0  0.04130  0.23593  0.25857  1.0000
  S   S19       1.0  0.06481  0.28310  0.29818  1.0000
  Fe  Fe10      1.0  0.01791  0.17456  0.26542  1.0000
  C   C52       1.0  0.02387  0.45021  0.42633  1.0000
  Fe  Fe11      1.0  0.08780  0.22625  0.24846  1.0000
  H   H99       1.0  0.25733  0.42594  0.48608  1.0000
  S   S20       1.0  0.03714  0.18015  0.28901  1.0000
  S   S21       1.0  0.11363  0.23597  0.27032  1.0000
  Fe  Fe12      1.0  0.22620  0.43744  0.32545  1.0000
  S   S22       1.0  0.25540  0.43566  0.34563  1.0000
  S   S23       1.0  0.21503  0.39391  0.30812  1.0000
  C   C53       1.0  0.16395  0.09107  0.25985  1.0000
  H   H100      1.0  0.19833  0.30382  0.31236  1.0000
  C   C54       1.0  0.16433  0.21106  0.30550  1.0000
  H   H101      1.0  0.37083  0.45565  0.35683  1.0000
  C   C55       1.0  0.02403  0.47645  0.47256  1.0000
  H   H102      1.0  0.18935  0.29338  0.33856  1.0000
  H   H103      1.0  0.10049  0.21416  0.33313  1.0000
  C   C56       1.0  0.22802  0.47739  0.48290  1.0000
  C   C57       1.0  0.28487  0.46522  0.45799  1.0000
  H   H104      1.0  0.15219  0.06377  0.26679  1.0000
  C   C58       1.0  0.14292  0.09423  0.24660  1.0000
  H   H105      1.0  0.05604  0.00888  0.32195  1.0000
  H   H106      1.0  0.22100  0.27286  0.28368  1.0000
  H   H107      1.0  0.47105  0.41267  0.48575  1.0000
  N   N7        1.0  0.15266  0.47852  0.29260  1.0000
  H   H108      1.0  0.31425  0.41281  0.38443  1.0000
  H   H109      1.0  0.44425  0.01137  0.48127  1.0000
  H   H110      1.0  0.19130  0.09711  0.25521  1.0000
  C   C59       1.0  0.19572  0.20001  0.30465  1.0000
  H   H111      1.0  0.13818  0.27864  0.31844  1.0000
  H   H112      1.0  0.46792  0.07100  0.46876  1.0000
  C   C60       1.0  0.12866  0.45486  0.28178  1.0000
  H   H113      1.0  0.08845  0.03495  0.25411  1.0000
  C   C61       1.0  0.34562  0.43433  0.36237  1.0000
  C   C62       1.0  0.30868  0.47745  0.38002  1.0000
  C   C63       1.0  0.43740  0.44067  0.48107  1.0000
  H   H114      1.0  0.99982  0.40948  0.44686  1.0000
  H   H115      1.0  0.01880  0.47072  0.43365  1.0000
  C   C64       1.0  0.99662  0.44270  0.47808  1.0000
  H   H116      1.0  0.21629  0.44688  0.48550  1.0000
  C   C65       1.0  0.11365  0.44103  0.31796  1.0000
  H   H117      1.0  0.14333  0.26640  0.34397  1.0000
  C   C66       1.0  0.19899  0.27828  0.30739  1.0000
  C   C67       1.0  0.18174  0.46661  0.29528  1.0000
  C   C68       1.0  0.08152  0.09215  0.28490  1.0000
  C   C69       1.0  0.09233  0.06349  0.28835  1.0000
  C   C70       1.0  0.10684  0.02814  0.24594  1.0000
  C   C71       1.0  0.04938  0.08379  0.27960  1.0000
  H   H118      1.0  0.11708  0.06982  0.29260  1.0000
  H   H119      1.0  0.04055  0.10554  0.27725  1.0000
  C   C72       1.0  0.10572  0.31692  0.30038  1.0000
  C   C73       1.0  0.13359  0.32546  0.28855  1.0000
  C   C74       1.0  0.16680  0.35008  0.29096  1.0000
  C   C75       1.0  0.17238  0.36627  0.30518  1.0000
  C   C76       1.0  0.14435  0.35889  0.31684  1.0000
  C   C77       1.0  0.11095  0.33433  0.31439  1.0000
  H   H120      1.0  0.12959  0.31293  0.27757  1.0000
  H   H121      1.0  0.18830  0.35643  0.28177  1.0000
  H   H122      1.0  0.14855  0.37126  0.32786  1.0000
  H   H123      1.0  0.08936  0.32783  0.32355  1.0000
  H   H124      1.0  0.09365  0.19667  0.31397  1.0000
  H   H125      1.0  0.13252  0.25746  0.30077  1.0000
  H   H126      1.0  0.22022  0.22274  0.29938  1.0000
  H   H127      1.0  0.47690  0.44019  0.42960  1.0000
  H   H128      1.0  0.09132  0.42274  0.31235  1.0000
  C   C78       1.0  0.12018  0.41268  0.28339  1.0000
  H   H129      1.0  0.15096  0.20869  0.33605  1.0000
  H   H130      1.0  0.32062  0.43378  0.47755  1.0000
  H   H131      1.0  0.01563  0.45464  0.41479  1.0000
  N   N8        1.0  0.16751  0.24445  0.31428  1.0000
  H   H132      1.0  0.22300  0.27598  0.31063  1.0000
  N   N9        1.0  0.06205  0.45686  0.42455  1.0000
  H   H133      1.0  0.13075  0.42664  0.32034  1.0000
  C   C79       1.0  0.10081  0.22176  0.32056  1.0000
  H   H134      1.0  0.17216  0.43820  0.30106  1.0000
  H   H135      1.0  0.19893  0.18983  0.31636  1.0000
  C   C80       1.0  0.10720  0.43767  0.43662  1.0000
  C   C81       1.0  0.20642  0.46811  0.28049  1.0000
  H   H136      1.0  0.19624  0.23395  0.33204  1.0000
  H   H137      1.0  0.10356  0.45828  0.28317  1.0000
  C   C82       1.0  0.07357  0.44859  0.40848  1.0000
  C   C83       1.0  0.13299  0.47870  0.30826  1.0000
  H   H138      1.0  0.21852  0.31603  0.28620  1.0000
  C   C84       1.0  0.43401  0.07604  0.48928  1.0000
  H   H139      1.0  0.10275  0.44584  0.32958  1.0000
  H   H140      1.0  0.11539  0.42716  0.42581  1.0000
  H   H141      1.0  0.29975  0.41197  0.40982  1.0000
  H   H142      1.0  0.17969  0.27745  0.28402  1.0000
  Fe  Fe13      1.0  0.22308  0.46203  0.35837  1.0000
  H   H143      1.0  0.05334  0.40470  0.43767  1.0000
  C   C85       1.0  0.06950  0.43480  0.43743  1.0000
  C   C86       1.0  0.33744  0.46984  0.40324  1.0000
  H   H144      1.0  0.34611  0.40690  0.36008  1.0000
  S   S24       1.0  0.20482  0.44686  0.38414  1.0000
  C   C87       1.0  0.41797  0.01076  0.48484  1.0000
  H   H145      1.0  0.00406  0.00691  0.33731  1.0000
  C   C88       1.0  0.05795  0.40766  0.40497  1.0000
  C   C89       1.0  0.33944  0.43623  0.38029  1.0000
  C   C90       1.0  0.03954  0.01874  0.28030  1.0000
  H   H146      1.0  0.25793  0.44646  0.46238  1.0000
  H   H147      1.0  0.19090  0.17664  0.29709  1.0000
  H   H148      1.0  0.12598  0.46614  0.43764  1.0000
  H   H149      1.0  0.17423  0.25734  0.35420  1.0000
  C   C91       1.0  0.02843  0.04722  0.27731  1.0000
  H   H150      1.0  0.28433  0.45205  0.38294  1.0000
  C   C92       1.0  0.07143  0.02671  0.28592  1.0000
  H   H151      1.0  0.06915  0.40516  0.39300  1.0000
  S   S25       1.0  0.19014  0.45852  0.33902  1.0000
  C   C93       1.0  0.16931  0.26528  0.34243  1.0000
  C   C94       1.0  0.20409  0.28574  0.28932  1.0000
  H   H152      1.0  0.32439  0.43656  0.35638  1.0000
  C   C95       1.0  0.13564  0.25246  0.31317  1.0000
  H   H153      1.0  0.15883  0.21474  0.29329  1.0000
  C   C96       1.0  0.17100  0.23622  0.33115  1.0000
  H   H154      1.0  0.40982  0.01965  0.47399  1.0000
  C   C97       1.0  0.00031  0.99343  0.32616  1.0000
  C   C98       1.0  0.30357  0.44069  0.41224  1.0000
  H   H155      1.0  0.16481  0.11242  0.26809  1.0000
  H   H156      1.0  0.07993  0.23213  0.31987  1.0000
  H   H157      1.0  0.14179  0.18605  0.31102  1.0000
  H   H158      1.0  0.10239  0.45843  0.40641  1.0000
  H   H159      1.0  0.20331  0.47053  0.41541  1.0000
  H   H160      1.0  0.00103  0.42291  0.48575  1.0000
  H   H161      1.0  0.41556  0.07997  0.48171  1.0000
  H   H162      1.0  0.12260  0.40144  0.29494  1.0000
  C   C99       1.0  0.46928  0.08791  0.47889  1.0000
  C   C100      1.0  0.47290  0.45342  0.44029  1.0000
  H   H163      1.0  0.09285  0.39718  0.28133  1.0000
  H   H164      1.0  0.13612  0.40526  0.27413  1.0000
  H   H165      1.0  0.06250  0.44307  0.44913  1.0000
  C   C101      1.0  0.46852  0.43903  0.48479  1.0000
  H   H166      1.0  0.99969  0.38846  0.42850  1.0000
  H   H167      1.0  0.19234  0.45465  0.27076  1.0000
  H   H168      1.0  0.41598  0.41552  0.47912  1.0000
  H   H169      1.0  0.02951  0.39748  0.40500  1.0000
  H   H170      1.0  0.44740  0.45568  0.44055  1.0000
  H   H171      1.0  0.12071  0.01724  0.25380  1.0000
  H   H172      1.0  0.30505  0.44238  0.42502  1.0000
  H   H173      1.0  0.14005  0.46443  0.26931  1.0000
  C   C102      1.0  0.99744  0.41232  0.43417  1.0000
  H   H174      1.0  0.08018  0.00472  0.28820  1.0000
  H   H175      1.0  0.10896  0.42021  0.44671  1.0000
  H   H176      1.0  0.35964  0.42939  0.38547  1.0000
  H   H177      1.0  0.06427  0.38949  0.41319  1.0000
  C   C103      1.0  0.19518  0.48762  0.40794  1.0000
  H   H178      1.0  0.47763  0.11715  0.47403  1.0000
  H   H179      1.0  0.19802  0.48432  0.30364  1.0000
  H   H180      1.0  0.22294  0.45320  0.28341  1.0000
  H   H181      1.0  0.06689  0.46417  0.39916  1.0000
  H   H182      1.0  0.47080  0.43475  0.45073  1.0000
  S   S26       1.0  0.06506  0.48606  0.47846  1.0000
  H   H183      1.0  0.11988  0.09799  0.25248  1.0000
  H   H184      1.0  0.00368  0.04114  0.27307  1.0000
  H   H185      1.0  0.29969  0.44839  0.45416  1.0000
  H   H186      1.0  0.15150  0.21882  0.24237  1.0000
  H   H187      1.0  0.28057  0.44617  0.40983  1.0000
  C   C104      1.0  0.43472  0.47503  0.47913  1.0000
  H   H188      1.0  0.23276  0.48522  0.47008  1.0000
  C   C105      1.0  0.30751  0.42834  0.48977  1.0000
  H   H189      1.0  0.31169  0.48079  0.36703  1.0000
  H   H190      1.0  0.00293  0.01569  0.31699  1.0000
  H   H191      1.0  0.35954  0.46403  0.40693  1.0000
  S   S27       1.0  0.39808  0.47800  0.47220  1.0000
  N   N10       1.0  0.33947  0.47246  0.38559  1.0000
  H   H192      1.0  0.28383  0.48089  0.44713  1.0000
  C   C106      1.0  0.19345  0.48163  0.39205  1.0000
  N   N11       1.0  0.29062  0.48447  0.48665  1.0000
  H   H193      1.0  0.48980  0.08703  0.48573  1.0000
  H   H194      1.0  0.11259  0.48942  0.30681  1.0000
  H   H195      1.0  0.20824  0.48778  0.48762  1.0000
  H   H196      1.0  0.39619  0.05301  0.52758  1.0000
  H   H197      1.0  0.46699  0.22008  0.54123  1.0000
  H   H198      1.0  0.04731  0.11219  0.68272  1.0000
  Fe  Fe14      1.0  0.25987  0.09440  0.67604  1.0000
  S   S28       1.0  0.22833  0.07170  0.69961  1.0000
  S   S29       1.0  0.30647  0.14878  0.67524  1.0000
  H   H199      1.0  0.01287  0.02033  0.62031  1.0000
  H   H200      1.0  0.39583  0.18560  0.71035  1.0000
  Fe  Fe15      1.0  0.18287  0.06706  0.68734  1.0000
  S   S30       1.0  0.14003  0.08032  0.69921  1.0000
  H   H201      1.0  0.47359  0.17547  0.60165  1.0000
  H   H202      1.0  0.00417  0.02645  0.64789  1.0000
  S   S31       1.0  0.21459  0.09450  0.66443  1.0000
  H   H203      1.0  0.41687  0.24822  0.69190  1.0000
  H   H204      1.0  0.44074  0.27280  0.59298  1.0000
  C   C107      1.0  0.22469  0.25234  0.72150  1.0000
  C   C108      1.0  0.19483  0.18491  0.68012  1.0000
  H   H205      1.0  0.46563  0.20070  0.70809  1.0000
  H   H206      1.0  0.12731  0.12872  0.72714  1.0000
  C   C109      1.0  0.41942  0.19573  0.55599  1.0000
  Fe  Fe16      1.0  0.99663  0.09967  0.66045  1.0000
  C   C110      1.0  0.46585  0.27880  0.56917  1.0000
  S   S32       1.0  0.45021  0.17761  0.63524  1.0000
  C   C111      1.0  0.05832  0.20163  0.70644  1.0000
  N   N12       1.0  0.41925  0.03711  0.49731  1.0000
  H   H207      1.0  0.48906  0.27696  0.57349  1.0000
  C   C112      1.0  0.03349  0.02495  0.72735  1.0000
  H   H208      1.0  0.43362  0.16233  0.69138  1.0000
  H   H209      1.0  0.22743  0.18375  0.71092  1.0000
  H   H210      1.0  0.13209  0.19408  0.70464  1.0000
  H   H211      1.0  0.46530  0.13195  0.59327  1.0000
  N   N13       1.0  0.45353  0.22240  0.68703  1.0000
  C   C113      1.0  0.18691  0.22823  0.71923  1.0000
  N   N14       1.0  0.46196  0.26574  0.55296  1.0000
  H   H212      1.0  0.16808  0.17284  0.67692  1.0000
  C   C114      1.0  0.11434  0.08591  0.68542  1.0000
  C   C115      1.0  0.12160  0.08108  0.66964  1.0000
  C   C116      1.0  0.10198  0.08743  0.65856  1.0000
  H   H213      1.0  0.17609  0.03337  0.72989  1.0000
  C   C117      1.0  0.06721  0.10242  0.67910  1.0000
  C   C118      1.0  0.08687  0.09618  0.69017  1.0000
  H   H214      1.0  0.14235  0.07255  0.66589  1.0000
  H   H215      1.0  0.10824  0.08446  0.64632  1.0000
  C   C119      1.0  0.43243  0.27140  0.54633  1.0000
  H   H216      1.0  0.08116  0.10003  0.70234  1.0000
  C   C120      1.0  0.34426  0.15586  0.66245  1.0000
  C   C121      1.0  0.36741  0.19227  0.65728  1.0000
  C   C122      1.0  0.39918  0.19906  0.64815  1.0000
  C   C123      1.0  0.40846  0.16951  0.64456  1.0000
  C   C124      1.0  0.38502  0.13304  0.64944  1.0000
  C   C125      1.0  0.35286  0.12619  0.65828  1.0000
  H   H217      1.0  0.36075  0.21529  0.66039  1.0000
  H   H218      1.0  0.41674  0.22717  0.64419  1.0000
  H   H219      1.0  0.39200  0.11004  0.64665  1.0000
  H   H220      1.0  0.33519  0.09804  0.66225  1.0000
  S   S33       1.0  0.18947  0.01266  0.63670  1.0000
  H   H221      1.0  0.18954  0.14480  0.70900  1.0000
  Fe  Fe17      1.0  0.20674  0.03649  0.65914  1.0000
  S   S34       1.0  0.46437  0.13149  0.52676  1.0000
  C   C126      1.0  0.46367  0.29170  0.68190  1.0000
  C   C127      1.0  0.99644  0.18659  0.70882  1.0000
  H   H222      1.0  0.42986  0.26092  0.53447  1.0000
  H   H223      1.0  0.20310  0.16238  0.68345  1.0000
  H   H224      1.0  0.40425  0.19862  0.56672  1.0000
  S   S35       1.0  0.04833  0.10236  0.64951  1.0000
  H   H225      1.0  0.47050  0.30862  0.56887  1.0000
  H   H226      1.0  0.32728  0.43958  0.49787  1.0000
  H   H227      1.0  0.21183  0.20004  0.66919  1.0000
  C   C128      1.0  0.12178  0.15339  0.72413  1.0000
  C   C129      1.0  0.43256  0.20949  0.51086  1.0000
  H   H228      1.0  0.07786  0.00647  0.61249  1.0000
  H   H229      1.0  0.46829  0.03780  0.50281  1.0000
  H   H230      1.0  0.06211  0.04013  0.63478  1.0000
  H   H231      1.0  0.28258  0.07561  0.73531  1.0000
  S   S36       1.0  0.25512  0.03837  0.66872  1.0000
  N   N15       1.0  0.18208  0.19612  0.70933  1.0000
  C   C130      1.0  0.05952  0.21376  0.72158  1.0000
  H   H232      1.0  0.22694  0.22861  0.69250  1.0000
  C   C131      1.0  0.07439  0.09754  0.66331  1.0000
  H   H233      1.0  0.06923  0.00906  0.64831  1.0000
  H   H234      1.0  0.13940  0.15389  0.70026  1.0000
  H   H235      1.0  0.02585  0.17749  0.68861  1.0000
  H   H236      1.0  0.40512  0.19596  0.54587  1.0000
  H   H237      1.0  0.41223  0.31192  0.53930  1.0000
  H   H238      1.0  0.18159  0.12920  0.73487  1.0000
  H   H239      1.0  0.17572  0.24700  0.71413  1.0000
  C   C132      1.0  0.46628  0.22746  0.70291  1.0000
  C   C133      1.0  0.05888  0.01075  0.63706  1.0000
  H   H240      1.0  0.23822  0.23572  0.72612  1.0000
  C   C134      1.0  0.47810  0.16252  0.59086  1.0000
  C   C135      1.0  0.02905  0.21197  0.73036  1.0000
  H   H241      1.0  0.42795  0.24531  0.67164  1.0000
  H   H242      1.0  0.00414  0.11186  0.72039  1.0000
  C   C136      1.0  0.99775  0.19934  0.72382  1.0000
  C   C137      1.0  0.19895  0.17104  0.71481  1.0000
  H   H243      1.0  0.08176  0.20314  0.69953  1.0000
  C   C138      1.0  0.43539  0.25839  0.58208  1.0000
  H   H244      1.0  0.22559  0.03060  0.73010  1.0000
  C   C139      1.0  0.43880  0.25055  0.68300  1.0000
  H   H245      1.0  0.21971  0.16879  0.73706  1.0000
  H   H246      1.0  0.49125  0.28670  0.52986  1.0000
  H   H247      1.0  0.09008  0.05757  0.72588  1.0000
  H   H248      1.0  0.18790  0.23273  0.68864  1.0000
  C   C140      1.0  0.06638  0.04882  0.73441  1.0000
  H   H249      1.0  0.43276  0.22959  0.58496  1.0000
  C   C141      1.0  0.02667  0.18725  0.70021  1.0000
  H   H250      1.0  0.40718  0.25515  0.55354  1.0000
  C   C142      1.0  0.46379  0.23996  0.50601  1.0000
  S   S37       1.0  0.17123  0.00930  0.68106  1.0000
  H   H251      1.0  0.47245  0.21883  0.56136  1.0000
  H   H252      1.0  0.45821  0.32998  0.53651  1.0000
  H   H253      1.0  0.23974  0.26903  0.71051  1.0000
  C   C143      1.0  0.46430  0.17252  0.51797  1.0000
  Fe  Fe18      1.0  0.21960  0.01572  0.69140  1.0000
  H   H254      1.0  0.26859  0.43871  0.50471  1.0000
  C   C144      1.0  0.01179  0.99606  0.66763  1.0000
  H   H255      1.0  0.35332  0.04490  0.52350  1.0000
  H   H256      1.0  0.45021  0.30887  0.67760  1.0000
  H   H257      1.0  0.47068  0.30065  0.69359  1.0000
  H   H258      1.0  0.08628  0.01119  0.71131  1.0000
  H   H259      1.0  0.43466  0.32358  0.55605  1.0000
  C   C145      1.0  0.19410  0.15992  0.73267  1.0000
  C   C146      1.0  0.39097  0.17716  0.69839  1.0000
  H   H260      1.0  0.11060  0.02509  0.62493  1.0000
  C   C147      1.0  0.00159  0.99761  0.65096  1.0000
  C   C148      1.0  0.14384  0.17499  0.70880  1.0000
  S   S38       1.0  0.09920  0.23175  0.72933  1.0000
  H   H261      1.0  0.37558  0.19110  0.69325  1.0000
  C   C149      1.0  0.19855  0.21258  0.69283  1.0000
  C   C150      1.0  0.45696  0.22548  0.55291  1.0000
  C   C151      1.0  0.05984  0.99741  0.70786  1.0000
  H   H262      1.0  0.03048  0.04218  0.71744  1.0000
  H   H263      1.0  0.41746  0.17778  0.67563  1.0000
  H   H264      1.0  0.38882  0.08389  0.51351  1.0000
  C   C152      1.0  0.43280  0.17588  0.51687  1.0000
  H   H265      1.0  0.03808  0.01698  0.66859  1.0000
  H   H266      1.0  0.42032  0.16785  0.55718  1.0000
  C   C153      1.0  0.43509  0.31171  0.54459  1.0000
  H   H267      1.0  0.37431  0.14698  0.69948  1.0000
  H   H268      1.0  0.36920  0.00065  0.51012  1.0000
  H   H269      1.0  0.41064  0.25876  0.57907  1.0000
  H   H270      1.0  0.05713  0.01739  0.69906  1.0000
  H   H271      1.0  0.40813  0.21219  0.51031  1.0000
  H   H272      1.0  0.09397  0.14303  0.72243  1.0000
  C   C154      1.0  0.38311  0.02967  0.50494  1.0000
  C   C155      1.0  0.08402  0.00378  0.62457  1.0000
  H   H273      1.0  0.17209  0.21932  0.73105  1.0000
  C   C156      1.0  0.42479  0.18421  0.68754  1.0000
  C   C157      1.0  0.38076  0.05455  0.51809  1.0000
  H   H274      1.0  0.40858  0.15276  0.52095  1.0000
  C   C158      1.0  0.44298  0.03535  0.50901  1.0000
  H   H275      1.0  0.44852  0.23500  0.71123  1.0000
  H   H276      1.0  0.45029  0.05982  0.51601  1.0000
  H   H277      1.0  0.01152  0.02119  0.73645  1.0000
  S   S39       1.0  0.48530  0.28901  0.63934  1.0000
  H   H278      1.0  0.46512  0.17093  0.58175  1.0000
  H   H279      1.0  0.06389  0.07456  0.73808  1.0000
  S   S40       1.0  0.46249  0.28285  0.50024  1.0000
  H   H280      1.0  0.44160  0.00816  0.53174  1.0000
  H   H281      1.0  0.22449  0.27238  0.73025  1.0000
  C   C159      1.0  0.43063  0.00031  0.52058  1.0000
  H   H282      1.0  0.48730  0.29839  0.67347  1.0000
  H   H283      1.0  0.12460  0.17062  0.73411  1.0000
  H   H284      1.0  0.28466  0.03523  0.72743  1.0000
  C   C160      1.0  0.27911  0.44393  0.49200  1.0000
  C   C161      1.0  0.27482  0.04537  0.73800  1.0000
  Fe  Fe19      1.0  0.48824  0.23718  0.63033  1.0000
  S   S41       1.0  0.49379  0.35121  0.59886  1.0000
  C   C162      1.0  0.23498  0.02443  0.74099  1.0000
  H   H285      1.0  0.47101  0.22241  0.66249  1.0000
  H   H286      1.0  0.17806  0.17096  0.74008  1.0000
  H   H287      1.0  0.29553  0.39776  0.49255  1.0000
  H   H288      1.0  0.47800  0.16777  0.67209  1.0000
  C   C163      1.0  0.48131  0.22468  0.67400  1.0000
  H   H289      1.0  0.48853  0.10668  0.57339  1.0000
  H   H290      1.0  0.43798  0.09703  0.49800  1.0000
  H   H291      1.0  0.36697  0.03274  0.49593  1.0000
  H   H292      1.0  0.00071  0.48173  0.98493  1.0000
  Fe  Fe20      1.0  0.26847  0.48716  0.81497  1.0000
  C   C164      1.0  0.22837  0.07438  0.75555  1.0000
  H   H293      1.0  0.20392  0.42397  0.96069  1.0000
  H   H294      1.0  0.04948  0.02766  0.80143  1.0000
  S   S42       1.0  0.06892  0.22089  0.77675  1.0000
  H   H295      1.0  0.13865  0.31897  0.77458  1.0000
  Fe  Fe21      1.0  0.10724  0.14685  0.77003  1.0000
  S   S43       1.0  0.08597  0.15402  0.79405  1.0000
  S   S44       1.0  0.12191  0.10003  0.76289  1.0000
  H   H296      1.0  0.07606  0.48998  0.97643  1.0000
  Fe  Fe22      1.0  0.11379  0.21529  0.78707  1.0000
  S   S45       1.0  0.13584  0.25409  0.80554  1.0000
  H   H297      1.0  0.19781  0.10786  0.76044  1.0000
  S   S46       1.0  0.13990  0.20758  0.76414  1.0000
  Fe  Fe23      1.0  0.29524  0.42576  0.81229  1.0000
  S   S47       1.0  0.25338  0.43223  0.82863  1.0000
  S   S48       1.0  0.28964  0.37487  0.79950  1.0000
  H   H298      1.0  0.18360  0.44676  0.78274  1.0000
  H   H299      1.0  0.39001  0.46408  0.87573  1.0000
  S   S49       1.0  0.27629  0.46560  0.95671  1.0000
  Fe  Fe24      1.0  0.29645  0.46352  0.84247  1.0000
  S   S50       1.0  0.28860  0.45133  0.86869  1.0000
  C   C165      1.0  0.48020  0.47394  0.96597  1.0000
  Fe  Fe25      1.0  0.09290  0.20844  0.75429  1.0000
  S   S51       1.0  0.33743  0.45263  0.82725  1.0000
  H   H300      1.0  0.22822  0.46121  0.88163  1.0000
  C   C166      1.0  0.24805  0.33865  0.80187  1.0000
  C   C167      1.0  0.22417  0.33527  0.81495  1.0000
  C   C168      1.0  0.19023  0.30820  0.81613  1.0000
  C   C169      1.0  0.17981  0.28440  0.80422  1.0000
  C   C170      1.0  0.20395  0.28685  0.79133  1.0000
  C   C171      1.0  0.23815  0.31381  0.79023  1.0000
  H   H301      1.0  0.23183  0.35353  0.82418  1.0000
  H   H302      1.0  0.17177  0.30608  0.82622  1.0000
  H   H303      1.0  0.19615  0.26848  0.78213  1.0000
  H   H304      1.0  0.25666  0.31616  0.78014  1.0000
  C   C172      1.0  0.11733  0.06830  0.77873  1.0000
  C   C173      1.0  0.12579  0.08046  0.79340  1.0000
  C   C174      1.0  0.12589  0.05526  0.80544  1.0000
  H   H305      1.0  0.39845  0.42711  0.86671  1.0000
  H   H306      1.0  0.23301  0.43755  0.77391  1.0000
  C   C175      1.0  0.10782  0.03079  0.77628  1.0000
  H   H307      1.0  0.13342  0.10948  0.79532  1.0000
  H   H308      1.0  0.13315  0.06485  0.81669  1.0000
  C   C176      1.0  0.23272  0.41057  0.77839  1.0000
  C   C177      1.0  0.46602  0.47337  0.85602  1.0000
  H   H309      1.0  0.16566  0.41537  0.76855  1.0000
  H   H310      1.0  0.03853  0.06360  0.80904  1.0000
  H   H311      1.0  0.22274  0.10546  0.77562  1.0000
  C   C178      1.0  0.10785  0.00564  0.78829  1.0000
  H   H312      1.0  0.20578  0.42686  0.80388  1.0000
  C   C179      1.0  0.00068  0.06918  0.78165  1.0000
  H   H313      1.0  0.01381  0.40934  0.98750  1.0000
  H   H314      1.0  0.16934  0.41829  0.82868  1.0000
  C   C180      1.0  0.24685  0.47975  0.90887  1.0000
  H   H315      1.0  0.45719  0.46181  0.86850  1.0000
  H   H316      1.0  0.28809  0.04029  0.74774  1.0000
  H   H317      1.0  0.16219  0.01123  0.76567  1.0000
  H   H318      1.0  0.09593  0.31200  0.78279  1.0000
  H   H319      1.0  0.30728  0.44068  0.89911  1.0000
  H   H320      1.0  0.13556  0.01329  0.74193  1.0000
  H   H321      1.0  0.25364  0.02609  0.76951  1.0000
  C   C181      1.0  0.03832  0.03577  0.81216  1.0000
  H   H322      1.0  0.15450  0.43729  0.81334  1.0000
  H   H323      1.0  0.20137  0.46146  0.92713  1.0000
  H   H324      1.0  0.25547  0.08658  0.75844  1.0000
  H   H325      1.0  0.22944  0.08711  0.74357  1.0000
  H   H326      1.0  0.18778  0.38009  0.81207  1.0000
  H   H327      1.0  0.13149  0.45174  0.78329  1.0000
  C   C182      1.0  0.20807  0.45295  0.96073  1.0000
  H   H328      1.0  0.02750  0.08801  0.77941  1.0000
  H   H329      1.0  0.10984  0.40782  0.77638  1.0000
  H   H330      1.0  0.05338  0.38673  0.97389  1.0000
  C   C183      1.0  0.35343  0.48881  0.90139  1.0000
  H   H331      1.0  0.45613  0.47510  0.81980  1.0000
  C   C184      1.0  0.06465  0.41502  0.97792  1.0000
  H   H332      1.0  0.26110  0.46555  0.90200  1.0000
  H   H333      1.0  0.35555  0.47945  0.91310  1.0000
  S   S52       1.0  0.30707  0.47859  0.79751  1.0000
  H   H334      1.0  0.19929  0.42813  0.91275  1.0000
  H   H335      1.0  0.41939  0.99760  0.97261  1.0000
  H   H336      1.0  0.18342  0.06715  0.77362  1.0000
  H   H337      1.0  0.14113  0.33286  0.80160  1.0000
  H   H338      1.0  0.22739  0.43504  0.92750  1.0000
  C   C185      1.0  0.32614  0.46690  0.89346  1.0000
  H   H339      1.0  0.13155  0.38862  0.82101  1.0000
  H   H340      1.0  0.12104  0.35304  0.76996  1.0000
  H   H341      1.0  0.06848  0.43492  0.96768  1.0000
  N   N16       1.0  0.21638  0.03291  0.75535  1.0000
  H   H342      1.0  0.43829  0.42857  0.84121  1.0000
  C   C186      1.0  0.17804  0.01360  0.75435  1.0000
  H   H343      1.0  0.11441  0.35735  0.80063  1.0000
  C   C187      1.0  0.21656  0.44954  0.91954  1.0000
  H   H344      1.0  0.10101  0.02122  0.76501  1.0000
  H   H345      1.0  0.48304  0.46154  0.95519  1.0000
  H   H346      1.0  0.18243  0.01321  0.78763  1.0000
  C   C188      1.0  0.16339  0.03120  0.74201  1.0000
  C   C189      1.0  0.41012  0.47657  0.85037  1.0000
  S   S53       1.0  0.06222  0.14752  0.75862  1.0000
  H   H347      1.0  0.41077  0.05426  0.97753  1.0000
  H   H348      1.0  0.24906  0.40243  0.76958  1.0000
  C   C190      1.0  0.20667  0.08894  0.76696  1.0000
  C   C191      1.0  0.12747  0.42207  0.78498  1.0000
  H   H349      1.0  0.46521  0.41826  0.85319  1.0000
  H   H350      1.0  0.49429  0.48986  0.85590  1.0000
  C   C192      1.0  0.24181  0.48013  0.95916  1.0000
  H   H351      1.0  0.21673  0.00477  0.79480  1.0000
  H   H352      1.0  0.18865  0.37194  0.76932  1.0000
  H   H353      1.0  0.19797  0.35494  0.78686  1.0000
  H   H354      1.0  0.15369  0.44161  0.96303  1.0000
  C   C193      1.0  0.11729  0.01793  0.80283  1.0000
  Fe  Fe26      1.0  0.04303  0.15906  0.78225  1.0000
  C   C194      1.0  0.32341  0.47863  0.87824  1.0000
  C   C195      1.0  0.21538  0.47906  0.88663  1.0000
  H   H355      1.0  0.48482  0.45038  0.83594  1.0000
  C   C196      1.0  0.02233  0.48022  0.97698  1.0000
  H   H356      1.0  0.05545  0.03917  0.82142  1.0000
  H   H357      1.0  0.16455  0.05885  0.74488  1.0000
  H   H358      1.0  0.22397  0.05111  0.78860  1.0000
  H   H359      1.0  0.36175  0.43649  0.86296  1.0000
  H   H360      1.0  0.11426  0.41211  0.79703  1.0000
  C   C197      1.0  0.17965  0.46296  0.96207  1.0000
  C   C198      1.0  0.46341  0.44120  0.84584  1.0000
  H   H361      1.0  0.18980  0.45952  0.89276  1.0000
  N   N17       1.0  0.16839  0.38882  0.79059  1.0000
  C   C199      1.0  0.19584  0.37966  0.78117  1.0000
  C   C200      1.0  0.13624  0.35332  0.79388  1.0000
  C   C201      1.0  0.18136  0.40157  0.80592  1.0000
  C   C202      1.0  0.16296  0.41916  0.78133  1.0000
  H   H362      1.0  0.01368  0.45422  0.97106  1.0000
  C   C203      1.0  0.12246  0.33366  0.77932  1.0000
  C   C204      1.0  0.15718  0.41171  0.81771  1.0000
  C   C205      1.0  0.38943  0.44979  0.86488  1.0000
  H   H363      1.0  0.48838  0.04833  0.95921  1.0000
  H   H364      1.0  0.06991  0.03453  0.74504  1.0000
  H   H365      1.0  0.19051  0.47752  0.86556  1.0000
  C   C206      1.0  0.22517  0.01572  0.76945  1.0000
  C   C207      1.0  0.21091  0.02197  0.78584  1.0000
  C   C208      1.0  0.00065  0.00845  0.81766  1.0000
  H   H366      1.0  0.40546  0.45916  0.84035  1.0000
  H   H367      1.0  0.24538  0.41386  0.78923  1.0000
  H   H368      1.0  0.00925  0.02737  0.76889  1.0000
  C   C209      1.0  0.05398  0.48579  0.98558  1.0000
  H   H369      1.0  0.09019  0.41859  0.98151  1.0000
  C   C210      1.0  0.40624  0.03372  0.98766  1.0000
  C   C211      1.0  0.48572  0.99369  0.96588  1.0000
  C   C212      1.0  0.39735  0.99500  0.98154  1.0000
  H   H370      1.0  0.22938  0.99422  0.74139  1.0000
  H   H371      1.0  0.02983  0.22143  0.74202  1.0000
  H   H372      1.0  0.27967  0.64321  0.01649  1.0000
  H   H373      1.0  0.20388  0.91824  0.15283  1.0000
  H   H374      1.0  0.17012  0.95877  0.20705  1.0000
  C   C213      1.0  0.03623  0.84842  0.22530  1.0000
  C   C214      1.0  0.10886  0.90215  0.17193  1.0000
  C   C215      1.0  0.28129  0.59357  0.99149  1.0000
  H   H375      1.0  0.09730  0.52399  0.00765  1.0000
  H   H376      1.0  0.14837  0.91811  0.22003  1.0000
  H   H377      1.0  0.18091  0.91848  0.20505  1.0000
  H   H378      1.0  0.31749  0.64051  0.02272  1.0000
  C   C216      1.0  0.13069  0.91205  0.19706  1.0000
  H   H379      1.0  0.99888  0.82188  0.19210  1.0000
  H   H380      1.0  0.00817  0.97536  0.20994  1.0000
  C   C217      1.0  0.07909  0.97409  0.16068  1.0000
  H   H381      1.0  0.04746  0.87294  0.20149  1.0000
  H   H382      1.0  0.27468  0.56385  0.02222  1.0000
  C   C218      1.0  0.16864  0.90522  0.17486  1.0000
  H   H383      1.0  0.11237  0.91128  0.15932  1.0000
  H   H384      1.0  0.07089  0.94787  0.13900  1.0000
  H   H385      1.0  0.24405  0.58490  0.02681  1.0000
  H   H386      1.0  0.16155  0.87745  0.18124  1.0000
  C   C219      1.0  0.03876  0.93984  0.18335  1.0000
  C   C220      1.0  0.02177  0.91139  0.17413  1.0000
  C   C221      1.0  0.03289  0.91438  0.15808  1.0000
  C   C222      1.0  0.06187  0.94565  0.15139  1.0000
  N   N18       1.0  0.30799  0.62294  0.99946  1.0000
  H   H387      1.0  0.03025  0.93697  0.19575  1.0000
  H   H388      1.0  0.27404  0.56533  0.99715  1.0000
  H   H389      1.0  0.16038  0.90883  0.14946  1.0000
  H   H390      1.0  0.11885  0.88170  0.20048  1.0000
  H   H391      1.0  0.06952  0.84989  0.16692  1.0000
  C   C223      1.0  0.17622  0.90098  0.15718  1.0000
  H   H392      1.0  0.36132  0.63749  0.00381  1.0000
  S   S54       1.0  0.01089  0.87986  0.14615  1.0000
  H   H393      1.0  0.34534  0.89840  0.01231  1.0000
  N   N19       1.0  0.14145  0.92016  0.17952  1.0000
  C   C224      1.0  0.01898  0.55531  0.00120  1.0000
  C   C225      1.0  0.27176  0.58902  0.02611  1.0000
  C   C226      1.0  0.33783  0.57905  0.00703  1.0000
  H   H394      1.0  0.36313  0.57645  0.00449  1.0000
  C   C227      1.0  0.42625  0.94267  0.01203  1.0000
  C   C228      1.0  0.16750  0.97743  0.15872  1.0000
  H   H395      1.0  0.29402  0.66762  0.99122  1.0000
  C   C229      1.0  0.06712  0.97142  0.17665  1.0000
  H   H396      1.0  0.99571  0.52236  0.02319  1.0000
  H   H397      1.0  0.17215  0.87176  0.15543  1.0000
  H   H398      1.0  0.27784  0.59113  0.03840  1.0000
  C   C230      1.0  0.03055  0.84971  0.20958  1.0000
  H   H399      1.0  0.19382  0.92315  0.17870  1.0000
  C   C231      1.0  0.15965  0.92811  0.20761  1.0000
  H   H400      1.0  0.08840  0.91095  0.17713  1.0000
  H   H401      1.0  0.44431  0.99135  0.99640  1.0000
  H   H402      1.0  0.08231  0.49293  0.02529  1.0000
  H   H403      1.0  0.11083  0.84774  0.16755  1.0000
  H   H404      1.0  0.02098  0.93094  0.22373  1.0000
  C   C232      1.0  0.34154  0.92322  0.01609  1.0000
  C   C233      1.0  0.99776  0.96065  0.11901  1.0000
  H   H405      1.0  0.34490  0.69644  0.00750  1.0000
  S   S55       1.0  0.06053  0.57517  0.00725  1.0000
  C   C234      1.0  0.29519  0.62578  0.01623  1.0000
  C   C235      1.0  0.47351  0.50688  0.99361  1.0000
  C   C236      1.0  0.15556  0.96177  0.17602  1.0000
  H   H406      1.0  0.08382  0.84685  0.18543  1.0000
  H   H407      1.0  0.11019  0.92239  0.20088  1.0000
  H   H408      1.0  0.00047  0.88701  0.17954  1.0000
  C   C237      1.0  0.09287  0.85930  0.17318  1.0000
  C   C238      1.0  0.00270  0.82108  0.20432  1.0000
  H   H409      1.0  0.33311  0.57919  0.01995  1.0000
  H   H410      1.0  0.35859  0.98110  0.01020  1.0000
  H   H411      1.0  0.38409  0.90545  0.99316  1.0000
  H   H412      1.0  0.33534  0.95470  0.99621  1.0000
  C   C239      1.0  0.34064  0.61558  0.99854  1.0000
  H   H413      1.0  0.09382  0.97212  0.23792  1.0000
  H   H414      1.0  0.02432  0.96106  0.11686  1.0000
  C   C240      1.0  0.35607  0.95661  0.00359  1.0000
  H   H415      1.0  0.17873  0.97567  0.18205  1.0000
  H   H416      1.0  0.31818  0.55411  0.00294  1.0000
  H   H417      1.0  0.19103  0.97338  0.15393  1.0000
  H   H418      1.0  0.47118  0.51981  0.00431  1.0000
  H   H419      1.0  0.35269  0.93094  0.02723  1.0000
  S   S56       1.0  0.07114  0.88430  0.23180  1.0000
  C   C241      1.0  0.09774  0.49869  0.01353  1.0000
  H   H420      1.0  0.43673  0.92803  0.00347  1.0000
  C   C242      1.0  0.00074  0.99012  0.21940  1.0000
  C   C243      1.0  0.34749  0.69314  0.99475  1.0000
  C   C244      1.0  0.41935  0.97415  0.00369  1.0000
  C   C245      1.0  0.01367  0.81875  0.23583  1.0000
  H   H421      1.0  0.31292  0.91407  0.01849  1.0000
  H   H422      1.0  0.13599  0.97253  0.18069  1.0000
  H   H423      1.0  0.23731  0.60715  0.00147  1.0000
  H   H424      1.0  0.14693  0.96677  0.15103  1.0000
  H   H425      1.0  0.99716  0.95368  0.14351  1.0000
  S   S57       1.0  0.15372  0.58857  0.99136  1.0000
  H   H426      1.0  0.44660  0.95505  0.01979  1.0000
  H   H427      1.0  0.12505  0.50507  0.01542  1.0000
  N   N20       1.0  0.38994  0.96316  0.99375  1.0000
  H   H428      1.0  0.40317  0.92241  0.01947  1.0000
  Fe  Fe27      1.0  0.23077  0.51511  0.33059  1.0000
  S   S58       1.0  0.26086  0.52031  0.35097  1.0000
  S   S59       1.0  0.21777  0.56095  0.32032  1.0000
  H   H429      1.0  0.03298  0.97145  0.31121  1.0000
  H   H430      1.0  0.39530  0.75440  0.30266  1.0000
  Fe  Fe28      1.0  0.00897  0.84677  0.28680  1.0000
  Fe  Fe29      1.0  0.22912  0.73660  0.35585  1.0000
  S   S60       1.0  0.25289  0.75495  0.33086  1.0000
  S   S61       1.0  0.21361  0.67922  0.36749  1.0000
  Fe  Fe30      1.0  0.23725  0.81387  0.36327  1.0000
  S   S62       1.0  0.26150  0.83905  0.33887  1.0000
  S   S63       1.0  0.22844  0.84909  0.38172  1.0000
  Fe  Fe31      1.0  0.22026  0.78863  0.33129  1.0000
  S   S64       1.0  0.19057  0.78834  0.31089  1.0000
  Fe  Fe32      1.0  0.29174  0.80338  0.34074  1.0000
  S   S65       1.0  0.34817  0.82457  0.33094  1.0000
  S   S66       1.0  0.19319  0.76616  0.35565  1.0000
  S   S67       1.0  0.27080  0.78231  0.36579  1.0000
  Fe  Fe33      1.0  0.03405  0.92987  0.27910  1.0000
  C   C246      1.0  0.34816  0.67584  0.48864  1.0000
  S   S68       1.0  0.12293  0.90615  0.30669  1.0000
  S   S69       1.0  0.08757  0.93634  0.26965  1.0000
  H   H431      1.0  0.30264  0.74163  0.47533  1.0000
  S   S70       1.0  0.47019  0.69687  0.34694  1.0000
  S   S71       1.0  0.43437  0.67407  0.30580  1.0000
  H   H432      1.0  0.46742  0.79264  0.42042  1.0000
  S   S72       1.0  0.44858  0.77317  0.36569  1.0000
  Fe  Fe34      1.0  0.38613  0.56483  0.43172  1.0000
  H   H433      1.0  0.26544  0.75299  0.45872  1.0000
  H   H434      1.0  0.28402  0.69993  0.35633  1.0000
  Fe  Fe35      1.0  0.36165  0.87986  0.43807  1.0000
  S   S73       1.0  0.35535  0.91876  0.41999  1.0000
  S   S74       1.0  0.41196  0.87292  0.43846  1.0000
  S   S75       1.0  0.32763  0.81929  0.44117  1.0000
  C   C247      1.0  0.17947  0.70932  0.47275  1.0000
  C   C248      1.0  0.39273  0.70287  0.43587  1.0000
  H   H435      1.0  0.28484  0.68140  0.33003  1.0000
  H   H436      1.0  0.34377  0.75344  0.32008  1.0000
  H   H437      1.0  0.00923  0.72003  0.30144  1.0000
  H   H438      1.0  0.21189  0.70034  0.45371  1.0000
  H   H439      1.0  0.26296  0.53033  0.42701  1.0000
  C   C249      1.0  0.33887  0.66491  0.31468  1.0000
  C   C250      1.0  0.21102  0.71689  0.46334  1.0000
  S   S76       1.0  0.19442  0.62078  0.44993  1.0000
  C   C251      1.0  0.26401  0.86812  0.39219  1.0000
  C   C252      1.0  0.28117  0.84646  0.39733  1.0000
  C   C253      1.0  0.30800  0.86120  0.40662  1.0000
  C   C254      1.0  0.31884  0.89820  0.41019  1.0000
  C   C255      1.0  0.30216  0.92003  0.40475  1.0000
  C   C256      1.0  0.27425  0.90476  0.39609  1.0000
  H   H440      1.0  0.27310  0.81804  0.39454  1.0000
  H   H441      1.0  0.32080  0.84415  0.41062  1.0000
  H   H442      1.0  0.31060  0.94872  0.40736  1.0000
  H   H443      1.0  0.26096  0.92155  0.39219  1.0000
  C   C257      1.0  0.42152  0.79021  0.35681  1.0000
  C   C258      1.0  0.43250  0.80950  0.34194  1.0000
  C   C259      1.0  0.40979  0.82018  0.33421  1.0000
  C   C260      1.0  0.37611  0.81206  0.34139  1.0000
  C   C261      1.0  0.36561  0.79434  0.35661  1.0000
  C   C262      1.0  0.38832  0.78337  0.36433  1.0000
  C   C263      1.0  0.18330  0.50402  0.38241  1.0000
  H   H444      1.0  0.41832  0.83467  0.32259  1.0000
  H   H445      1.0  0.34001  0.78881  0.36240  1.0000
  H   H446      1.0  0.37998  0.76903  0.37597  1.0000
  C   C264      1.0  0.17508  0.82373  0.30905  1.0000
  C   C265      1.0  0.15697  0.82516  0.29641  1.0000
  C   C266      1.0  0.14173  0.85109  0.29534  1.0000
  C   C267      1.0  0.14456  0.87578  0.30690  1.0000
  C   C268      1.0  0.16359  0.87512  0.31929  1.0000
  C   C269      1.0  0.17874  0.84907  0.32040  1.0000
  H   H447      1.0  0.15434  0.80581  0.28753  1.0000
  H   H448      1.0  0.12775  0.85185  0.28559  1.0000
  H   H449      1.0  0.16603  0.89428  0.32824  1.0000
  H   H450      1.0  0.19269  0.84819  0.33018  1.0000
  C   C270      1.0  0.37210  0.55656  0.32825  1.0000
  C   C271      1.0  0.36021  0.57077  0.31600  1.0000
  C   C272      1.0  0.38030  0.60630  0.30863  1.0000
  C   C273      1.0  0.41149  0.62826  0.31397  1.0000
  C   C274      1.0  0.42346  0.61397  0.32618  1.0000
  C   C275      1.0  0.40394  0.57797  0.33320  1.0000
  H   H451      1.0  0.22454  0.69225  0.41497  1.0000
  H   H452      1.0  0.37140  0.61684  0.29891  1.0000
  H   H453      1.0  0.45392  0.70137  0.41575  1.0000
  H   H454      1.0  0.41339  0.56686  0.34256  1.0000
  C   C276      1.0  0.21512  0.59300  0.33359  1.0000
  C   C277      1.0  0.21280  0.62583  0.32798  1.0000
  C   C278      1.0  0.21171  0.65223  0.33834  1.0000
  C   C279      1.0  0.21272  0.64578  0.35436  1.0000
  C   C280      1.0  0.21407  0.61258  0.36001  1.0000
  C   C281      1.0  0.21555  0.58633  0.34965  1.0000
  H   H455      1.0  0.21202  0.63098  0.31560  1.0000
  H   H456      1.0  0.20962  0.67730  0.33393  1.0000
  H   H457      1.0  0.21407  0.60728  0.37245  1.0000
  H   H458      1.0  0.21653  0.56079  0.35415  1.0000
  C   C282      1.0  0.15364  0.72885  0.43037  1.0000
  C   C283      1.0  0.42939  0.72678  0.46136  1.0000
  H   H459      1.0  0.33156  0.49502  0.46754  1.0000
  S   S77       1.0  0.27804  0.80127  0.48449  1.0000
  Fe  Fe36      1.0  0.37722  0.81247  0.44358  1.0000
  H   H460      1.0  0.36663  0.55166  0.38845  1.0000
  H   H461      1.0  0.31287  0.73882  0.34372  1.0000
  C   C284      1.0  0.44627  0.92533  0.35106  1.0000
  H   H462      1.0  0.41443  0.86815  0.35910  1.0000
  H   H463      1.0  0.17789  0.80533  0.42524  1.0000
  H   H464      1.0  0.46797  0.96013  0.45555  1.0000
  C   C285      1.0  0.06069  0.75640  0.30705  1.0000
  N   N21       1.0  0.29865  0.64417  0.39815  1.0000
  C   C286      1.0  0.33362  0.65955  0.38828  1.0000
  C   C287      1.0  0.27677  0.66355  0.39249  1.0000
  C   C288      1.0  0.27991  0.60309  0.39684  1.0000
  C   C289      1.0  0.30402  0.65036  0.41503  1.0000
  C   C290      1.0  0.35863  0.64102  0.39190  1.0000
  C   C291      1.0  0.29037  0.70574  0.39404  1.0000
  C   C292      1.0  0.27922  0.59062  0.38004  1.0000
  C   C293      1.0  0.27075  0.64040  0.42661  1.0000
  H   H465      1.0  0.33066  0.65825  0.37559  1.0000
  H   H466      1.0  0.34776  0.68951  0.38978  1.0000
  H   H467      1.0  0.24963  0.65062  0.39855  1.0000
  H   H468      1.0  0.27397  0.66007  0.37990  1.0000
  H   H469      1.0  0.29095  0.58668  0.40369  1.0000
  H   H470      1.0  0.25227  0.59319  0.40211  1.0000
  H   H471      1.0  0.31769  0.63357  0.41946  1.0000
  H   H472      1.0  0.32132  0.67967  0.41627  1.0000
  H   H473      1.0  0.34719  0.61054  0.39146  1.0000
  H   H474      1.0  0.38202  0.65225  0.38298  1.0000
  H   H475      1.0  0.36774  0.64749  0.40351  1.0000
  H   H476      1.0  0.27142  0.71618  0.38993  1.0000
  H   H477      1.0  0.29300  0.71270  0.40633  1.0000
  H   H478      1.0  0.31528  0.72121  0.38648  1.0000
  H   H479      1.0  0.30483  0.59184  0.37488  1.0000
  H   H480      1.0  0.27070  0.60700  0.37200  1.0000
  H   H481      1.0  0.26043  0.56132  0.38049  1.0000
  H   H482      1.0  0.25793  0.65972  0.42467  1.0000
  H   H483      1.0  0.27767  0.64271  0.43874  1.0000
  H   H484      1.0  0.25204  0.61148  0.42613  1.0000
  H   H485      1.0  0.31127  0.60953  0.46931  1.0000
  H   H486      1.0  0.46677  0.78850  0.28493  1.0000
  H   H487      1.0  0.18298  0.51943  0.27329  1.0000
  H   H488      1.0  0.36546  0.70516  0.48925  1.0000
  C   C294      1.0  0.38624  0.53969  0.38644  1.0000
  H   H489      1.0  0.15902  0.56418  0.27553  1.0000
  H   H490      1.0  0.08118  0.78975  0.34251  1.0000
  C   C295      1.0  0.47645  0.70831  0.40648  1.0000
  C   C296      1.0  0.16933  0.51807  0.28523  1.0000
  H   H491      1.0  0.26920  0.52653  0.48720  1.0000
  H   H492      1.0  0.44837  0.91318  0.33973  1.0000
  C   C297      1.0  0.27348  0.54819  0.43609  1.0000
  H   H493      1.0  0.02574  0.74679  0.34541  1.0000
  H   H494      1.0  0.27348  0.50477  0.38532  1.0000
  H   H495      1.0  0.30787  0.67164  0.46205  1.0000
  C   C298      1.0  0.43500  0.92856  0.38807  1.0000
  H   H496      1.0  0.40883  0.56069  0.37880  1.0000
  H   H497      1.0  0.14501  0.77277  0.38713  1.0000
  H   H498      1.0  0.39492  0.49362  0.37790  1.0000
  H   H499      1.0  0.46003  0.53378  0.48086  1.0000
  C   C299      1.0  0.39356  0.96963  0.48885  1.0000
  H   H500      1.0  0.22110  0.73961  0.43003  1.0000
  S   S78       1.0  0.44498  0.66526  0.46415  1.0000
  S   S79       1.0  0.26427  0.49393  0.31536  1.0000
  S   S80       1.0  0.43998  0.90277  0.48197  1.0000
  C   C300      1.0  0.30146  0.51092  0.38533  1.0000
  H   H501      1.0  0.21743  0.81286  0.41404  1.0000
  H   H502      1.0  0.39359  0.66925  0.33833  1.0000
  H   H503      1.0  0.12106  0.75307  0.40580  1.0000
  Fe  Fe37      1.0  0.14667  0.62142  0.46345  1.0000
  H   H504      1.0  0.02477  0.80140  0.31342  1.0000
  H   H505      1.0  0.03517  0.84841  0.33052  1.0000
  C   C301      1.0  0.01818  0.50187  0.46263  1.0000
  Fe  Fe38      1.0  0.08256  0.89661  0.29024  1.0000
  H   H506      1.0  0.21937  0.82743  0.44267  1.0000
  H   H507      1.0  0.36319  0.67229  0.30651  1.0000
  S   S81       1.0  0.38552  0.56668  0.45768  1.0000
  H   H508      1.0  0.38752  0.69647  0.35381  1.0000
  Fe  Fe39      1.0  0.32568  0.82637  0.46681  1.0000
  C   C302      1.0  0.24132  0.74663  0.46619  1.0000
  H   H509      1.0  0.37893  0.69363  0.42590  1.0000
  H   H510      1.0  0.30994  0.62567  0.29902  1.0000
  H   H511      1.0  0.02400  0.71359  0.33169  1.0000
  S   S82       1.0  0.14076  0.67396  0.46897  1.0000
  S   S83       1.0  0.37254  0.81456  0.46964  1.0000
  S   S84       1.0  0.35511  0.88805  0.46367  1.0000
  Fe  Fe40      1.0  0.40274  0.87617  0.46455  1.0000
  C   C303      1.0  0.17840  0.73102  0.48509  1.0000
  S   S85       1.0  0.23728  0.57754  0.47663  1.0000
  H   H512      1.0  0.34044  0.49645  0.40802  1.0000
  C   C304      1.0  0.30937  0.56659  0.43576  1.0000
  H   H513      1.0  0.33986  0.73226  0.47549  1.0000
  C   C305      1.0  0.36890  0.74301  0.29908  1.0000
  N   N22       1.0  0.34007  0.69711  0.32385  1.0000
  C   C306      1.0  0.17411  0.75503  0.40255  1.0000
  C   C307      1.0  0.47046  0.94926  0.48003  1.0000
  C   C308      1.0  0.12973  0.74535  0.43900  1.0000
  C   C309      1.0  0.17728  0.53889  0.40442  1.0000
  C   C310      1.0  0.40614  0.68021  0.44339  1.0000
  H   H514      1.0  0.40223  0.65360  0.43929  1.0000
  N   N23       1.0  0.18395  0.75479  0.41894  1.0000
  H   H515      1.0  0.18161  0.49932  0.37015  1.0000
  H   H516      1.0  0.10719  0.80496  0.32414  1.0000
  S   S86       1.0  0.11002  0.58004  0.44961  1.0000
  H   H517      1.0  0.36801  0.88180  0.35362  1.0000
  C   C311      1.0  0.14476  0.53808  0.28324  1.0000
  H   H518      1.0  0.46049  0.80226  0.40090  1.0000
  S   S87       1.0  0.14344  0.57978  0.48283  1.0000
  C   C312      1.0  0.26467  0.57376  0.46066  1.0000
  S   S88       1.0  0.01346  0.97393  0.27617  1.0000
  Fe  Fe41      1.0  0.18830  0.57541  0.46801  1.0000
  C   C313      1.0  0.37618  0.68197  0.34362  1.0000
  Fe  Fe42      1.0  0.15791  0.57520  0.43782  1.0000
  H   H519      1.0  0.46466  0.98722  0.38995  1.0000
  H   H520      1.0  0.35171  0.66787  0.47655  1.0000
  C   C314      1.0  0.08551  0.78077  0.33065  1.0000
  H   H521      1.0  0.11964  0.75929  0.34101  1.0000
  H   H522      1.0  0.45283  0.67566  0.38776  1.0000
  H   H523      1.0  0.45269  0.88741  0.36750  1.0000
  C   C315      1.0  0.04528  0.82720  0.33369  1.0000
  Fe  Fe43      1.0  0.06010  0.88502  0.25781  1.0000
  S   S89       1.0  0.41050  0.52334  0.43047  1.0000
  C   C316      1.0  0.41549  0.74942  0.45395  1.0000
  H   H524      1.0  0.07858  0.72363  0.33861  1.0000
  C   C317      1.0  0.30358  0.69768  0.46133  1.0000
  H   H525      1.0  0.44796  0.63039  0.33008  1.0000
  C   C318      1.0  0.30921  0.71096  0.34873  1.0000
  H   H526      1.0  0.43773  0.86759  0.40209  1.0000
  S   S90       1.0  0.48067  0.76681  0.32141  1.0000
  C   C319      1.0  0.03178  0.74538  0.29637  1.0000
  C   C320      1.0  0.37323  0.50322  0.37836  1.0000
  C   C321      1.0  0.26107  0.49647  0.49065  1.0000
  H   H527      1.0  0.32936  0.71309  0.35638  1.0000
  H   H528      1.0  0.11967  0.76030  0.43102  1.0000
  C   C322      1.0  0.42510  0.69228  0.45592  1.0000
  S   S91       1.0  0.15514  0.52947  0.45494  1.0000
  C   C323      1.0  0.30048  0.59264  0.46007  1.0000
  H   H529      1.0  0.46010  0.92531  0.38785  1.0000
  H   H530      1.0  0.30803  0.67007  0.29608  1.0000
  H   H531      1.0  0.39602  0.71782  0.32248  1.0000
  H   H532      1.0  0.35130  0.65910  0.34823  1.0000
  H   H533      1.0  0.37714  0.73648  0.33697  1.0000
  C   C324      1.0  0.25659  0.67622  0.49105  1.0000
  S   S92       1.0  0.38240  0.76608  0.43058  1.0000
  H   H534      1.0  0.33970  0.85815  0.37152  1.0000
  H   H535      1.0  0.33766  0.64129  0.32267  1.0000
  H   H536      1.0  0.28285  0.63808  0.31287  1.0000
  C   C325      1.0  0.37291  0.71017  0.33147  1.0000
  C   C326      1.0  0.30802  0.64927  0.30517  1.0000
  H   H537      1.0  0.16322  0.72645  0.39873  1.0000
  H   H538      1.0  0.36598  0.76621  0.29241  1.0000
  H   H539      1.0  0.37605  0.84185  0.38279  1.0000
  C   C327      1.0  0.02335  0.74146  0.33286  1.0000
  H   H540      1.0  0.24266  0.80016  0.43629  1.0000
  C   C328      1.0  0.47965  0.97146  0.46581  1.0000
  Fe  Fe44      1.0  0.11032  0.53786  0.46791  1.0000
  H   H541      1.0  0.40344  0.82285  0.40314  1.0000
  C   C329      1.0  0.14715  0.77134  0.39989  1.0000
  C   C330      1.0  0.17486  0.53230  0.38864  1.0000
  H   H542      1.0  0.46508  0.77416  0.26553  1.0000
  C   C331      1.0  0.34037  0.72897  0.31334  1.0000
  H   H543      1.0  0.30183  0.65655  0.34163  1.0000
  C   C332      1.0  0.20386  0.70176  0.41260  1.0000
  S   S93       1.0  0.06010  0.84554  0.27744  1.0000
  S   S94       1.0  0.16789  0.57559  0.41164  1.0000
  H   H544      1.0  0.16639  0.54909  0.38118  1.0000
  H   H545      1.0  0.42390  0.92415  0.40072  1.0000
  Fe  Fe45      1.0  0.46077  0.57331  0.42687  1.0000
  C   C333      1.0  0.30813  0.68466  0.33583  1.0000
  H   H546      1.0  0.37810  0.86755  0.39948  1.0000
  H   H547      1.0  0.33592  0.55408  0.31197  1.0000
  Fe  Fe46      1.0  0.43675  0.61402  0.45151  1.0000
  C   C334      1.0  0.41896  0.84815  0.39516  1.0000
  H   H548      1.0  0.03903  0.52809  0.45844  1.0000
  H   H549      1.0  0.31495  0.72206  0.30885  1.0000
  S   S95       1.0  0.43609  0.61428  0.42543  1.0000
  H   H550      1.0  0.43287  0.83930  0.38555  1.0000
  C   C335      1.0  0.39405  0.86417  0.38900  1.0000
  H   H551      1.0  0.20101  0.77852  0.44834  1.0000
  C   C336      1.0  0.35550  0.88548  0.36503  1.0000
  H   H552      1.0  0.02342  0.76806  0.29352  1.0000
  H   H553      1.0  0.19762  0.77074  0.39398  1.0000
  C   C337      1.0  0.09916  0.75002  0.33311  1.0000
  H   H554      1.0  0.33687  0.89792  0.36238  1.0000
  C   C338      1.0  0.39760  0.73761  0.44104  1.0000
  H   H555      1.0  0.09031  0.55368  0.41810  1.0000
  S   S96       1.0  0.34767  0.51206  0.33745  1.0000
  H   H556      1.0  0.43670  0.70980  0.39210  1.0000
  H   H557      1.0  0.36666  0.72137  0.29089  1.0000
  H   H558      1.0  0.47259  0.94472  0.35305  1.0000
  S   S97       1.0  0.33777  0.55904  0.42136  1.0000
  H   H559      1.0  0.04934  0.52036  0.41459  1.0000
  C   C339      1.0  0.47290  0.76949  0.27708  1.0000
  H   H560      1.0  0.47866  0.72248  0.38065  1.0000
  H   H561      1.0  0.41963  0.77644  0.45791  1.0000
  H   H562      1.0  0.10703  0.72233  0.44568  1.0000
  H   H563      1.0  0.45675  0.74086  0.28227  1.0000
  H   H564      1.0  0.04185  0.73850  0.28500  1.0000
  N   N24       1.0  0.41080  0.90022  0.37868  1.0000
  H   H565      1.0  0.01790  0.81754  0.24800  1.0000
  Fe  Fe47      1.0  0.48119  0.75747  0.34728  1.0000
  H   H566      1.0  0.02747  0.80867  0.34370  1.0000
  H   H567      1.0  0.06600  0.73107  0.30895  1.0000
  H   H568      1.0  0.11192  0.74529  0.32194  1.0000
  H   H569      1.0  0.15081  0.49784  0.31578  1.0000
  C   C340      1.0  0.46235  0.50739  0.48178  1.0000
  H   H570      1.0  0.17918  0.68085  0.41882  1.0000
  C   C341      1.0  0.43051  0.89363  0.36430  1.0000
  H   H571      1.0  0.08904  0.52501  0.40256  1.0000
  H   H572      1.0  0.32104  0.71572  0.45109  1.0000
  H   H573      1.0  0.45869  0.81665  0.33645  1.0000
  H   H574      1.0  0.19003  0.52181  0.42618  1.0000
  C   C342      1.0  0.18745  0.51649  0.41409  1.0000
  H   H575      1.0  0.35010  0.60567  0.44679  1.0000
  C   C343      1.0  0.24035  0.76725  0.47904  1.0000
  H   H576      1.0  0.44206  0.75547  0.40943  1.0000
  H   H577      1.0  0.23622  0.76045  0.41055  1.0000
  Fe  Fe48      1.0  0.47382  0.70759  0.32087  1.0000
  H   H578      1.0  0.39563  0.53589  0.39770  1.0000
  H   H579      1.0  0.39227  0.93941  0.36813  1.0000
  C   C344      1.0  0.19822  0.79404  0.42362  1.0000
  C   C345      1.0  0.30441  0.49318  0.46942  1.0000
  Fe  Fe49      1.0  0.41448  0.52995  0.45603  1.0000
  H   H580      1.0  0.48592  0.68571  0.40786  1.0000
  N   N25       1.0  0.05344  0.77075  0.32246  1.0000
  H   H581      1.0  0.22356  0.53695  0.44898  1.0000
  H   H582      1.0  0.42998  0.94098  0.34924  1.0000
  H   H583      1.0  0.06990  0.82578  0.31075  1.0000
  C   C346      1.0  0.21618  0.79989  0.43863  1.0000
  H   H584      1.0  0.31677  0.53601  0.37723  1.0000
  H   H585      1.0  0.08451  0.77736  0.30003  1.0000
  H   H586      1.0  0.14286  0.76401  0.44780  1.0000
  H   H587      1.0  0.45303  0.97777  0.37071  1.0000
  C   C347      1.0  0.20886  0.75930  0.48845  1.0000
  H   H588      1.0  0.13683  0.70484  0.42447  1.0000
  H   H589      1.0  0.12177  0.52123  0.27768  1.0000
  C   C348      1.0  0.21274  0.74089  0.41826  1.0000
  H   H590      1.0  0.39850  0.95356  0.47924  1.0000
  H   H591      1.0  0.15486  0.80014  0.40324  1.0000
  C   C349      1.0  0.04810  0.80608  0.31924  1.0000
  H   H592      1.0  0.16282  0.71623  0.43980  1.0000
  H   H593      1.0  0.03348  0.96396  0.33208  1.0000
  H   H594      1.0  0.37178  0.51098  0.36598  1.0000
  C   C350      1.0  0.46095  0.70481  0.39080  1.0000
  H   H595      1.0  0.30600  0.51659  0.39751  1.0000
  H   H596      1.0  0.33296  0.56056  0.48282  1.0000
  S   S98       1.0  0.00682  0.88110  0.26601  1.0000
  S   S99       1.0  0.03104  0.89515  0.30095  1.0000
  H   H597      1.0  0.07637  0.50420  0.43838  1.0000
  C   C351      1.0  0.31130  0.71835  0.47627  1.0000
  H   H598      1.0  0.05746  0.98341  0.24321  1.0000
  H   H599      1.0  0.44409  0.73633  0.47106  1.0000
  H   H600      1.0  0.20298  0.70198  0.39974  1.0000
  C   C352      1.0  0.32264  0.58984  0.44743  1.0000
  C   C353      1.0  0.25113  0.55196  0.44853  1.0000
  H   H601      1.0  0.25081  0.65721  0.48151  1.0000
  S   S100      1.0  0.46650  0.57759  0.45246  1.0000
  H   H602      1.0  0.13652  0.54645  0.29462  1.0000
  H   H603      1.0  0.48944  0.74479  0.24969  1.0000
  C   C354      1.0  0.38215  0.91174  0.37473  1.0000
  C   C355      1.0  0.44373  0.96981  0.38334  1.0000
  H   H604      1.0  0.36768  0.91521  0.38565  1.0000
  Fe  Fe50      1.0  0.29059  0.49381  0.33658  1.0000
  H   H605      1.0  0.30575  0.52091  0.46525  1.0000
  H   H606      1.0  0.27670  0.69162  0.45886  1.0000
  H   H607      1.0  0.42100  0.97684  0.38667  1.0000
  C   C356      1.0  0.07698  0.52512  0.41464  1.0000
  H   H608      1.0  0.07126  0.84249  0.33736  1.0000
  H   H609      1.0  0.47290  0.61434  0.39459  1.0000
  H   H610      1.0  0.18972  0.53564  0.29212  1.0000
  H   H611      1.0  0.47842  0.74589  0.43198  1.0000
  H   H612      1.0  0.24573  0.69714  0.48835  1.0000
  H   H613      1.0  0.11080  0.50439  0.42463  1.0000
  C   C357      1.0  0.08248  0.49743  0.42626  1.0000
  H   H614      1.0  0.47960  0.70021  0.27018  1.0000
  H   H615      1.0  0.29478  0.64067  0.48840  1.0000
  C   C358      1.0  0.46516  0.78188  0.40866  1.0000
  H   H616      1.0  0.22433  0.49710  0.27647  1.0000
  C   C359      1.0  0.03202  0.98318  0.32264  1.0000
  C   C360      1.0  0.49322  0.50575  0.48557  1.0000
  H   H617      1.0  0.49439  0.50092  0.45264  1.0000
  H   H618      1.0  0.36589  0.96544  0.48943  1.0000
  H   H619      1.0  0.00951  0.96794  0.67164  1.0000
  C   C361      1.0  0.12333  0.93869  0.72970  1.0000
  H   H620      1.0  0.10256  0.91283  0.69822  1.0000
  C   C362      1.0  0.19593  0.92119  0.67219  1.0000
  H   H621      1.0  0.08215  0.97424  0.68932  1.0000
  N   N26       1.0  0.03246  0.98848  0.72193  1.0000
  H   H622      1.0  0.11309  0.78902  0.68161  1.0000
  C   C363      1.0  0.15790  0.94095  0.63013  1.0000
  H   H623      1.0  0.35786  0.65907  0.49602  1.0000
  H   H624      1.0  0.15435  0.88103  0.70690  1.0000
  H   H625      1.0  0.20454  0.91856  0.73519  1.0000
  C   C364      1.0  0.04080  0.96584  0.73422  1.0000
  C   C365      1.0  0.23449  0.65227  0.50600  1.0000
  H   H626      1.0  0.09037  0.80516  0.66827  1.0000
  H   H627      1.0  0.30465  0.65601  0.50715  1.0000
  C   C366      1.0  0.18192  0.92434  0.73368  1.0000
  H   H628      1.0  0.15702  0.92670  0.68856  1.0000
  H   H629      1.0  0.35616  0.56173  0.49921  1.0000
  H   H630      1.0  0.15408  0.72544  0.49233  1.0000
  C   C367      1.0  0.09826  0.92476  0.65156  1.0000
  C   C368      1.0  0.12505  0.96064  0.64986  1.0000
  H   H631      1.0  0.07545  0.91847  0.65995  1.0000
  H   H632      1.0  0.13459  0.88383  0.62521  1.0000
  C   C369      1.0  0.13168  0.90520  0.63206  1.0000
  H   H633      1.0  0.35011  0.72433  0.51225  1.0000
  H   H634      1.0  0.33813  0.76197  0.51659  1.0000
  H   H635      1.0  0.09691  0.87413  0.71213  1.0000
  H   H636      1.0  0.20796  0.77520  0.49835  1.0000
  S   S101      1.0  0.00412  0.79481  0.68153  1.0000
  C   C370      1.0  0.02024  0.92234  0.62896  1.0000
  H   H637      1.0  0.06176  0.87455  0.70236  1.0000
  C   C371      1.0  0.99775  0.96661  0.71658  1.0000
  H   H638      1.0  0.12503  0.79303  0.66093  1.0000
  C   C372      1.0  0.18316  0.94907  0.72119  1.0000
  H   H639      1.0  0.23204  0.66956  0.51556  1.0000
  C   C373      1.0  0.15393  0.95652  0.71941  1.0000
  H   H640      1.0  0.03321  0.94469  0.65113  1.0000
  C   C374      1.0  0.06025  0.96408  0.69901  1.0000
  H   H641      1.0  0.06440  0.94332  0.70669  1.0000
  S   S102      1.0  0.99936  0.87328  0.67017  1.0000
  H   H642      1.0  0.03621  0.95027  0.69358  1.0000
  H   H643      1.0  0.28814  0.74011  0.50297  1.0000
  H   H644      1.0  0.08249  0.83232  0.69003  1.0000
  H   H645      1.0  0.21121  0.91560  0.68095  1.0000
  S   S103      1.0  0.07158  0.85047  0.64548  1.0000
  H   H646      1.0  0.03638  0.93771  0.73047  1.0000
  H   H647      1.0  0.19930  0.90843  0.66120  1.0000
  H   H648      1.0  0.10071  0.94406  0.72802  1.0000
  N   N27       1.0  0.29525  0.69493  0.49161  1.0000
  H   H649      1.0  0.18080  0.94702  0.62177  1.0000
  H   H650      1.0  0.99648  0.97766  0.70461  1.0000
  H   H651      1.0  0.20736  0.95169  0.66912  1.0000
  H   H652      1.0  0.20773  0.63640  0.50327  1.0000
  H   H653      1.0  0.25321  0.49272  0.50359  1.0000
  C   C375      1.0  0.01562  0.94561  0.64247  1.0000
  C   C376      1.0  0.09024  0.88233  0.70082  1.0000
  N   N28       1.0  0.13737  0.86846  0.68398  1.0000
  C   C377      1.0  0.15734  0.90920  0.67876  1.0000
  C   C378      1.0  0.09957  0.86203  0.68730  1.0000
  C   C379      1.0  0.14262  0.84657  0.67062  1.0000
  C   C380      1.0  0.15168  0.85990  0.69832  1.0000
  H   H654      1.0  0.10392  0.80944  0.70694  1.0000
  N   N29       1.0  0.02106  0.98528  0.63817  1.0000
  C   C381      1.0  0.11608  0.80622  0.67067  1.0000
  C   C382      1.0  0.13219  0.82132  0.70734  1.0000
  H   H655      1.0  0.14511  0.91814  0.66948  1.0000
  C   C383      1.0  0.10191  0.89685  0.64279  1.0000
  H   H656      1.0  0.28758  0.70385  0.51622  1.0000
  H   H657      1.0  0.09058  0.87032  0.67661  1.0000
  H   H658      1.0  0.14194  0.86058  0.65917  1.0000
  H   H659      1.0  0.16874  0.84558  0.66991  1.0000
  H   H660      1.0  0.17881  0.86257  0.69517  1.0000
  C   C384      1.0  0.33816  0.74254  0.50755  1.0000
  H   H661      1.0  0.00936  0.56988  0.50095  1.0000
  H   H662      1.0  0.35443  0.75991  0.49696  1.0000
  H   H663      1.0  0.13502  0.82378  0.72001  1.0000
  C   C385      1.0  0.30046  0.71999  0.50480  1.0000
  H   H664      1.0  0.14325  0.80144  0.70308  1.0000
  C   C386      1.0  0.15508  0.96859  0.63919  1.0000
  H   H665      1.0  0.05221  0.54633  0.50920  1.0000
  H   H666      1.0  0.00605  0.52751  0.49358  1.0000
  H   H667      1.0  0.03285  0.90409  0.63306  1.0000
  H   H668      1.0  0.02751  0.55507  0.52547  1.0000
  H   H669      1.0  0.24441  0.63165  0.51011  1.0000
  Fe  Fe51      1.0  0.01904  0.83329  0.65957  1.0000
  H   H670      1.0  0.01606  0.78591  0.73311  1.0000
  H   H671      1.0  0.03639  0.93827  0.61812  1.0000
  C   C387      1.0  0.02575  0.53680  0.51582  1.0000
  H   H672      1.0  0.08552  0.97663  0.62715  1.0000
  H   H673      1.0  0.47935  0.94697  0.50420  1.0000
  C   C388      1.0  0.30926  0.66553  0.49443  1.0000
  C   C389      1.0  0.00057  0.53968  0.50450  1.0000
  C   C390      1.0  0.31950  0.50597  0.49597  1.0000
  H   H674      1.0  0.01911  0.50825  0.52090  1.0000
  H   H675      1.0  0.02130  0.98337  0.61283  1.0000
  H   H676      1.0  0.31239  0.49604  0.50869  1.0000
  H   H677      1.0  0.12246  0.98216  0.65667  1.0000
  C   C391      1.0  0.33049  0.54848  0.49495  1.0000
  H   H678      1.0  0.99456  0.90307  0.62614  1.0000
  S   S104      1.0  0.22133  0.97073  0.70800  1.0000
  H   H679      1.0  0.31182  0.55608  0.50259  1.0000
  H   H680      1.0  0.15470  0.97612  0.71019  1.0000
  H   H681      1.0  0.40231  0.98706  0.52398  1.0000
  C   C392      1.0  0.00760  0.99044  0.62304  1.0000
  H   H682      1.0  0.06889  0.97813  0.73561  1.0000
  H   H683      1.0  0.39808  0.95725  0.49971  1.0000
  H   H684      1.0  0.43994  0.97953  0.51583  1.0000
  C   C393      1.0  0.48603  0.96416  0.49323  1.0000
  H   H685      1.0  0.34352  0.50135  0.49224  1.0000
  C   C394      1.0  0.23003  0.54485  0.92001  1.0000
  S   S105      1.0  0.09995  0.57294  0.96492  1.0000
  C   C395      1.0  0.24270  0.55340  0.80592  1.0000
  H   H686      1.0  0.10118  0.97691  0.78617  1.0000
  S   S106      1.0  0.18318  0.62251  0.95484  1.0000
  C   C396      1.0  0.24042  0.78949  0.90103  1.0000
  Fe  Fe52      1.0  0.13328  0.63005  0.95428  1.0000
  S   S107      1.0  0.12246  0.65136  0.93173  1.0000
  Fe  Fe53      1.0  0.14990  0.56730  0.96762  1.0000
  H   H687      1.0  0.00185  0.75317  0.75004  1.0000
  C   C397      1.0  0.25999  0.72107  0.97244  1.0000
  H   H688      1.0  0.38495  0.95139  0.87627  1.0000
  Fe  Fe54      1.0  0.45612  0.87514  0.91608  1.0000
  H   H689      1.0  0.39955  0.83234  0.88898  1.0000
  Fe  Fe55      1.0  0.38817  0.84435  0.93851  1.0000
  S   S108      1.0  0.41543  0.86117  0.95986  1.0000
  S   S109      1.0  0.33085  0.81633  0.93645  1.0000
  Fe  Fe56      1.0  0.44906  0.91447  0.94514  1.0000
  C   C398      1.0  0.24310  0.75229  0.79850  1.0000
  Fe  Fe57      1.0  0.45337  0.83967  0.94812  1.0000
  S   S110      1.0  0.47242  0.79965  0.95914  1.0000
  S   S111      1.0  0.41837  0.89931  0.92479  1.0000
  S   S112      1.0  0.42350  0.81901  0.92795  1.0000
  S   S113      1.0  0.34358  0.55387  0.93310  1.0000
  Fe  Fe58      1.0  0.24313  0.66163  0.86578  1.0000
  S   S114      1.0  0.21743  0.67366  0.84604  1.0000
  S   S115      1.0  0.21830  0.61044  0.88246  1.0000
  Fe  Fe59      1.0  0.30630  0.73342  0.85859  1.0000
  S   S116      1.0  0.28650  0.75265  0.83815  1.0000
  S   S117      1.0  0.35705  0.76257  0.86754  1.0000
  Fe  Fe60      1.0  0.23552  0.73141  0.85370  1.0000
  S   S118      1.0  0.19756  0.75851  0.85776  1.0000
  Fe  Fe61      1.0  0.27036  0.69340  0.83233  1.0000
  S   S119      1.0  0.27661  0.67841  0.80769  1.0000
  S   S120      1.0  0.25698  0.71772  0.87472  1.0000
  S   S121      1.0  0.29463  0.67618  0.85145  1.0000
  Fe  Fe62      1.0  0.11235  0.93204  0.80864  1.0000
  S   S122      1.0  0.06323  0.89965  0.79915  1.0000
  Fe  Fe63      1.0  0.14241  0.87479  0.80201  1.0000
  S   S123      1.0  0.09554  0.83699  0.79184  1.0000
  S   S124      1.0  0.19095  0.86358  0.80162  1.0000
  H   H690      1.0  0.21890  0.70019  0.81282  1.0000
  Fe  Fe64      1.0  0.06531  0.85024  0.81201  1.0000
  N   N30       1.0  0.23695  0.50391  0.89792  1.0000
  S   S125      1.0  0.14656  0.92640  0.78808  1.0000
  S   S126      1.0  0.11211  0.88348  0.82341  1.0000
  C   C399      1.0  0.45816  0.59910  0.81044  1.0000
  C   C400      1.0  0.42357  0.57628  0.81592  1.0000
  C   C401      1.0  0.41027  0.57660  0.83146  1.0000
  C   C402      1.0  0.43183  0.59935  0.84154  1.0000
  C   C403      1.0  0.99612  0.77451  0.74357  1.0000
  H   H691      1.0  0.42170  0.60036  0.85344  1.0000
  H   H692      1.0  0.41280  0.93029  0.84552  1.0000
  S   S127      1.0  0.35182  0.54969  0.97047  1.0000
  H   H693      1.0  0.24465  0.57442  0.91568  1.0000
  C   C404      1.0  0.18460  0.50025  0.96208  1.0000
  S   S128      1.0  0.08420  0.89481  0.75556  1.0000
  C   C405      1.0  0.44400  0.77916  0.82820  1.0000
  C   C406      1.0  0.45134  0.78520  0.84358  1.0000
  C   C407      1.0  0.42462  0.78005  0.85570  1.0000
  C   C408      1.0  0.39045  0.76903  0.85241  1.0000
  C   C409      1.0  0.38317  0.76398  0.83696  1.0000
  C   C410      1.0  0.41002  0.76960  0.82484  1.0000
  H   H694      1.0  0.47776  0.79486  0.84608  1.0000
  H   H695      1.0  0.43057  0.78504  0.86756  1.0000
  H   H696      1.0  0.35694  0.75590  0.83429  1.0000
  H   H697      1.0  0.40440  0.76618  0.81289  1.0000
  C   C411      1.0  0.26344  0.63028  0.80713  1.0000
  C   C412      1.0  0.26096  0.60777  0.82062  1.0000
  C   C413      1.0  0.25123  0.56945  0.81995  1.0000
  C   C414      1.0  0.15161  0.90762  0.74443  1.0000
  C   C415      1.0  0.25545  0.61427  0.79304  1.0000
  H   H698      1.0  0.26680  0.61975  0.83156  1.0000
  H   H699      1.0  0.24958  0.55218  0.83038  1.0000
  H   H700      1.0  0.25741  0.63155  0.78257  1.0000
  C   C416      1.0  0.19654  0.78898  0.84247  1.0000
  C   C417      1.0  0.16658  0.79604  0.84183  1.0000
  C   C418      1.0  0.16470  0.81927  0.82941  1.0000
  C   C419      1.0  0.19299  0.83586  0.81771  1.0000
  C   C420      1.0  0.22315  0.82931  0.81853  1.0000
  C   C421      1.0  0.22494  0.80588  0.83087  1.0000
  H   H701      1.0  0.14456  0.78311  0.85080  1.0000
  H   H702      1.0  0.14129  0.82409  0.82883  1.0000
  H   H703      1.0  0.43310  0.94148  0.86249  1.0000
  H   H704      1.0  0.20505  0.78206  0.78531  1.0000
  H   H705      1.0  0.29469  0.56622  0.90724  1.0000
  C   C422      1.0  0.44071  0.75529  0.95793  1.0000
  C   C423      1.0  0.44957  0.72458  0.95641  1.0000
  C   C424      1.0  0.42400  0.68971  0.95436  1.0000
  C   C425      1.0  0.21519  0.52168  0.90644  1.0000
  H   H706      1.0  0.43091  0.66617  0.95299  1.0000
  C   C426      1.0  0.38085  0.71625  0.95594  1.0000
  S   S129      1.0  0.13515  0.65671  0.97701  1.0000
  C   C427      1.0  0.14178  0.63445  0.91664  1.0000
  C   C428      1.0  0.15357  0.65453  0.90193  1.0000
  C   C429      1.0  0.17560  0.64575  0.89101  1.0000
  C   C430      1.0  0.18544  0.61655  0.89471  1.0000
  C   C431      1.0  0.17124  0.59452  0.90888  1.0000
  C   C432      1.0  0.14945  0.60350  0.91985  1.0000
  H   H707      1.0  0.14699  0.67780  0.89917  1.0000
  H   H708      1.0  0.18552  0.66217  0.87989  1.0000
  H   H709      1.0  0.17810  0.57152  0.91173  1.0000
  H   H710      1.0  0.13952  0.58714  0.93101  1.0000
  C   C433      1.0  0.37512  0.53431  0.87896  1.0000
  H   H711      1.0  0.20894  0.76635  0.93092  1.0000
  C   C434      1.0  0.39802  0.63418  0.90640  1.0000
  H   H712      1.0  0.41398  0.93591  0.97810  1.0000
  H   H713      1.0  0.22225  0.55671  0.96049  1.0000
  Fe  Fe65      1.0  0.39353  0.54649  0.92888  1.0000
  C   C435      1.0  0.99696  0.79456  0.78196  1.0000
  C   C436      1.0  0.99650  0.80677  0.75335  1.0000
  H   H714      1.0  0.43756  0.89639  0.83405  1.0000
  C   C437      1.0  0.30422  0.77993  0.95053  1.0000
  C   C438      1.0  0.26978  0.75944  0.94815  1.0000
  C   C439      1.0  0.00639  0.93286  0.84639  1.0000
  H   H715      1.0  0.30333  0.73620  0.98564  1.0000
  S   S130      1.0  0.47669  0.78221  0.81318  1.0000
  H   H716      1.0  0.26039  0.76623  0.93777  1.0000
  S   S131      1.0  0.22994  0.50549  0.80505  1.0000
  C   C440      1.0  0.37828  0.52229  0.89402  1.0000
  H   H717      1.0  0.28679  0.61953  0.93846  1.0000
  H   H718      1.0  0.25564  0.78806  0.88992  1.0000
  H   H719      1.0  0.29228  0.59221  0.97926  1.0000
  C   C441      1.0  0.45728  0.68276  0.88159  1.0000
  S   S132      1.0  0.14753  0.51049  0.96320  1.0000
  H   H720      1.0  0.02910  0.92637  0.84226  1.0000
  C   C442      1.0  0.01311  0.56463  0.98621  1.0000
  C   C443      1.0  0.43294  0.68533  0.86978  1.0000
  H   H721      1.0  0.13080  0.71868  0.91381  1.0000
  C   C444      1.0  0.47601  0.69049  0.90812  1.0000
  H   H722      1.0  0.24251  0.74840  0.78589  1.0000
  H   H723      1.0  0.47626  0.72801  0.95651  1.0000
  H   H724      1.0  0.45465  0.65352  0.88229  1.0000
  C   C445      1.0  0.46012  0.75696  0.91023  1.0000
  H   H725      1.0  0.14209  0.73559  0.88588  1.0000
  H   H726      1.0  0.43606  0.54199  0.86099  1.0000
  H   H727      1.0  0.46529  0.78637  0.90684  1.0000
  H   H728      1.0  0.39724  0.68700  0.89896  1.0000
  C   C446      1.0  0.30060  0.55260  0.89704  1.0000
  H   H729      1.0  0.35428  0.71333  0.95624  1.0000
  H   H730      1.0  0.19300  0.65441  0.77471  1.0000
  H   H731      1.0  0.43671  0.71433  0.86652  1.0000
  H   H732      1.0  0.43912  0.67408  0.85876  1.0000
  H   H733      1.0  0.40529  0.66846  0.87411  1.0000
  C   C447      1.0  0.20147  0.76843  0.89976  1.0000
  H   H734      1.0  0.14004  0.78024  0.88820  1.0000
  H   H735      1.0  0.22123  0.71411  0.95706  1.0000
  H   H736      1.0  0.20763  0.82294  0.92173  1.0000
  S   S133      1.0  0.46139  0.97382  0.95071  1.0000
  N   N31       1.0  0.45154  0.69575  0.89751  1.0000
  C   C448      1.0  0.24773  0.72993  0.95902  1.0000
  H   H737      1.0  0.40699  0.84785  0.83640  1.0000
  H   H738      1.0  0.19666  0.86428  0.90543  1.0000
  S   S134      1.0  0.39757  0.54794  0.80307  1.0000
  H   H739      1.0  0.15088  0.88906  0.75424  1.0000
  C   C449      1.0  0.48800  0.55290  0.86534  1.0000
  C   C450      1.0  0.13940  0.74891  0.91048  1.0000
  H   H740      1.0  0.48697  0.94290  0.97556  1.0000
  H   H741      1.0  0.16620  0.78951  0.78900  1.0000
  S   S135      1.0  0.23330  0.68358  0.98604  1.0000
  H   H742      1.0  0.18869  0.50091  0.91095  1.0000
  Fe  Fe66      1.0  0.18292  0.64490  0.97838  1.0000
  C   C451      1.0  0.01410  0.95350  0.81177  1.0000
  H   H743      1.0  0.31229  0.53328  0.90078  1.0000
  H   H744      1.0  0.15379  0.83191  0.90275  1.0000
  H   H745      1.0  0.35476  0.82356  0.88677  1.0000
  H   H746      1.0  0.26713  0.74931  0.80119  1.0000
  H   H747      1.0  0.35590  0.92874  0.86229  1.0000
  N   N32       1.0  0.17657  0.76986  0.91339  1.0000
  H   H748      1.0  0.12999  0.72837  0.94111  1.0000
  H   H749      1.0  0.48916  0.62076  0.96658  1.0000
  H   H750      1.0  0.02490  0.76435  0.79147  1.0000
  S   S136      1.0  0.47423  0.88107  0.89030  1.0000
  H   H751      1.0  0.34290  0.78714  0.96601  1.0000
  N   N33       1.0  0.29743  0.68277  0.91668  1.0000
  C   C452      1.0  0.31608  0.66061  0.90915  1.0000
  C   C453      1.0  0.29840  0.67933  0.93412  1.0000
  C   C454      1.0  0.31451  0.72323  0.91077  1.0000
  C   C455      1.0  0.26077  0.66762  0.91280  1.0000
  C   C456      1.0  0.32302  0.66518  0.89106  1.0000
  C   C457      1.0  0.27718  0.64054  0.94264  1.0000
  C   C458      1.0  0.35316  0.74287  0.91286  1.0000
  C   C459      1.0  0.23728  0.68634  0.91990  1.0000
  H   H752      1.0  0.34131  0.66699  0.91370  1.0000
  H   H753      1.0  0.30111  0.63047  0.91244  1.0000
  H   H754      1.0  0.29051  0.69972  0.94020  1.0000
  H   H755      1.0  0.32542  0.68658  0.93653  1.0000
  H   H756      1.0  0.31196  0.72727  0.89814  1.0000
  H   H757      1.0  0.30115  0.73934  0.91690  1.0000
  H   H758      1.0  0.26062  0.67068  0.89995  1.0000
  H   H759      1.0  0.24748  0.63710  0.91566  1.0000
  H   H760      1.0  0.34042  0.69389  0.88650  1.0000
  H   H761      1.0  0.33631  0.64705  0.88704  1.0000
  H   H762      1.0  0.29872  0.65641  0.88562  1.0000
  H   H763      1.0  0.28001  0.64197  0.95530  1.0000
  H   H764      1.0  0.24926  0.63109  0.94163  1.0000
  H   H765      1.0  0.36944  0.72990  0.90681  1.0000
  H   H766      1.0  0.35698  0.74443  0.92543  1.0000
  H   H767      1.0  0.36291  0.77191  0.90758  1.0000
  H   H768      1.0  0.23873  0.70983  0.91186  1.0000
  H   H769      1.0  0.24330  0.69622  0.93145  1.0000
  H   H770      1.0  0.21014  0.66582  0.92206  1.0000
  N   N34       1.0  0.38677  0.65924  0.80329  1.0000
  C   C460      1.0  0.40432  0.67157  0.81777  1.0000
  C   C461      1.0  0.41344  0.65546  0.79118  1.0000
  C   C462      1.0  0.35703  0.62204  0.80773  1.0000
  C   C463      1.0  0.37397  0.68815  0.79800  1.0000
  C   C464      1.0  0.38030  0.67009  0.83283  1.0000
  C   C465      1.0  0.44614  0.69120  0.78611  1.0000
  C   C466      1.0  0.34175  0.59844  0.79431  1.0000
  C   C467      1.0  0.35957  0.68482  0.78208  1.0000
  H   H771      1.0  0.41912  0.65458  0.82071  1.0000
  H   H772      1.0  0.42389  0.70071  0.81572  1.0000
  H   H773      1.0  0.40264  0.64493  0.78032  1.0000
  H   H774      1.0  0.42222  0.63405  0.79561  1.0000
  H   H775      1.0  0.36521  0.60408  0.81534  1.0000
  H   H776      1.0  0.33502  0.62543  0.81482  1.0000
  H   H777      1.0  0.35284  0.68853  0.80676  1.0000
  H   H778      1.0  0.39450  0.71657  0.79770  1.0000
  H   H779      1.0  0.36338  0.68507  0.83101  1.0000
  H   H780      1.0  0.36425  0.64108  0.83764  1.0000
  H   H781      1.0  0.39655  0.68394  0.84193  1.0000
  H   H782      1.0  0.46215  0.70046  0.79581  1.0000
  H   H783      1.0  0.46276  0.68546  0.77659  1.0000
  H   H784      1.0  0.43972  0.71410  0.78143  1.0000
  H   H785      1.0  0.31976  0.57262  0.79950  1.0000
  H   H786      1.0  0.36067  0.58931  0.78777  1.0000
  H   H787      1.0  0.33100  0.61224  0.78618  1.0000
  H   H788      1.0  0.33085  0.67050  0.78381  1.0000
  H   H789      1.0  0.37027  0.67077  0.77348  1.0000
  H   H790      1.0  0.36638  0.71309  0.77638  1.0000
  C   C468      1.0  0.36020  0.86162  0.85905  1.0000
  H   H791      1.0  0.36697  0.93718  0.96343  1.0000
  C   C469      1.0  0.38328  0.94509  0.86384  1.0000
  C   C470      1.0  0.35369  0.87084  0.84229  1.0000
  H   H792      1.0  0.40674  0.62156  0.89650  1.0000
  H   H793      1.0  0.35616  0.83189  0.86005  1.0000
  H   H794      1.0  0.33869  0.86344  0.86718  1.0000
  C   C471      1.0  0.34791  0.51245  0.87099  1.0000
  H   H795      1.0  0.39181  0.97215  0.85675  1.0000
  H   H796      1.0  0.17654  0.63815  0.79470  1.0000
  H   H797      1.0  0.33972  0.84443  0.83710  1.0000
  H   H798      1.0  0.37711  0.88651  0.83393  1.0000
  H   H799      1.0  0.33598  0.88565  0.84271  1.0000
  H   H800      1.0  0.48458  0.69858  0.87616  1.0000
  H   H801      1.0  0.02407  0.82487  0.75417  1.0000
  C   C472      1.0  0.31647  0.77122  0.96399  1.0000
  H   H802      1.0  0.16386  0.72905  0.95195  1.0000
  H   H803      1.0  0.39920  0.77433  0.95934  1.0000
  H   H804      1.0  0.01997  0.94062  0.78766  1.0000
  H   H805      1.0  0.12141  0.75758  0.91812  1.0000
  H   H806      1.0  0.02957  0.76837  0.77056  1.0000
  C   C473      1.0  0.41440  0.67693  0.90501  1.0000
  H   H807      1.0  0.02021  0.82089  0.78170  1.0000
  H   H808      1.0  0.19695  0.73907  0.89786  1.0000
  H   H809      1.0  0.04274  0.96872  0.81098  1.0000
  Fe  Fe67      1.0  0.40135  0.54230  0.96331  1.0000
  C   C474      1.0  0.14179  0.68981  0.83091  1.0000
  H   H810      1.0  0.26261  0.55494  0.88267  1.0000
  H   H811      1.0  0.27873  0.52015  0.87866  1.0000
  H   H812      1.0  0.10245  0.73842  0.89353  1.0000
  H   H813      1.0  0.16301  0.80907  0.92654  1.0000
  H   H814      1.0  0.24591  0.78096  0.80053  1.0000
  S   S137      1.0  0.43264  0.53966  0.98277  1.0000
  H   H815      1.0  0.41155  0.68477  0.91721  1.0000
  C   C475      1.0  0.18275  0.75061  0.92763  1.0000
  H   H816      1.0  0.24916  0.77685  0.91056  1.0000
  H   H817      1.0  0.15971  0.77162  0.94736  1.0000
  S   S138      1.0  0.11891  0.98691  0.81767  1.0000
  H   H818      1.0  0.16657  0.75428  0.77676  1.0000
  S   S139      1.0  0.41327  0.54936  0.90350  1.0000
  C   C476      1.0  0.24709  0.51770  0.95924  1.0000
  H   H819      1.0  0.03405  0.58510  0.97829  1.0000
  H   H820      1.0  0.19713  0.77980  0.88859  1.0000
  H   H821      1.0  0.15197  0.68234  0.78375  1.0000
  H   H822      1.0  0.48589  0.57206  0.87418  1.0000
  C   C477      1.0  0.19276  0.66327  0.78681  1.0000
  H   H823      1.0  0.18194  0.72270  0.92503  1.0000
  C   C478      1.0  0.20751  0.49884  0.87252  1.0000
  H   H824      1.0  0.00913  0.92445  0.81592  1.0000
  S   S140      1.0  0.48936  0.89427  0.93527  1.0000
  C   C479      1.0  0.40629  0.75090  0.95784  1.0000
  S   S141      1.0  0.42149  0.58986  0.94450  1.0000
  H   H825      1.0  0.24830  0.80100  0.83141  1.0000
  H   H826      1.0  0.21993  0.67358  0.78943  1.0000
  H   H827      1.0  0.39352  0.56083  0.87366  1.0000
  H   H828      1.0  0.38348  0.55944  0.83568  1.0000
  H   H829      1.0  0.03690  0.95515  0.75944  1.0000
  H   H830      1.0  0.23813  0.56342  0.78162  1.0000
  H   H831      1.0  0.44742  0.88862  0.86259  1.0000
  C   C480      1.0  0.15734  0.74495  0.94271  1.0000
  Fe  Fe68      1.0  0.32993  0.50996  0.95273  1.0000
  S   S142      1.0  0.01729  0.80608  0.82539  1.0000
  S   S143      1.0  0.35707  0.64331  0.95077  1.0000
  H   H832      1.0  0.37152  0.89341  0.88665  1.0000
  C   C481      1.0  0.38966  0.68571  0.95397  1.0000
  H   H833      1.0  0.19435  0.71547  0.77800  1.0000
  H   H834      1.0  0.16454  0.70275  0.83719  1.0000
  N   N35       1.0  0.39474  0.88510  0.86413  1.0000
  H   H835      1.0  0.24721  0.81932  0.90248  1.0000
  Fe  Fe69      1.0  0.09708  0.88932  0.77986  1.0000
  H   H836      1.0  0.24514  0.84233  0.80955  1.0000
  H   H837      1.0  0.12391  0.66449  0.83836  1.0000
  C   C482      1.0  0.18268  0.80907  0.91688  1.0000
  C   C483      1.0  0.17838  0.69387  0.78749  1.0000
  C   C484      1.0  0.46666  0.62116  0.83621  1.0000
  H   H838      1.0  0.44155  0.74254  0.88823  1.0000
  H   H839      1.0  0.46241  0.54678  0.83494  1.0000
  C   C485      1.0  0.47970  0.62161  0.82057  1.0000
  Fe  Fe70      1.0  0.36990  0.59319  0.95026  1.0000
  C   C486      1.0  0.40748  0.92561  0.85846  1.0000
  C   C487      1.0  0.39099  0.88269  0.88188  1.0000
  C   C488      1.0  0.21178  0.72353  0.80925  1.0000
  C   C489      1.0  0.17653  0.76766  0.78738  1.0000
  H   H840      1.0  0.27321  0.53882  0.95796  1.0000
  H   H841      1.0  0.45136  0.86029  0.83861  1.0000
  C   C490      1.0  0.37911  0.84352  0.89040  1.0000
  H   H842      1.0  0.37380  0.84522  0.90320  1.0000
  C   C491      1.0  0.24453  0.57579  0.79250  1.0000
  C   C492      1.0  0.42946  0.86920  0.84086  1.0000
  S   S144      1.0  0.30770  0.51948  0.83030  1.0000
  H   H843      1.0  0.46846  0.59902  0.79839  1.0000
  H   H844      1.0  0.41584  0.90050  0.88605  1.0000
  N   N36       1.0  0.17712  0.70967  0.80314  1.0000
  H   H845      1.0  0.21006  0.54068  0.89811  1.0000
  H   H846      1.0  0.12791  0.70856  0.83012  1.0000
  H   H847      1.0  0.21036  0.73653  0.82038  1.0000
  H   H848      1.0  0.16224  0.65715  0.81717  1.0000
  H   H849      1.0  0.41563  0.84268  0.86391  1.0000
  H   H850      1.0  0.16891  0.75652  0.81244  1.0000
  H   H851      1.0  0.36957  0.62430  0.90636  1.0000
  H   H852      1.0  0.17146  0.98417  0.75190  1.0000
  H   H853      1.0  0.40279  0.62295  0.91754  1.0000
  C   C493      1.0  0.16342  0.73987  0.80212  1.0000
  C   C494      1.0  0.15181  0.67856  0.81470  1.0000
  H   H854      1.0  0.32100  0.57446  0.88877  1.0000
  H   H855      1.0  0.44535  0.49689  0.95774  1.0000
  C   C495      1.0  0.42225  0.87115  0.85864  1.0000
  H   H856      1.0  0.13460  0.72755  0.80260  1.0000
  H   H857      1.0  0.12709  0.66393  0.80975  1.0000
  H   H858      1.0  0.34559  0.52193  0.85936  1.0000
  C   C496      1.0  0.13102  0.75144  0.89352  1.0000
  C   C497      1.0  0.21835  0.52780  0.96075  1.0000
  H   H859      1.0  0.32235  0.65752  0.97745  1.0000
  H   H860      1.0  0.02966  0.50340  0.96770  1.0000
  C   C498      1.0  0.26896  0.53283  0.88841  1.0000
  C   C499      1.0  0.46622  0.52037  0.83574  1.0000
  Fe  Fe71      1.0  0.10565  0.59803  0.98785  1.0000
  H   H861      1.0  0.43967  0.51045  0.87538  1.0000
  H   H862      1.0  0.19250  0.83137  0.89177  1.0000
  C   C500      1.0  0.29419  0.74217  0.97502  1.0000
  C   C501      1.0  0.18095  0.83507  0.90337  1.0000
  H   H863      1.0  0.45783  0.62907  0.90891  1.0000
  H   H864      1.0  0.26515  0.49596  0.91681  1.0000
  H   H865      1.0  0.01191  0.87191  0.77757  1.0000
  C   C502      1.0  0.12220  0.91466  0.74232  1.0000
  C   C503      1.0  0.02061  0.95918  0.75076  1.0000
  C   C504      1.0  0.45106  0.52507  0.86353  1.0000
  H   H866      1.0  0.43475  0.74536  0.91776  1.0000
  C   C505      1.0  0.01072  0.76370  0.78119  1.0000
  H   H867      1.0  0.19353  0.51652  0.87619  1.0000
  C   C506      1.0  0.46015  0.73691  0.89513  1.0000
  H   H868      1.0  0.24657  0.53497  0.92644  1.0000
  S   S145      1.0  0.49405  0.64605  0.84941  1.0000
  C   C507      1.0  0.48209  0.65426  0.90748  1.0000
  H   H869      1.0  0.20825  0.54293  0.92893  1.0000
  H   H870      1.0  0.01486  0.98286  0.75441  1.0000
  H   H871      1.0  0.21605  0.98508  0.76888  1.0000
  H   H872      1.0  0.47215  0.52094  0.81030  1.0000
  H   H873      1.0  0.23134  0.51556  0.86443  1.0000
  C   C508      1.0  0.00404  0.95212  0.79503  1.0000
  H   H874      1.0  0.00198  0.87570  0.75787  1.0000
  H   H875      1.0  0.00937  0.97998  0.78948  1.0000
  C   C509      1.0  0.49392  0.97214  0.97682  1.0000
  C   C510      1.0  0.31667  0.65965  0.99019  1.0000
  H   H876      1.0  0.48624  0.75174  0.88813  1.0000
  H   H877      1.0  0.46722  0.69238  0.92061  1.0000
  H   H878      1.0  0.35125  0.61651  0.98603  1.0000
  C   C511      1.0  0.01032  0.97071  0.83857  1.0000
  H   H879      1.0  0.00455  0.93381  0.85933  1.0000
  H   H880      1.0  0.48095  0.75726  0.91719  1.0000
  C   C512      1.0  0.45585  0.51088  0.98117  1.0000
  H   H881      1.0  0.25043  0.61973  0.98075  1.0000
  C   C513      1.0  0.38842  0.92997  0.98510  1.0000
  H   H882      1.0  0.22674  0.57230  0.98791  1.0000
  H   H883      1.0  0.99540  0.85290  0.80598  1.0000
  H   H884      1.0  0.99606  0.93429  0.75181  1.0000
  C   C514      1.0  0.45886  0.49395  0.96740  1.0000
  N   N37       1.0  0.99556  0.96956  0.82328  1.0000
  H   H885      1.0  0.00003  0.98534  0.84726  1.0000
  Fe  Fe72      1.0  0.34537  0.50617  0.81390  1.0000
  H   H886      1.0  0.36011  0.89068  0.96924  1.0000
  H   H887      1.0  0.34872  0.71896  0.98851  1.0000
  C   C515      1.0  0.45477  0.50251  0.82050  1.0000
  H   H888      1.0  0.37489  0.98998  0.97489  1.0000
  H   H889      1.0  0.42821  0.50019  0.81896  1.0000
  S   S146      1.0  0.37777  0.49834  0.94708  1.0000
  H   H890      1.0  0.33424  0.91090  0.97976  1.0000
  N   N38       1.0  0.44830  0.49804  0.85119  1.0000
  H   H891      1.0  0.39729  0.49603  0.84818  1.0000
  C   C516      1.0  0.36064  0.91692  0.97382  1.0000
  H   H892      1.0  0.03874  0.98781  0.83683  1.0000
  C   C517      1.0  0.24716  0.59881  0.99047  1.0000
  H   H893      1.0  0.06059  0.51288  0.99061  1.0000
  H   H894      1.0  0.37270  0.69143  0.99086  1.0000
  C   C518      1.0  0.74025  0.42601  0.02274  1.0000
  H   H895      1.0  0.73821  0.41581  0.15710  1.0000
  S   S147      1.0  0.51637  0.27450  0.11626  1.0000
  S   S148      1.0  0.56133  0.25733  0.15188  1.0000
  Fe  Fe73      1.0  0.56481  0.10653  0.00955  1.0000
  H   H896      1.0  0.58195  0.28013  0.09294  1.0000
  H   H897      1.0  0.64104  0.40323  0.14533  1.0000
  C   C519      1.0  0.55936  0.26539  0.00589  1.0000
  H   H898      1.0  0.67755  0.18436  0.04285  1.0000
  H   H899      1.0  0.67975  0.40494  0.13442  1.0000
  C   C520      1.0  0.63262  0.32687  0.18184  1.0000
  H   H900      1.0  0.70385  0.14162  0.06487  1.0000
  H   H901      1.0  0.57191  0.40849  0.08014  1.0000
  H   H902      1.0  0.79159  0.21998  0.07334  1.0000
  H   H903      1.0  0.73779  0.21635  0.08927  1.0000
  S   S149      1.0  0.53644  0.04454  0.00856  1.0000
  H   H904      1.0  0.84194  0.47699  0.07832  1.0000
  H   H905      1.0  0.93864  0.18047  0.10922  1.0000
  Fe  Fe74      1.0  0.80920  0.26482  0.11147  1.0000
  S   S150      1.0  0.82832  0.29658  0.13195  1.0000
  S   S151      1.0  0.84690  0.25371  0.09440  1.0000
  Fe  Fe75      1.0  0.73470  0.25239  0.12196  1.0000
  S   S152      1.0  0.74720  0.28191  0.14376  1.0000
  S   S153      1.0  0.68395  0.23291  0.11212  1.0000
  Fe  Fe76      1.0  0.79180  0.32363  0.12785  1.0000
  S   S154      1.0  0.80533  0.38443  0.12941  1.0000
  Fe  Fe77      1.0  0.78237  0.25170  0.14597  1.0000
  S   S155      1.0  0.79493  0.23199  0.16857  1.0000
  S   S156      1.0  0.77729  0.29629  0.10578  1.0000
  S   S157      1.0  0.76553  0.21781  0.12559  1.0000
  C   C521      1.0  0.70452  0.41690  0.02531  1.0000
  H   H906      1.0  0.94113  0.22442  0.13351  1.0000
  Fe  Fe78      1.0  0.93527  0.11065  0.15972  1.0000
  H   H907      1.0  0.54752  0.19100  0.04523  1.0000
  Fe  Fe79      1.0  0.85696  0.07490  0.16695  1.0000
  S   S158      1.0  0.80437  0.07596  0.16612  1.0000
  S   S159      1.0  0.89861  0.10887  0.18080  1.0000
  S   S160      1.0  0.62459  0.20922  0.01463  1.0000
  Fe  Fe80      1.0  0.59524  0.16273  0.03314  1.0000
  S   S161      1.0  0.60121  0.17548  0.05819  1.0000
  Fe  Fe81      1.0  0.57602  0.41290  0.02217  1.0000
  S   S162      1.0  0.56571  0.35973  0.03668  1.0000
  S   S163      1.0  0.69142  0.48415  0.99189  1.0000
  H   H908      1.0  0.93339  0.16281  0.20539  1.0000
  C   C522      1.0  0.63116  0.34423  0.16569  1.0000
  C   C523      1.0  0.56278  0.32330  0.02483  1.0000
  C   C524      1.0  0.56949  0.29325  0.03062  1.0000
  C   C525      1.0  0.56812  0.26453  0.02112  1.0000
  H   H909      1.0  0.57530  0.29194  0.04251  1.0000
  H   H910      1.0  0.57332  0.24147  0.02564  1.0000
  C   C526      1.0  0.86278  0.28654  0.07812  1.0000
  C   C527      1.0  0.84103  0.30018  0.07111  1.0000
  C   C528      1.0  0.85447  0.32646  0.05801  1.0000
  C   C529      1.0  0.88982  0.33987  0.05233  1.0000
  C   C530      1.0  0.91141  0.32621  0.05938  1.0000
  C   C531      1.0  0.89780  0.29915  0.07208  1.0000
  H   H911      1.0  0.81386  0.29014  0.07563  1.0000
  H   H912      1.0  0.83775  0.33704  0.05260  1.0000
  H   H913      1.0  0.93875  0.33659  0.05500  1.0000
  H   H914      1.0  0.91462  0.28857  0.07745  1.0000
  C   C532      1.0  0.79615  0.18788  0.16861  1.0000
  C   C533      1.0  0.81888  0.17962  0.17739  1.0000
  C   C534      1.0  0.82138  0.14506  0.17686  1.0000
  C   C535      1.0  0.80055  0.11850  0.16783  1.0000
  C   C536      1.0  0.77699  0.12630  0.15952  1.0000
  C   C537      1.0  0.77515  0.16114  0.15972  1.0000
  H   H915      1.0  0.83503  0.20028  0.18433  1.0000
  H   H916      1.0  0.83938  0.13900  0.18340  1.0000
  H   H917      1.0  0.76065  0.10566  0.15263  1.0000
  H   H918      1.0  0.75701  0.16704  0.15322  1.0000
  Fe  Fe82      1.0  0.87113  0.38726  0.02335  1.0000
  H   H919      1.0  0.71980  0.44292  0.14671  1.0000
  C   C538      1.0  0.72755  0.41882  0.10735  1.0000
  C   C539      1.0  0.75389  0.44484  0.11445  1.0000
  C   C540      1.0  0.77793  0.43429  0.12124  1.0000
  C   C541      1.0  0.77516  0.39762  0.12116  1.0000
  C   C542      1.0  0.74841  0.37159  0.11431  1.0000
  C   C543      1.0  0.72492  0.38228  0.10727  1.0000
  C   C544      1.0  0.50821  0.19561  0.08103  1.0000
  H   H920      1.0  0.79841  0.45445  0.12668  1.0000
  H   H921      1.0  0.74521  0.34299  0.11474  1.0000
  H   H922      1.0  0.70420  0.36190  0.10219  1.0000
  S   S164      1.0  0.58983  0.48955  0.13995  1.0000
  C   C545      1.0  0.54324  0.19068  0.05777  1.0000
  C   C546      1.0  0.56641  0.18505  0.06699  1.0000
  C   C547      1.0  0.56140  0.18668  0.08327  1.0000
  C   C548      1.0  0.53248  0.19242  0.09029  1.0000
  H   H923      1.0  0.57901  0.18206  0.09053  1.0000
  H   H924      1.0  0.52807  0.19253  0.10291  1.0000
  H   H925      1.0  0.94298  0.12300  0.20833  1.0000
  C   C549      1.0  0.54056  0.38589  0.12618  1.0000
  C   C550      1.0  0.56695  0.41872  0.12989  1.0000
  C   C551      1.0  0.55826  0.44668  0.13634  1.0000
  C   C552      1.0  0.52341  0.44135  0.13942  1.0000
  H   H926      1.0  0.60209  0.03361  0.00450  1.0000
  H   H927      1.0  0.54720  0.36457  0.12094  1.0000
  H   H928      1.0  0.59388  0.42261  0.12762  1.0000
  H   H929      1.0  0.97610  0.43253  0.00052  1.0000
  Fe  Fe83      1.0  0.63598  0.47090  0.00134  1.0000
  C   C553      1.0  0.59425  0.24837  0.14097  1.0000
  C   C554      1.0  0.62394  0.25169  0.14779  1.0000
  C   C555      1.0  0.65152  0.24676  0.13904  1.0000
  C   C556      1.0  0.64944  0.23832  0.12345  1.0000
  C   C557      1.0  0.61945  0.23425  0.11672  1.0000
  C   C558      1.0  0.59181  0.23916  0.12547  1.0000
  H   H930      1.0  0.62554  0.25792  0.15989  1.0000
  H   H931      1.0  0.67404  0.24885  0.14447  1.0000
  H   H932      1.0  0.61764  0.22740  0.10471  1.0000
  H   H933      1.0  0.56866  0.23590  0.12026  1.0000
  H   H934      1.0  0.68851  0.39612  0.03460  1.0000
  H   H935      1.0  0.73708  0.17074  0.05009  1.0000
  H   H936      1.0  0.54371  0.33018  0.08021  1.0000
  S   S165      1.0  0.54465  0.14324  0.02309  1.0000
  H   H937      1.0  0.57178  0.44303  0.06603  1.0000
  H   H938      1.0  0.67924  0.27993  0.99648  1.0000
  H   H939      1.0  0.92251  0.23615  0.10969  1.0000
  H   H940      1.0  0.81338  0.16531  0.12547  1.0000
  C   C559      1.0  0.55352  0.32380  0.00970  1.0000
  H   H941      1.0  0.61298  0.35848  0.16760  1.0000
  H   H942      1.0  0.66147  0.42536  0.01715  1.0000
  N   N39       1.0  0.86500  0.42032  0.08230  1.0000
  C   C560      1.0  0.88761  0.40055  0.08677  1.0000
  Fe  Fe84      1.0  0.51366  0.24766  0.14015  1.0000
  C   C561      1.0  0.82820  0.39178  0.08363  1.0000
  H   H943      1.0  0.73905  0.06242  0.21832  1.0000
  C   C562      1.0  0.87677  0.37801  0.10292  1.0000
  H   H944      1.0  0.78862  0.46155  0.00917  1.0000
  C   C563      1.0  0.98603  0.42963  0.01165  1.0000
  H   H945      1.0  0.93302  0.44688  0.06178  1.0000
  H   H946      1.0  0.88900  0.38114  0.07792  1.0000
  H   H947      1.0  0.89720  0.36810  0.10542  1.0000
  H   H948      1.0  0.98104  0.39994  0.01431  1.0000
  H   H949      1.0  0.69458  0.15371  0.03432  1.0000
  H   H950      1.0  0.82724  0.36762  0.07708  1.0000
  H   H951      1.0  0.81827  0.38054  0.09602  1.0000
  H   H952      1.0  0.69173  0.30136  0.02190  1.0000
  H   H953      1.0  0.85191  0.43731  0.10488  1.0000
  H   H954      1.0  0.92683  0.19281  0.09113  1.0000
  H   H955      1.0  0.87378  0.39486  0.11256  1.0000
  C   C564      1.0  0.70980  0.46088  0.00352  1.0000
  H   H956      1.0  0.95572  0.15889  0.22133  1.0000
  H   H957      1.0  0.93300  0.20063  0.16097  1.0000
  C   C565      1.0  0.87734  0.43572  0.06542  1.0000
  C   C566      1.0  0.76411  0.08213  0.21198  1.0000
  H   H958      1.0  0.74909  0.25928  0.06591  1.0000
  H   H959      1.0  0.77569  0.38009  0.07897  1.0000
  C   C567      1.0  0.51874  0.33015  0.07735  1.0000
  C   C568      1.0  0.80080  0.40452  0.07796  1.0000
  H   H960      1.0  0.49959  0.25323  0.04254  1.0000
  H   H961      1.0  0.86224  0.45072  0.06102  1.0000
  H   H962      1.0  0.74688  0.01754  0.23121  1.0000
  C   C569      1.0  0.74560  0.47044  0.00114  1.0000
  C   C570      1.0  0.57328  0.43725  0.07860  1.0000
  C   C571      1.0  0.68539  0.20391  0.07327  1.0000
  H   H963      1.0  0.66076  0.13638  0.05022  1.0000
  Fe  Fe85      1.0  0.83132  0.36627  0.99541  1.0000
  Fe  Fe86      1.0  0.90244  0.05499  0.18756  1.0000
  H   H964      1.0  0.59901  0.45533  0.08169  1.0000
  C   C572      1.0  0.71968  0.48327  0.06113  1.0000
  H   H965      1.0  0.84375  0.48906  0.09794  1.0000
  H   H966      1.0  0.76011  0.29799  0.00254  1.0000
  N   N40       1.0  0.64306  0.32148  0.07134  1.0000
  C   C573      1.0  0.68168  0.33752  0.06627  1.0000
  C   C574      1.0  0.62758  0.34570  0.06373  1.0000
  C   C575      1.0  0.62591  0.28273  0.06637  1.0000
  C   C576      1.0  0.63684  0.31996  0.08897  1.0000
  C   C577      1.0  0.70139  0.31459  0.07210  1.0000
  C   C578      1.0  0.63887  0.38555  0.06880  1.0000
  C   C579      1.0  0.63615  0.27762  0.04913  1.0000
  C   C580      1.0  0.59877  0.30786  0.09618  1.0000
  H   H967      1.0  0.68758  0.34221  0.05324  1.0000
  H   H968      1.0  0.69427  0.36542  0.07057  1.0000
  H   H969      1.0  0.59872  0.33260  0.06573  1.0000
  H   H970      1.0  0.63418  0.34879  0.05077  1.0000
  H   H971      1.0  0.63086  0.26210  0.07396  1.0000
  H   H972      1.0  0.59714  0.27334  0.06800  1.0000
  H   H973      1.0  0.64634  0.30025  0.09451  1.0000
  H   H974      1.0  0.65176  0.34736  0.09318  1.0000
  H   H975      1.0  0.70207  0.31470  0.08496  1.0000
  H   H976      1.0  0.69051  0.28556  0.06908  1.0000
  H   H977      1.0  0.72875  0.32737  0.06645  1.0000
  H   H978      1.0  0.62574  0.40020  0.06232  1.0000
  H   H979      1.0  0.63131  0.38620  0.08148  1.0000
  H   H980      1.0  0.66712  0.40174  0.06578  1.0000
  H   H981      1.0  0.63578  0.29943  0.04071  1.0000
  H   H982      1.0  0.61737  0.25079  0.04596  1.0000
  H   H983      1.0  0.66201  0.27646  0.04746  1.0000
  H   H984      1.0  0.58823  0.32858  0.09309  1.0000
  H   H985      1.0  0.59742  0.30582  0.10916  1.0000
  C   C581      1.0  0.77103  0.19251  0.07765  1.0000
  H   H986      1.0  0.70756  0.36684  0.14137  1.0000
  S   S166      1.0  0.90834  0.37555  0.03722  1.0000
  C   C582      1.0  0.50113  0.29602  0.06842  1.0000
  H   H987      1.0  0.97020  0.43699  0.02100  1.0000
  H   H988      1.0  0.51884  0.30017  0.05743  1.0000
  C   C583      1.0  0.68924  0.43384  0.01555  1.0000
  H   H989      1.0  0.64328  0.34761  0.19031  1.0000
  S   S167      1.0  0.75891  0.40324  0.03444  1.0000
  H   H990      1.0  0.77107  0.17169  0.06934  1.0000
  H   H991      1.0  0.88810  0.17330  0.16074  1.0000
  H   H992      1.0  0.61804  0.32021  0.15900  1.0000
  N   N41       1.0  0.71851  0.20019  0.06703  1.0000
  S   S168      1.0  0.94235  0.05957  0.16758  1.0000
  H   H993      1.0  0.54700  0.43427  0.10176  1.0000
  Fe  Fe87      1.0  0.87495  0.44757  0.99955  1.0000
  H   H994      1.0  0.73505  0.34968  0.15916  1.0000
  C   C584      1.0  0.68300  0.40255  0.16569  1.0000
  H   H995      1.0  0.70489  0.35032  0.17509  1.0000
  H   H996      1.0  0.54660  0.34581  0.00538  1.0000
  C   C585      1.0  0.85834  0.48227  0.08787  1.0000
  H   H997      1.0  0.91484  0.42058  0.08690  1.0000
  H   H998      1.0  0.98218  0.06490  0.11384  1.0000
  H   H999      1.0  0.64715  0.33918  0.12704  1.0000
  H   H1000     1.0  0.89559  0.27952  0.12163  1.0000
  H   H1001     1.0  0.70866  0.23738  0.00679  1.0000
  S   S169      1.0  0.61306  0.12224  0.02135  1.0000
  H   H1002     1.0  0.87297  0.09152  0.21455  1.0000
  Fe  Fe88      1.0  0.89688  0.02964  0.15497  1.0000
  C   C586      1.0  0.67164  0.30295  0.99985  1.0000
  N   N42       1.0  0.66494  0.37022  0.15642  1.0000
  H   H1003     1.0  0.89508  0.46309  0.09623  1.0000
  H   H1004     1.0  0.85718  0.21494  0.14600  1.0000
  C   C587      1.0  0.75556  0.27848  0.99368  1.0000
  S   S170      1.0  0.91336  0.04303  0.21164  1.0000
  H   H1005     1.0  0.72998  0.45227  0.16602  1.0000
  H   H1006     1.0  0.64631  0.30795  0.18088  1.0000
  C   C588      1.0  0.95351  0.15348  0.20891  1.0000
  H   H1007     1.0  0.60560  0.30916  0.18705  1.0000
  Fe  Fe89      1.0  0.80800  0.40412  0.02114  1.0000
  S   S171      1.0  0.86203  0.43948  0.02572  1.0000
  H   H1008     1.0  0.88130  0.20939  0.10452  1.0000
  C   C589      1.0  0.87137  0.22361  0.13392  1.0000
  C   C590      1.0  0.90972  0.19927  0.15563  1.0000
  C   C591      1.0  0.89608  0.26503  0.13292  1.0000
  H   H1009     1.0  0.84969  0.15168  0.14380  1.0000
  H   H1010     1.0  0.85064  0.22258  0.12671  1.0000
  H   H1011     1.0  0.81185  0.11956  0.12480  1.0000
  N   N43       1.0  0.53834  0.47616  0.08789  1.0000
  S   S172      1.0  0.81581  0.35072  0.02123  1.0000
  H   H1012     1.0  0.88764  0.27831  0.14278  1.0000
  H   H1013     1.0  0.83691  0.15356  0.10911  1.0000
  C   C592      1.0  0.71968  0.42953  0.15827  1.0000
  C   C593      1.0  0.90157  0.20773  0.11144  1.0000
  H   H1014     1.0  0.77844  0.18422  0.08879  1.0000
  S   S173      1.0  0.62103  0.46314  0.02733  1.0000
  C   C594      1.0  0.76082  0.45315  0.01078  1.0000
  C   C595      1.0  0.55193  0.29502  0.00024  1.0000
  S   S174      1.0  0.69674  0.43098  0.09917  1.0000
  Fe  Fe90      1.0  0.69489  0.48238  0.10895  1.0000
  H   H1015     1.0  0.51661  0.45581  0.06677  1.0000
  N   N44       1.0  0.88766  0.19739  0.12856  1.0000
  C   C596      1.0  0.82918  0.14933  0.12198  1.0000
  H   H1016     1.0  0.88793  0.09951  0.23325  1.0000
  H   H1017     1.0  0.92328  0.26975  0.13404  1.0000
  C   C597      1.0  0.88127  0.00217  0.22112  1.0000
  C   C598      1.0  0.86050  0.15829  0.13124  1.0000
  C   C599      1.0  0.91706  0.19956  0.13766  1.0000
  H   H1018     1.0  0.76166  0.49160  0.99196  1.0000
  H   H1019     1.0  0.79610  0.42454  0.08562  1.0000
  H   H1020     1.0  0.68972  0.34484  0.01692  1.0000
  H   H1021     1.0  0.60764  0.34128  0.13671  1.0000
  H   H1022     1.0  0.68600  0.39358  0.17760  1.0000
  C   C600      1.0  0.72650  0.24430  0.99607  1.0000
  H   H1023     1.0  0.82619  0.05949  0.20179  1.0000
  S   S175      1.0  0.54077  0.44322  0.02048  1.0000
  H   H1024     1.0  0.87201  0.13769  0.12872  1.0000
  C   C601      1.0  0.91665  0.18178  0.10354  1.0000
  Fe  Fe91      1.0  0.63723  0.16704  0.00173  1.0000
  H   H1025     1.0  0.95519  0.99213  0.16298  1.0000
  C   C602      1.0  0.51387  0.19515  0.06476  1.0000
  H   H1026     1.0  0.67221  0.32411  0.14605  1.0000
  H   H1027     1.0  0.76839  0.23484  0.05389  1.0000
  C   C603      1.0  0.68755  0.35005  0.15117  1.0000
  H   H1028     1.0  0.66695  0.41914  0.16780  1.0000
  C   C604      1.0  0.69561  0.32209  0.01198  1.0000
  H   H1029     1.0  0.63430  0.17514  0.08655  1.0000
  S   S176      1.0  0.85712  0.02067  0.17572  1.0000
  C   C605      1.0  0.70692  0.33935  0.16359  1.0000
  C   C606      1.0  0.63458  0.35783  0.13114  1.0000
  H   H1030     1.0  0.63235  0.37338  0.12051  1.0000
  H   H1031     1.0  0.69723  0.30865  0.16559  1.0000
  C   C607      1.0  0.65595  0.38604  0.14199  1.0000
  S   S177      1.0  0.89333  0.08148  0.14503  1.0000
  H   H1032     1.0  0.82674  0.02220  0.21388  1.0000
  H   H1033     1.0  0.69127  0.22828  0.08027  1.0000
  C   C608      1.0  0.54308  0.44004  0.08953  1.0000
  H   H1034     1.0  0.92461  0.17577  0.13560  1.0000
  N   N45       1.0  0.80168  0.05425  0.22571  1.0000
  H   H1035     1.0  0.66665  0.16573  0.09504  1.0000
  C   C609      1.0  0.74314  0.23622  0.05806  1.0000
  H   H1036     1.0  0.85265  0.35283  0.10302  1.0000
  C   C610      1.0  0.73509  0.19423  0.08112  1.0000
  C   C611      1.0  0.62119  0.03883  0.99386  1.0000
  S   S178      1.0  0.59309  0.41899  0.99631  1.0000
  H   H1037     1.0  0.87312  0.41259  0.05772  1.0000
  H   H1038     1.0  0.98090  0.00007  0.17880  1.0000
  H   H1039     1.0  0.80684  0.41551  0.06546  1.0000
  H   H1040     1.0  0.52527  0.35613  0.06983  1.0000
  H   H1041     1.0  0.75106  0.27665  0.03854  1.0000
  H   H1042     1.0  0.75580  0.47307  0.11473  1.0000
  H   H1043     1.0  0.97176  0.22308  0.21747  1.0000
  H   H1044     1.0  0.67203  0.21010  0.06385  1.0000
  H   H1045     1.0  0.51660  0.46268  0.14457  1.0000
  S   S179      1.0  0.81985  0.41712  0.99502  1.0000
  S   S180      1.0  0.97976  0.16394  0.15084  1.0000
  Fe  Fe92      1.0  0.57527  0.18770  0.00379  1.0000
  C   C612      1.0  0.83246  0.06650  0.23485  1.0000
  H   H1046     1.0  0.90441  0.22356  0.15915  1.0000
  Fe  Fe93      1.0  0.56175  0.45375  0.99486  1.0000
  C   C613      1.0  0.79490  0.08813  0.22126  1.0000
  H   H1047     1.0  0.64468  0.28969  0.00611  1.0000
  H   H1048     1.0  0.71851  0.16762  0.08810  1.0000
  H   H1049     1.0  0.72332  0.33189  0.00717  1.0000
  H   H1050     1.0  0.97554  0.01770  0.20496  1.0000
  H   H1051     1.0  0.51946  0.41625  0.08723  1.0000
  C   C614      1.0  0.68478  0.16091  0.04568  1.0000
  C   C615      1.0  0.86795  0.44992  0.09342  1.0000
  C   C616      1.0  0.71237  0.16788  0.05712  1.0000
  C   C617      1.0  0.81028  0.03736  0.21122  1.0000
  H   H1052     1.0  0.78567  0.01301  0.19098  1.0000
  H   H1053     1.0  0.76880  0.07352  0.20012  1.0000
  C   C618      1.0  0.53225  0.48272  0.07125  1.0000
  H   H1054     1.0  0.69498  0.47186  0.05598  1.0000
  C   C619      1.0  0.77946  0.00924  0.20397  1.0000
  H   H1055     1.0  0.95535  0.00981  0.23870  1.0000
  H   H1056     1.0  0.92346  0.48412  0.07011  1.0000
  C   C620      1.0  0.91588  0.46233  0.06180  1.0000
  C   C621      1.0  0.50581  0.38190  0.12838  1.0000
  H   H1057     1.0  0.86444  0.12499  0.22642  1.0000
  H   H1058     1.0  0.73108  0.23010  0.03377  1.0000
  C   C622      1.0  0.86611  0.09749  0.22659  1.0000
  H   H1059     1.0  0.70642  0.25131  0.04547  1.0000
  C   C623      1.0  0.73159  0.24870  0.04320  1.0000
  H   H1060     1.0  0.79089  0.10187  0.23195  1.0000
  H   H1061     1.0  0.76157  0.10905  0.21002  1.0000
  H   H1062     1.0  0.65083  0.14421  0.07754  1.0000
  H   H1063     1.0  0.89659  0.15340  0.10331  1.0000
  C   C624      1.0  0.65818  0.17000  0.08361  1.0000
  H   H1064     1.0  0.92062  0.47638  0.04980  1.0000
  H   H1065     1.0  0.72404  0.45910  0.06605  1.0000
  S   S181      1.0  0.68236  0.48474  0.13474  1.0000
  H   H1066     1.0  0.73712  0.38286  0.99242  1.0000
  H   H1067     1.0  0.81765  0.10910  0.21368  1.0000
  S   S182      1.0  0.88768  0.39775  0.99745  1.0000
  H   H1068     1.0  0.96269  0.01500  0.11407  1.0000
  H   H1069     1.0  0.64712  0.04842  0.99794  1.0000
  C   C625      1.0  0.98721  0.17222  0.19725  1.0000
  C   C626      1.0  0.51851  0.02602  0.99167  1.0000
  H   H1070     1.0  0.83966  0.04287  0.23784  1.0000
  H   H1071     1.0  0.75329  0.48665  0.04008  1.0000
  H   H1072     1.0  0.63574  0.34410  0.99897  1.0000
  H   H1073     1.0  0.67905  0.37637  0.99753  1.0000
  C   C627      1.0  0.87703  0.99693  0.23746  1.0000
  H   H1074     1.0  0.98898  0.15034  0.18976  1.0000
  H   H1075     1.0  0.75443  0.01192  0.20653  1.0000
  C   C628      1.0  0.50840  0.47312  0.09986  1.0000
  S   S183      1.0  0.55790  0.23009  0.99362  1.0000
  H   H1076     1.0  0.51480  0.47005  0.11192  1.0000
  H   H1077     1.0  0.49520  0.19754  0.05755  1.0000
  C   C629      1.0  0.98603  0.03896  0.11650  1.0000
  C   C630      1.0  0.77112  0.02733  0.23668  1.0000
  C   C631      1.0  0.99145  0.03625  0.13386  1.0000
  H   H1078     1.0  0.96523  0.02581  0.14054  1.0000
  H   H1079     1.0  0.50176  0.27156  0.07514  1.0000
  C   C632      1.0  0.49489  0.48699  0.99217  1.0000
  H   H1080     1.0  0.50349  0.32995  0.08866  1.0000
  H   H1081     1.0  0.50903  0.48484  0.00169  1.0000
  H   H1082     1.0  0.93757  0.49146  0.01462  1.0000
  C   C633      1.0  0.49737  0.40950  0.13514  1.0000
  H   H1083     1.0  0.98314  0.19244  0.18908  1.0000
  H   H1084     1.0  0.69370  0.24324  0.46240  1.0000
  H   H1085     1.0  0.65667  0.18748  0.45109  1.0000
  H   H1086     1.0  0.62447  0.15545  0.46557  1.0000
  H   H1087     1.0  0.66787  0.24162  0.43638  1.0000
  C   C634      1.0  0.54000  0.47832  0.41040  1.0000
  S   S184      1.0  0.55030  0.06967  0.47679  1.0000
  H   H1088     1.0  0.57613  0.21899  0.44881  1.0000
  H   H1089     1.0  0.67014  0.28701  0.43872  1.0000
  S   S185      1.0  0.81675  0.39006  0.47349  1.0000
  H   H1090     1.0  0.61141  0.16706  0.44780  1.0000
  S   S186      1.0  0.91588  0.45104  0.45897  1.0000
  C   C635      1.0  0.51966  0.02327  0.47818  1.0000
  C   C636      1.0  0.60289  0.26701  0.43210  1.0000
  H   H1091     1.0  0.69642  0.29027  0.46334  1.0000
  H   H1092     1.0  0.62763  0.28083  0.42421  1.0000
  H   H1093     1.0  0.64202  0.27837  0.47377  1.0000
  S   S187      1.0  0.62488  0.36804  0.46279  1.0000
  C   C637      1.0  0.68957  0.37555  0.46956  1.0000
  S   S188      1.0  0.53262  0.37276  0.47597  1.0000
  H   H1094     1.0  0.60754  0.21488  0.43458  1.0000
  C   C638      1.0  0.96332  0.43454  0.47389  1.0000
  H   H1095     1.0  0.98638  0.10787  0.28516  1.0000
  H   H1096     1.0  0.54315  0.45218  0.41330  1.0000
  H   H1097     1.0  0.87247  0.01550  0.27492  1.0000
  C   C639      1.0  0.62287  0.21004  0.46468  1.0000
  S   S189      1.0  0.53743  0.47192  0.48927  1.0000
  N   N46       1.0  0.62893  0.24440  0.45429  1.0000
  C   C640      1.0  0.62944  0.17866  0.45655  1.0000
  C   C641      1.0  0.69504  0.26825  0.45545  1.0000
  C   C642      1.0  0.67349  0.42739  0.47414  1.0000
  H   H1098     1.0  0.56951  0.26370  0.46441  1.0000
  H   H1099     1.0  0.63899  0.21692  0.47443  1.0000
  H   H1100     1.0  0.57751  0.23810  0.48046  1.0000
  C   C643      1.0  0.72080  0.39390  0.47578  1.0000
  H   H1101     1.0  0.68381  0.34840  0.46552  1.0000
  H   H1102     1.0  0.96094  0.01484  0.35054  1.0000
  H   H1103     1.0  0.59736  0.28793  0.43888  1.0000
  S   S190      1.0  0.96453  0.13921  0.25956  1.0000
  H   H1104     1.0  0.59566  0.19741  0.47047  1.0000
  H   H1105     1.0  0.72004  0.27882  0.44757  1.0000
  C   C644      1.0  0.49666  0.47175  0.48674  1.0000
  C   C645      1.0  0.66557  0.39205  0.46902  1.0000
  C   C646      1.0  0.60295  0.23431  0.44269  1.0000
  C   C647      1.0  0.72809  0.42886  0.48131  1.0000
  C   C648      1.0  0.89741  0.03554  0.27708  1.0000
  H   H1106     1.0  0.58205  0.25612  0.42448  1.0000
  C   C649      1.0  0.66501  0.26013  0.44540  1.0000
  S   S191      1.0  0.76584  0.45202  0.48988  1.0000
  C   C650      1.0  0.94511  0.09619  0.27090  1.0000
  C   C651      1.0  0.91284  0.06999  0.26805  1.0000
  Fe  Fe94      1.0  0.58480  0.37453  0.48041  1.0000
  H   H1107     1.0  0.63357  0.30050  0.45748  1.0000
  C   C652      1.0  0.94649  0.05356  0.29177  1.0000
  C   C653      1.0  0.96177  0.08783  0.28279  1.0000
  H   H1108     1.0  0.89977  0.07637  0.25890  1.0000
  Fe  Fe95      1.0  0.87142  0.42264  0.47830  1.0000
  H   H1109     1.0  0.95981  0.04743  0.30087  1.0000
  C   C654      1.0  0.58799  0.26432  0.47276  1.0000
  C   C655      1.0  0.54124  0.46135  0.44534  1.0000
  H   H1110     1.0  0.94312  0.00300  0.32419  1.0000
  C   C656      1.0  0.91430  0.02736  0.28897  1.0000
  C   C657      1.0  0.77539  0.99240  0.24325  1.0000
  C   C658      1.0  0.62486  0.27324  0.46441  1.0000
  H   H1111     1.0  0.65583  0.44094  0.47317  1.0000
  H   H1112     1.0  0.57620  0.43393  0.44886  1.0000
  H   H1113     1.0  0.94221  0.40854  0.47827  1.0000
  H   H1114     1.0  0.52721  0.43745  0.43877  1.0000
  H   H1115     1.0  0.51188  0.02523  0.45381  1.0000
  H   H1116     1.0  0.59412  0.47150  0.43393  1.0000
  H   H1117     1.0  0.59161  0.47986  0.45462  1.0000
  C   C659      1.0  0.70455  0.44566  0.48033  1.0000
  H   H1118     1.0  0.52811  0.45351  0.45763  1.0000
  H   H1119     1.0  0.91503  0.99713  0.35169  1.0000
  C   C660      1.0  0.95744  0.46004  0.46402  1.0000
  H   H1120     1.0  0.73907  0.38098  0.47640  1.0000
  C   C661      1.0  0.57814  0.46239  0.44555  1.0000
  H   H1121     1.0  0.55460  0.48961  0.39856  1.0000
  H   H1122     1.0  0.89387  0.01779  0.24410  1.0000
  H   H1123     1.0  0.76539  0.04140  0.24696  1.0000
  H   H1124     1.0  0.97073  0.41076  0.43349  1.0000
  H   H1125     1.0  0.82601  0.07617  0.24631  1.0000
  H   H1126     1.0  0.98793  0.00256  0.24826  1.0000
  H   H1127     1.0  0.79311  0.99887  0.25241  1.0000
  H   H1128     1.0  0.51254  0.47286  0.40940  1.0000
  H   H1129     1.0  0.71027  0.47284  0.48445  1.0000
  C   C662      1.0  0.50452  0.00827  0.46486  1.0000
  H   H1130     1.0  0.58930  0.28674  0.48044  1.0000
  H   H1131     1.0  0.66613  0.40537  0.57142  1.0000
  H   H1132     1.0  0.52005  0.20043  0.51367  1.0000
  S   S192      1.0  0.79450  0.38276  0.51202  1.0000
  Fe  Fe96      1.0  0.85062  0.41613  0.51353  1.0000
  H   H1133     1.0  0.87080  0.44790  0.56875  1.0000
  C   C663      1.0  0.66364  0.32526  0.55982  1.0000
  H   H1134     1.0  0.70620  0.31561  0.52474  1.0000
  Fe  Fe97      1.0  0.50807  0.31438  0.61474  1.0000
  Fe  Fe98      1.0  0.82852  0.46976  0.62880  1.0000
  H   H1135     1.0  0.76302  0.35789  0.58351  1.0000
  H   H1136     1.0  0.84380  0.35432  0.54059  1.0000
  C   C664      1.0  0.70087  0.31423  0.53768  1.0000
  H   H1137     1.0  0.71451  0.35943  0.62725  1.0000
  S   S193      1.0  0.52548  0.07753  0.52241  1.0000
  H   H1138     1.0  0.81292  0.35614  0.66601  1.0000
  N   N47       1.0  0.82493  0.32900  0.56439  1.0000
  Fe  Fe99      1.0  0.57435  0.11133  0.53236  1.0000
  S   S194      1.0  0.58933  0.09345  0.55470  1.0000
  H   H1139     1.0  0.65528  0.37210  0.60043  1.0000
  H   H1140     1.0  0.81017  0.29434  0.52784  1.0000
  S   S195      1.0  0.56376  0.32663  0.66509  1.0000
  S   S196      1.0  0.56310  0.33481  0.61981  1.0000
  C   C665      1.0  0.79633  0.34319  0.56644  1.0000
  C   C666      1.0  0.62313  0.44002  0.57452  1.0000
  Fe  Fe100     1.0  0.72052  0.21067  0.63038  1.0000
  S   S197      1.0  0.75299  0.25122  0.61023  1.0000
  S   S198      1.0  0.67999  0.22382  0.64433  1.0000
  Fe  Fe101     1.0  0.75465  0.15717  0.62454  1.0000
  S   S199      1.0  0.78973  0.19253  0.60364  1.0000
  S   S200      1.0  0.75490  0.10282  0.63359  1.0000
  Fe  Fe102     1.0  0.79671  0.23997  0.61840  1.0000
  S   S201      1.0  0.85026  0.28306  0.61904  1.0000
  Fe  Fe103     1.0  0.74271  0.20059  0.59721  1.0000
  S   S202      1.0  0.73314  0.20486  0.57203  1.0000
  S   S203      1.0  0.76527  0.20406  0.63999  1.0000
  S   S204      1.0  0.70671  0.16057  0.61685  1.0000
  H   H1141     1.0  0.58359  0.16258  0.56532  1.0000
  H   H1142     1.0  0.93975  0.08380  0.71723  1.0000
  H   H1143     1.0  0.65518  0.05311  0.61721  1.0000
  S   S205      1.0  0.90395  0.08938  0.67737  1.0000
  S   S206      1.0  0.91010  0.11944  0.63110  1.0000
  C   C667      1.0  0.52459  0.11648  0.59129  1.0000
  H   H1144     1.0  0.64992  0.29598  0.56471  1.0000
  Fe  Fe104     1.0  0.92799  0.04744  0.67833  1.0000
  H   H1145     1.0  0.51943  0.25909  0.50269  1.0000
  H   H1146     1.0  0.78468  0.27371  0.66187  1.0000
  H   H1147     1.0  0.52213  0.01212  0.50262  1.0000
  C   C668      1.0  0.79709  0.10407  0.63241  1.0000
  C   C669      1.0  0.80705  0.08784  0.64482  1.0000
  C   C670      1.0  0.84161  0.09147  0.64444  1.0000
  C   C671      1.0  0.86594  0.11066  0.63149  1.0000
  C   C672      1.0  0.85548  0.12531  0.61881  1.0000
  C   C673      1.0  0.82126  0.12242  0.61934  1.0000
  H   H1148     1.0  0.78830  0.07347  0.65492  1.0000
  H   H1149     1.0  0.84949  0.07987  0.65421  1.0000
  H   H1150     1.0  0.87418  0.13980  0.60871  1.0000
  H   H1151     1.0  0.81360  0.13422  0.60959  1.0000
  H   H1152     1.0  0.52054  0.20299  0.66724  1.0000
  C   C674      1.0  0.68762  0.36947  0.53673  1.0000
  C   C675      1.0  0.52262  0.36109  0.58148  1.0000
  C   C676      1.0  0.67067  0.25189  0.50147  1.0000
  H   H1153     1.0  0.82791  0.20695  0.65815  1.0000
  C   C677      1.0  0.86115  0.40030  0.62908  1.0000
  C   C678      1.0  0.88696  0.38763  0.63185  1.0000
  C   C679      1.0  0.88343  0.35182  0.62854  1.0000
  C   C680      1.0  0.85367  0.32798  0.62275  1.0000
  C   C681      1.0  0.82769  0.34046  0.61994  1.0000
  C   C682      1.0  0.83162  0.37682  0.62291  1.0000
  H   H1154     1.0  0.90991  0.40572  0.63654  1.0000
  H   H1155     1.0  0.90373  0.34252  0.63062  1.0000
  H   H1156     1.0  0.80474  0.32227  0.61542  1.0000
  H   H1157     1.0  0.81191  0.38662  0.62046  1.0000
  C   C683      1.0  0.62933  0.26758  0.60872  1.0000
  C   C684      1.0  0.62598  0.27477  0.62445  1.0000
  C   C685      1.0  0.64034  0.25999  0.63549  1.0000
  C   C686      1.0  0.65984  0.23978  0.63066  1.0000
  H   H1158     1.0  0.61218  0.29169  0.62817  1.0000
  H   H1159     1.0  0.63675  0.26480  0.64772  1.0000
  C   C687      1.0  0.60671  0.36077  0.66313  1.0000
  C   C688      1.0  0.61857  0.37848  0.67644  1.0000
  H   H1160     1.0  0.78476  0.27695  0.57506  1.0000
  C   C689      1.0  0.62920  0.37048  0.64893  1.0000
  H   H1161     1.0  0.60156  0.37115  0.68744  1.0000
  H   H1162     1.0  0.51380  0.27907  0.69400  1.0000
  H   H1163     1.0  0.62057  0.35656  0.63863  1.0000
  C   C690      1.0  0.62820  0.12670  0.55956  1.0000
  C   C691      1.0  0.65305  0.15159  0.54797  1.0000
  C   C692      1.0  0.68484  0.17646  0.55197  1.0000
  C   C693      1.0  0.69155  0.17711  0.56760  1.0000
  C   C694      1.0  0.66579  0.15381  0.57929  1.0000
  C   C695      1.0  0.63443  0.12818  0.57525  1.0000
  H   H1164     1.0  0.64833  0.15089  0.53585  1.0000
  H   H1165     1.0  0.70454  0.19458  0.54285  1.0000
  H   H1166     1.0  0.67025  0.15483  0.59139  1.0000
  H   H1167     1.0  0.61499  0.10945  0.58428  1.0000
  C   C696      1.0  0.56770  0.37363  0.55361  1.0000
  C   C697      1.0  0.56995  0.35202  0.56633  1.0000
  H   H1168     1.0  0.62044  0.36550  0.58881  1.0000
  H   H1169     1.0  0.58889  0.33976  0.56547  1.0000
  H   H1170     1.0  0.64475  0.33812  0.56282  1.0000
  H   H1171     1.0  0.82166  0.24110  0.57683  1.0000
  C   C698      1.0  0.84206  0.44367  0.54906  1.0000
  C   C699      1.0  0.81232  0.44551  0.54392  1.0000
  H   H1172     1.0  0.52456  0.25309  0.53974  1.0000
  H   H1173     1.0  0.91303  0.02170  0.73020  1.0000
  H   H1174     1.0  0.53966  0.14793  0.63441  1.0000
  H   H1175     1.0  0.89739  0.34349  0.55683  1.0000
  H   H1176     1.0  0.87184  0.25886  0.64698  1.0000
  H   H1177     1.0  0.87336  0.19054  0.66950  1.0000
  Fe  Fe105     1.0  0.57166  0.38019  0.51531  1.0000
  H   H1178     1.0  0.71275  0.38486  0.54117  1.0000
  C   C700      1.0  0.89594  0.25887  0.65115  1.0000
  H   H1179     1.0  0.76273  0.13937  0.56142  1.0000
  S   S207      1.0  0.77427  0.43561  0.62448  1.0000
  H   H1180     1.0  0.71949  0.08576  0.55528  1.0000
  S   S208      1.0  0.59753  0.38217  0.53686  1.0000
  H   H1181     1.0  0.73830  0.01088  0.59540  1.0000
  C   C701      1.0  0.55013  0.14828  0.62198  1.0000
  H   H1182     1.0  0.68364  0.33751  0.58214  1.0000
  C   C702      1.0  0.64135  0.30937  0.53430  1.0000
  C   C703      1.0  0.61427  0.27198  0.54221  1.0000
  H   H1183     1.0  0.62663  0.32733  0.53321  1.0000
  H   H1184     1.0  0.64885  0.30463  0.52205  1.0000
  H   H1185     1.0  0.59437  0.25992  0.53423  1.0000
  H   H1186     1.0  0.60040  0.27580  0.55326  1.0000
  H   H1187     1.0  0.62547  0.25139  0.54441  1.0000
  C   C704      1.0  0.74376  0.04044  0.59207  1.0000
  H   H1188     1.0  0.62776  0.39575  0.60435  1.0000
  C   C705      1.0  0.54740  0.34563  0.58013  1.0000
  H   H1189     1.0  0.69287  0.10683  0.56412  1.0000
  C   C706      1.0  0.93581  0.22571  0.65065  1.0000
  H   H1190     1.0  0.92617  0.18013  0.66865  1.0000
  N   N48       1.0  0.90038  0.22360  0.64757  1.0000
  C   C707      1.0  0.89778  0.21904  0.63033  1.0000
  S   S209      1.0  0.86674  0.44517  0.63399  1.0000
  S   S210      1.0  0.62554  0.23846  0.50398  1.0000
  H   H1191     1.0  0.89881  0.19213  0.62739  1.0000
  H   H1192     1.0  0.87265  0.21836  0.62718  1.0000
  H   H1193     1.0  0.91763  0.47146  0.50973  1.0000
  C   C708      1.0  0.82880  0.26463  0.56784  1.0000
  S   S211      1.0  0.97939  0.14651  0.65795  1.0000
  H   H1194     1.0  0.81785  0.25250  0.55720  1.0000
  H   H1195     1.0  0.60203  0.41995  0.58321  1.0000
  H   H1196     1.0  0.80713  0.37715  0.58670  1.0000
  C   C709      1.0  0.85661  0.35739  0.57000  1.0000
  H   H1197     1.0  0.76523  0.28809  0.67808  1.0000
  H   H1198     1.0  0.66960  0.38229  0.54138  1.0000
  H   H1199     1.0  0.86374  0.38489  0.56351  1.0000
  H   H1200     1.0  0.85149  0.36127  0.58261  1.0000
  H   H1201     1.0  0.75744  0.33776  0.68456  1.0000
  H   H1202     1.0  0.68421  0.03153  0.61183  1.0000
  H   H1203     1.0  0.91126  0.37388  0.57181  1.0000
  H   H1204     1.0  0.67891  0.21768  0.61095  1.0000
  H   H1205     1.0  0.57745  0.20587  0.56610  1.0000
  H   H1206     1.0  0.80304  0.36881  0.55850  1.0000
  Fe  Fe106     1.0  0.54107  0.30403  0.64329  1.0000
  C   C710      1.0  0.66443  0.23384  0.61477  1.0000
  C   C711      1.0  0.54275  0.38899  0.55469  1.0000
  C   C712      1.0  0.75619  0.30624  0.65464  1.0000
  C   C713      1.0  0.69338  0.27386  0.54355  1.0000
  H   H1207     1.0  0.71832  0.27103  0.54446  1.0000
  H   H1208     1.0  0.92002  0.27289  0.67277  1.0000
  C   C714      1.0  0.95874  0.45523  0.51485  1.0000
  H   H1209     1.0  0.70511  0.40979  0.51633  1.0000
  H   H1210     1.0  0.91740  0.28344  0.64463  1.0000
  H   H1211     1.0  0.66670  0.02233  0.56107  1.0000
  C   C715      1.0  0.80094  0.30265  0.53904  1.0000
  C   C716      1.0  0.64924  0.24783  0.60377  1.0000
  H   H1212     1.0  0.54136  0.40629  0.54489  1.0000
  H   H1213     1.0  0.78917  0.14746  0.57685  1.0000
  S   S212      1.0  0.94895  0.05719  0.65278  1.0000
  C   C717      1.0  0.52891  0.16083  0.61119  1.0000
  C   C718      1.0  0.79387  0.45753  0.57007  1.0000
  H   H1214     1.0  0.77126  0.05283  0.58660  1.0000
  C   C719      1.0  0.87222  0.18987  0.65668  1.0000
  C   C720      1.0  0.83454  0.18353  0.65453  1.0000
  C   C721      1.0  0.88944  0.34905  0.56880  1.0000
  H   H1215     1.0  0.92302  0.27638  0.61910  1.0000
  H   H1216     1.0  0.80813  0.44236  0.53178  1.0000
  C   C722      1.0  0.69452  0.37913  0.51875  1.0000
  H   H1217     1.0  0.67048  0.36808  0.51306  1.0000
  N   N49       1.0  0.53620  0.15724  0.59388  1.0000
  H   H1218     1.0  0.71413  0.36991  0.51296  1.0000
  C   C723      1.0  0.58818  0.18749  0.57166  1.0000
  H   H1219     1.0  0.64122  0.04954  0.56601  1.0000
  H   H1220     1.0  0.94248  0.42676  0.51209  1.0000
  N   N50       1.0  0.67324  0.32864  0.54227  1.0000
  H   H1221     1.0  0.65197  0.24220  0.59160  1.0000
  H   H1222     1.0  0.88640  0.32614  0.57758  1.0000
  H   H1223     1.0  0.58430  0.20409  0.59472  1.0000
  H   H1224     1.0  0.67886  0.26510  0.55545  1.0000
  C   C724      1.0  0.49623  0.19472  0.67549  1.0000
  H   H1225     1.0  0.54938  0.32847  0.58965  1.0000
  H   H1226     1.0  0.73828  0.25129  0.66752  1.0000
  H   H1227     1.0  0.87947  0.06093  0.72801  1.0000
  S   S213      1.0  0.95654  0.16889  0.70125  1.0000
  H   H1228     1.0  0.85738  0.27677  0.56542  1.0000
  H   H1229     1.0  0.85265  0.31499  0.54452  1.0000
  H   H1230     1.0  0.87357  0.24495  0.67612  1.0000
  S   S214      1.0  0.60460  0.27895  0.59596  1.0000
  H   H1231     1.0  0.72646  0.33258  0.54099  1.0000
  Fe  Fe107     1.0  0.92962  0.10299  0.65237  1.0000
  C   C725      1.0  0.51023  0.00108  0.49237  1.0000
  H   H1232     1.0  0.88980  0.29293  0.66945  1.0000
  C   C726      1.0  0.65496  0.46838  0.59612  1.0000
  S   S215      1.0  0.97713  0.08638  0.68607  1.0000
  H   H1233     1.0  0.50260  0.19096  0.68745  1.0000
  H   H1234     1.0  0.71257  0.32859  0.56793  1.0000
  H   H1235     1.0  0.67940  0.25423  0.53522  1.0000
  C   C727      1.0  0.89480  0.26729  0.66845  1.0000
  H   H1236     1.0  0.50095  0.39472  0.56961  1.0000
  C   C728      1.0  0.69409  0.34229  0.56947  1.0000
  Fe  Fe108     1.0  0.59249  0.17777  0.50945  1.0000
  C   C729      1.0  0.67568  0.06426  0.59252  1.0000
  C   C730      1.0  0.84777  0.44904  0.56469  1.0000
  H   H1237     1.0  0.66567  0.08657  0.59195  1.0000
  H   H1238     1.0  0.70800  0.37269  0.56676  1.0000
  H   H1239     1.0  0.73375  0.04352  0.56830  1.0000
  H   H1240     1.0  0.96691  0.21825  0.66821  1.0000
  C   C731      1.0  0.94899  0.09296  0.72864  1.0000
  C   C732      1.0  0.52709  0.27983  0.54440  1.0000
  Fe  Fe109     1.0  0.56010  0.28028  0.61209  1.0000
  C   C733      1.0  0.57487  0.17749  0.58925  1.0000
  H   H1241     1.0  0.76547  0.45418  0.55034  1.0000
  S   S216      1.0  0.60772  0.12905  0.50893  1.0000
  S   S217      1.0  0.54200  0.25023  0.63614  1.0000
  C   C734      1.0  0.51732  0.17605  0.58521  1.0000
  H   H1242     1.0  0.81661  0.15844  0.66211  1.0000
  H   H1243     1.0  0.68050  0.40554  0.63722  1.0000
  C   C735      1.0  0.49526  0.23618  0.50669  1.0000
  C   C736      1.0  0.66569  0.05003  0.55963  1.0000
  H   H1244     1.0  0.54842  0.11993  0.62000  1.0000
  H   H1245     1.0  0.74068  0.28931  0.64594  1.0000
  H   H1246     1.0  0.92846  0.22231  0.67687  1.0000
  H   H1247     1.0  0.78577  0.31903  0.53605  1.0000
  H   H1248     1.0  0.60935  0.48726  0.58037  1.0000
  H   H1249     1.0  0.53255  0.27955  0.55671  1.0000
  C   C737      1.0  0.72825  0.30076  0.49494  1.0000
  H   H1250     1.0  0.73150  0.37942  0.65316  1.0000
  H   H1251     1.0  0.80447  0.39363  0.65686  1.0000
  C   C738      1.0  0.78669  0.35188  0.58318  1.0000
  C   C739      1.0  0.78819  0.45231  0.55442  1.0000
  H   H1252     1.0  0.50356  0.25190  0.67259  1.0000
  C   C740      1.0  0.79952  0.37528  0.66776  1.0000
  H   H1253     1.0  0.75052  0.37587  0.67661  1.0000
  C   C741      1.0  0.64072  0.38624  0.59470  1.0000
  H   H1254     1.0  0.99355  0.09426  0.74061  1.0000
  H   H1255     1.0  0.76321  0.36959  0.64130  1.0000
  S   S218      1.0  0.87118  0.43246  0.53639  1.0000
  H   H1256     1.0  0.86089  0.10959  0.73456  1.0000
  H   H1257     1.0  0.71519  0.31502  0.63148  1.0000
  H   H1258     1.0  0.65588  0.30645  0.68170  1.0000
  C   C742      1.0  0.73749  0.35622  0.64850  1.0000
  C   C743      1.0  0.76037  0.35429  0.67330  1.0000
  H   H1259     1.0  0.81178  0.39345  0.67689  1.0000
  C   C744      1.0  0.83253  0.32626  0.54705  1.0000
  H   H1260     1.0  0.87614  0.16440  0.65359  1.0000
  H   H1261     1.0  0.72483  0.13153  0.58543  1.0000
  C   C745      1.0  0.98435  0.09006  0.72894  1.0000
  H   H1262     1.0  0.92278  0.24122  0.60666  1.0000
  C   C746      1.0  0.66321  0.39815  0.64813  1.0000
  Fe  Fe110     1.0  0.51698  0.13035  0.52120  1.0000
  C   C747      1.0  0.71127  0.33835  0.63695  1.0000
  H   H1263     1.0  0.68837  0.28713  0.66161  1.0000
  N   N51       1.0  0.70746  0.07391  0.58064  1.0000
  C   C748      1.0  0.68426  0.47284  0.60621  1.0000
  H   H1264     1.0  0.95264  0.25338  0.62078  1.0000
  S   S219      1.0  0.56238  0.16200  0.53337  1.0000
  H   H1265     1.0  0.94505  0.20920  0.64243  1.0000
  N   N52       1.0  0.73937  0.33067  0.66159  1.0000
  C   C749      1.0  0.92597  0.24954  0.61879  1.0000
  H   H1266     1.0  0.78338  0.27702  0.54634  1.0000
  C   C750      1.0  0.73538  0.10970  0.58422  1.0000
  S   S220      1.0  0.76379  0.46652  0.58306  1.0000
  C   C751      1.0  0.70382  0.30636  0.66972  1.0000
  H   H1267     1.0  0.78155  0.32271  0.64749  1.0000
  H   H1268     1.0  0.68419  0.32917  0.64263  1.0000
  H   H1269     1.0  0.90635  0.13199  0.72898  1.0000
  H   H1270     1.0  0.81920  0.29642  0.58628  1.0000
  C   C752      1.0  0.76109  0.27828  0.66630  1.0000
  H   H1271     1.0  0.70561  0.28790  0.67945  1.0000
  C   C753      1.0  0.65217  0.40592  0.67564  1.0000
  H   H1272     1.0  0.95556  0.25472  0.64833  1.0000
  H   H1273     1.0  0.82781  0.45889  0.58732  1.0000
  H   H1274     1.0  0.66456  0.05601  0.54699  1.0000
  H   H1275     1.0  0.95562  0.45484  0.52780  1.0000
  C   C754      1.0  0.67976  0.05728  0.60978  1.0000
  S   S221      1.0  0.87016  0.38234  0.49787  1.0000
  H   H1276     1.0  0.55031  0.30145  0.53740  1.0000
  C   C755      1.0  0.68217  0.32703  0.67691  1.0000
  H   H1277     1.0  0.95432  0.12275  0.72793  1.0000
  H   H1278     1.0  0.58929  0.16162  0.59385  1.0000
  H   H1279     1.0  0.82888  0.17786  0.64238  1.0000
  H   H1280     1.0  0.69378  0.34273  0.68676  1.0000
  H   H1281     1.0  0.78092  0.32809  0.59191  1.0000
  C   C756      1.0  0.88636  0.11229  0.73803  1.0000
  S   S222      1.0  0.71672  0.45038  0.66177  1.0000
  H   H1282     1.0  0.70016  0.44697  0.55231  1.0000
  H   H1283     1.0  0.69654  0.01513  0.58142  1.0000
  H   H1284     1.0  0.67853  0.34602  0.66811  1.0000
  C   C757      1.0  0.66595  0.41804  0.58273  1.0000
  C   C758      1.0  0.67463  0.41600  0.66155  1.0000
  H   H1285     1.0  0.53375  0.19019  0.61330  1.0000
  Fe  Fe111     1.0  0.95542  0.12942  0.68295  1.0000
  H   H1286     1.0  0.97449  0.19917  0.73045  1.0000
  H   H1287     1.0  0.77184  0.32261  0.56302  1.0000
  H   H1288     1.0  0.50305  0.31895  0.54416  1.0000
  H   H1289     1.0  0.52013  0.17293  0.57242  1.0000
  C   C759      1.0  0.52021  0.38281  0.56870  1.0000
  H   H1290     1.0  0.66080  0.41940  0.68607  1.0000
  C   C760      1.0  0.81342  0.29217  0.57397  1.0000
  H   H1291     1.0  0.74128  0.05297  0.60316  1.0000
  N   N53       1.0  0.65750  0.45174  0.58075  1.0000
  C   C761      1.0  0.82353  0.45557  0.57521  1.0000
  C   C762      1.0  0.76790  0.12570  0.57186  1.0000
  C   C763      1.0  0.88753  0.07362  0.73910  1.0000
  H   H1292     1.0  0.77746  0.10435  0.56816  1.0000
  H   H1293     1.0  0.65428  0.03851  0.58993  1.0000
  S   S223      1.0  0.50652  0.26131  0.60546  1.0000
  C   C764      1.0  0.69097  0.46982  0.55263  1.0000
  C   C765      1.0  0.71931  0.04225  0.58006  1.0000
  C   C766      1.0  0.72176  0.23827  0.50271  1.0000
  H   H1294     1.0  0.70022  0.08113  0.61405  1.0000
  C   C767      1.0  0.69773  0.08097  0.56473  1.0000
  H   H1295     1.0  0.62322  0.42475  0.56396  1.0000
  H   H1296     1.0  0.54527  0.10641  0.59328  1.0000
  S   S224      1.0  0.51823  0.37829  0.51427  1.0000
  H   H1297     1.0  0.61679  0.20307  0.57028  1.0000
  H   H1298     1.0  0.53313  0.12052  0.56523  1.0000
  H   H1299     1.0  0.74446  0.10733  0.59569  1.0000
  C   C768      1.0  0.51343  0.10467  0.57512  1.0000
  H   H1300     1.0  0.69274  0.42547  0.58564  1.0000
  C   C769      1.0  0.49555  0.20258  0.51271  1.0000
  Fe  Fe112     1.0  0.75887  0.47047  0.64110  1.0000
  H   H1301     1.0  0.50109  0.14446  0.61572  1.0000
  H   H1302     1.0  0.66732  0.46259  0.54673  1.0000
  H   H1303     1.0  0.52911  0.20660  0.58619  1.0000
  C   C770      1.0  0.50374  0.25619  0.70343  1.0000
  S   S225      1.0  0.56414  0.33208  0.50105  1.0000
  H   H1304     1.0  0.52209  0.24222  0.70363  1.0000
  H   H1305     1.0  0.73325  0.21867  0.50516  1.0000
  C   C771      1.0  0.61157  0.47150  0.57020  1.0000
  C   C772      1.0  0.93906  0.21090  0.66708  1.0000
  H   H1306     1.0  0.62983  0.45225  0.60355  1.0000
  H   H1307     1.0  0.96156  0.99207  0.72442  1.0000
  H   H1308     1.0  0.57775  0.16807  0.62052  1.0000
  Fe  Fe113     1.0  0.78348  0.48161  0.60617  1.0000
  H   H1309     1.0  0.68404  0.44572  0.61049  1.0000
  H   H1310     1.0  0.71009  0.49022  0.59978  1.0000
  H   H1311     1.0  0.66920  0.19789  0.50830  1.0000
  Fe  Fe114     1.0  0.51272  0.33361  0.49793  1.0000
  C   C773      1.0  0.68552  0.22647  0.50444  1.0000
  C   C774      1.0  0.94628  0.48259  0.50680  1.0000
  H   H1312     1.0  0.58539  0.45913  0.56637  1.0000
  H   H1313     1.0  0.68077  0.30880  0.49428  1.0000
  H   H1314     1.0  0.50472  0.26941  0.71465  1.0000
  C   C775      1.0  0.49513  0.28898  0.54243  1.0000
  H   H1315     1.0  0.50937  0.07510  0.57437  1.0000
  S   S226      1.0  0.54580  0.15061  0.49721  1.0000
  H   H1316     1.0  0.50203  0.09916  0.60003  1.0000
  Fe  Fe115     1.0  0.55756  0.09972  0.49893  1.0000
  C   C776      1.0  0.68596  0.48065  0.56950  1.0000
  H   H1317     1.0  0.98308  0.06295  0.72521  1.0000
  S   S227      1.0  0.59661  0.42273  0.49508  1.0000
  C   C777      1.0  0.69208  0.28897  0.49662  1.0000
  S   S228      1.0  0.78840  0.29044  0.49648  1.0000
  C   C778      1.0  0.74315  0.27548  0.49805  1.0000
  H   H1318     1.0  0.62897  0.49061  0.56022  1.0000
  H   H1319     1.0  0.98573  0.46029  0.51007  1.0000
  S   S229      1.0  0.90729  0.99224  0.69252  1.0000
  Fe  Fe116     1.0  0.81415  0.35264  0.49448  1.0000
  H   H1320     1.0  0.95101  0.48026  0.49407  1.0000
  S   S230      1.0  0.85652  0.45898  0.49437  1.0000
  H   H1321     1.0  0.68055  0.48693  0.61677  1.0000
  H   H1322     1.0  0.71142  0.48821  0.57394  1.0000
  Fe  Fe117     1.0  0.54254  0.41738  0.49265  1.0000
  H   H1323     1.0  0.99359  0.00297  0.67590  1.0000
  H   H1324     1.0  0.74463  0.32946  0.49126  1.0000
  Fe  Fe118     1.0  0.80181  0.42294  0.49139  1.0000
  H   H1325     1.0  0.58818  0.08075  0.94534  1.0000
  H   H1326     1.0  0.61969  0.29365  0.98167  1.0000
  C   C779      1.0  0.84037  0.42622  0.94975  1.0000
  H   H1327     1.0  0.93532  0.38515  0.96178  1.0000
  H   H1328     1.0  0.62826  0.09536  0.98815  1.0000
  C   C780      1.0  0.77885  0.28706  0.97982  1.0000
  H   H1329     1.0  0.72119  0.32283  0.97724  1.0000
  S   S231      1.0  0.81531  0.32929  0.97594  1.0000
  H   H1330     1.0  0.63539  0.25580  0.96131  1.0000
  H   H1331     1.0  0.88240  0.41928  0.92480  1.0000
  H   H1332     1.0  0.87890  0.38724  0.96449  1.0000
  C   C781      1.0  0.90701  0.43782  0.92888  1.0000
  H   H1333     1.0  0.87645  0.44530  0.96647  1.0000
  H   H1334     1.0  0.67893  0.27323  0.96618  1.0000
  H   H1335     1.0  0.95991  0.43725  0.92474  1.0000
  H   H1336     1.0  0.59063  0.06221  0.98242  1.0000
  H   H1337     1.0  0.90939  0.46613  0.92483  1.0000
  H   H1338     1.0  0.83829  0.42968  0.93709  1.0000
  C   C782      1.0  0.93814  0.45479  0.95261  1.0000
  H   H1339     1.0  0.62751  0.36440  0.97390  1.0000
  C   C783      1.0  0.94227  0.05375  0.79415  1.0000
  C   C784      1.0  0.58484  0.01524  0.96006  1.0000
  H   H1340     1.0  0.65029  0.11172  0.94528  1.0000
  H   H1341     1.0  0.92347  0.06173  0.80082  1.0000
  H   H1342     1.0  0.70551  0.12304  0.94760  1.0000
  S   S232      1.0  0.98835  0.12630  0.79384  1.0000
  H   H1343     1.0  0.94042  0.02814  0.74521  1.0000
  H   H1344     1.0  0.98542  0.00821  0.80784  1.0000
  H   H1345     1.0  0.93525  0.37956  0.94094  1.0000
  C   C785      1.0  0.91882  0.37492  0.95231  1.0000
  S   S233      1.0  0.52878  0.45010  0.97544  1.0000
  C   C786      1.0  0.97647  0.07974  0.79008  1.0000
  C   C787      1.0  0.70066  0.09465  0.95255  1.0000
  H   H1346     1.0  0.64711  0.31848  0.96445  1.0000
  N   N54       1.0  0.67252  0.32694  0.98555  1.0000
  C   C788      1.0  0.63488  0.10591  0.95707  1.0000
  H   H1347     1.0  0.90822  0.07589  0.76679  1.0000
  C   C789      1.0  0.89167  0.39215  0.95216  1.0000
  H   H1348     1.0  0.82353  0.43837  0.95608  1.0000
  H   H1349     1.0  0.87130  0.37468  0.94525  1.0000
  H   H1350     1.0  0.67335  0.38610  0.96689  1.0000
  H   H1351     1.0  0.94357  0.13542  0.77008  1.0000
  H   H1352     1.0  0.57972  0.09548  0.96455  1.0000
  C   C790      1.0  0.61849  0.06876  0.98251  1.0000
  H   H1353     1.0  0.72615  0.09543  0.95520  1.0000
  H   H1354     1.0  0.79104  0.26799  0.95778  1.0000
  S   S234      1.0  0.68728  0.17445  0.98743  1.0000
  C   C791      1.0  0.93582  0.42977  0.91925  1.0000
  C   C792      1.0  0.74483  0.22732  0.97101  1.0000
  H   H1355     1.0  0.74113  0.20750  0.96228  1.0000
  H   H1356     1.0  0.56836  0.03035  0.96342  1.0000
  H   H1357     1.0  0.93435  0.45246  0.96570  1.0000
  C   C793      1.0  0.64662  0.30270  0.97558  1.0000
  H   H1358     1.0  0.95820  0.44375  0.94952  1.0000
  C   C794      1.0  0.87788  0.44682  0.95345  1.0000
  H   H1359     1.0  0.88542  0.01358  0.76560  1.0000
  C   C795      1.0  0.62444  0.03885  0.95761  1.0000
  N   N55       1.0  0.90440  0.43276  0.94650  1.0000
  H   H1360     1.0  0.65449  0.40606  0.98159  1.0000
  H   H1361     1.0  0.97944  0.13543  0.75759  1.0000
  H   H1362     1.0  0.92634  0.40014  0.91676  1.0000
  H   H1363     1.0  0.90499  0.34441  0.95505  1.0000
  C   C796      1.0  0.73400  0.38092  0.97985  1.0000
  C   C797      1.0  0.65162  0.26749  0.97073  1.0000
  H   H1364     1.0  0.57675  0.00320  0.94892  1.0000
  H   H1365     1.0  0.60023  0.12857  0.94818  1.0000
  H   H1366     1.0  0.94570  0.14554  0.74965  1.0000
  H   H1367     1.0  0.70648  0.34545  0.96331  1.0000
  C   C798      1.0  0.59843  0.10178  0.95378  1.0000
  C   C799      1.0  0.70821  0.34252  0.97610  1.0000
  C   C800      1.0  0.77313  0.26156  0.96848  1.0000
  C   C801      1.0  0.93209  0.01794  0.78896  1.0000
  H   H1368     1.0  0.63260  0.04577  0.94475  1.0000
  H   H1369     1.0  0.82949  0.39634  0.95391  1.0000
  H   H1370     1.0  0.94901  0.07307  0.76186  1.0000
  H   H1371     1.0  0.75999  0.38650  0.97343  1.0000
  N   N56       1.0  0.63740  0.07359  0.96618  1.0000
  H   H1372     1.0  0.64610  0.13166  0.96319  1.0000
  H   H1373     1.0  0.69176  0.07454  0.94365  1.0000
  C   C802      1.0  0.93143  0.08543  0.75775  1.0000
  C   C803      1.0  0.88635  0.00386  0.75372  1.0000
  H   H1374     1.0  0.88528  0.47654  0.94956  1.0000
  C   C804      1.0  0.95101  0.12779  0.75837  1.0000
  H   H1375     1.0  0.94380  0.44718  0.90788  1.0000
  C   C805      1.0  0.95598  0.00874  0.77941  1.0000
  C   C806      1.0  0.99031  0.03432  0.77591  1.0000
  H   H1376     1.0  0.63663  0.01973  0.96127  1.0000
  C   C807      1.0  0.67521  0.08362  0.96790  1.0000
  C   C808      1.0  0.65373  0.37942  0.97738  1.0000
  H   H1377     1.0  0.64240  0.24551  0.98063  1.0000
  H   H1378     1.0  0.88800  0.12391  0.74960  1.0000
  H   H1379     1.0  0.99038  0.02149  0.82707  1.0000
  C   C809      1.0  0.51126  0.04778  0.98047  1.0000
  H   H1380     1.0  0.51745  0.07682  0.98192  1.0000
  H   H1381     1.0  0.72659  0.40364  0.97583  1.0000
  H   H1382     1.0  0.67883  0.06005  0.97394  1.0000
  H   H1383     1.0  0.68477  0.10697  0.97548  1.0000
  C   C810      1.0  0.72138  0.21860  0.98473  1.0000
  H   H1384     1.0  0.86644  0.05729  0.74862  1.0000
  H   H1385     1.0  0.86111  0.99760  0.74923  1.0000
  H   H1386     1.0  0.90552  0.99816  0.79179  1.0000
  H   H1387     1.0  0.61537  0.01207  0.98865  1.0000
  H   H1388     1.0  0.54463  0.29560  0.98856  1.0000
  C   C811      1.0  0.49876  0.47100  0.97824  1.0000
  S   S235      1.0  0.59034  0.14912  0.98905  1.0000
  C   C812      1.0  0.49479  0.03159  0.96764  1.0000
  C   C813      1.0  0.66037  0.35654  0.99072  1.0000
  C   C814      1.0  0.91676  0.03159  0.74214  1.0000
  N   N57       1.0  0.92148  0.07179  0.74207  1.0000
  Fe  Fe119     1.0  0.90969  0.75453  0.15336  1.0000
  S   S236      1.0  0.88075  0.74774  0.17746  1.0000
  S   S237      1.0  0.89026  0.71649  0.13423  1.0000
  Fe  Fe120     1.0  0.93365  0.77254  0.18523  1.0000
  C   C815      1.0  0.83330  0.94301  0.22034  1.0000
  Fe  Fe121     1.0  0.88807  0.80676  0.17226  1.0000
  S   S238      1.0  0.84834  0.82943  0.17957  1.0000
  S   S239      1.0  0.94505  0.75536  0.20848  1.0000
  S   S240      1.0  0.69960  0.60074  0.08169  1.0000
  S   S241      1.0  0.91369  0.81247  0.14769  1.0000
  S   S242      1.0  0.75550  0.56724  0.14924  1.0000
  S   S243      1.0  0.73728  0.53964  0.10513  1.0000
  H   H1389     1.0  0.77233  0.61756  0.03521  1.0000
  H   H1390     1.0  0.86524  0.72736  0.21688  1.0000
  H   H1391     1.0  0.82877  0.73234  0.22745  1.0000
  C   C816      1.0  0.61887  0.55872  0.04795  1.0000
  C   C817      1.0  0.71545  0.52872  0.03408  1.0000
  H   H1392     1.0  0.59395  0.50772  0.08406  1.0000
  H   H1393     1.0  0.90249  0.79437  0.21867  1.0000
  C   C818      1.0  0.51281  0.50826  0.06843  1.0000
  H   H1394     1.0  0.96374  0.94233  0.19976  1.0000
  H   H1395     1.0  0.57579  0.49994  0.10404  1.0000
  C   C819      1.0  0.95249  0.52155  0.99175  1.0000
  C   C820      1.0  0.86016  0.97466  0.21254  1.0000
  S   S244      1.0  0.58687  0.54273  0.03542  1.0000
  C   C821      1.0  0.95847  0.51184  0.00667  1.0000
  H   H1396     1.0  0.91437  0.93134  0.23012  1.0000
  C   C822      1.0  0.66842  0.58437  0.06881  1.0000
  C   C823      1.0  0.65617  0.60870  0.06171  1.0000
  C   C824      1.0  0.63102  0.59574  0.05148  1.0000
  H   H1397     1.0  0.66573  0.63743  0.06432  1.0000
  H   H1398     1.0  0.62117  0.61450  0.04622  1.0000
  C   C825      1.0  0.93681  0.95141  0.22209  1.0000
  C   C826      1.0  0.88101  0.90961  0.14362  1.0000
  C   C827      1.0  0.87006  0.87522  0.15237  1.0000
  C   C828      1.0  0.86138  0.87236  0.16865  1.0000
  C   C829      1.0  0.86445  0.90414  0.17623  1.0000
  C   C830      1.0  0.87626  0.93869  0.16752  1.0000
  H   H1399     1.0  0.88713  0.91158  0.13100  1.0000
  H   H1400     1.0  0.86775  0.85082  0.14645  1.0000
  H   H1401     1.0  0.85825  0.90224  0.18883  1.0000
  S   S245      1.0  0.96253  0.77402  0.16157  1.0000
  C   C831      1.0  0.85362  0.67428  0.13858  1.0000
  C   C832      1.0  0.83628  0.65631  0.12625  1.0000
  C   C833      1.0  0.80605  0.62352  0.12936  1.0000
  C   C834      1.0  0.79343  0.60810  0.14482  1.0000
  C   C835      1.0  0.81107  0.62577  0.15712  1.0000
  C   C836      1.0  0.84090  0.65895  0.15404  1.0000
  H   H1402     1.0  0.84606  0.66802  0.11427  1.0000
  H   H1403     1.0  0.79267  0.61006  0.11982  1.0000
  H   H1404     1.0  0.80150  0.61384  0.16909  1.0000
  H   H1405     1.0  0.85426  0.67234  0.16359  1.0000
  C   C837      1.0  0.88382  0.94134  0.15118  1.0000
  C   C838      1.0  0.71295  0.55394  0.02045  1.0000
  H   H1406     1.0  0.59750  0.56469  0.09482  1.0000
  C   C839      1.0  0.56812  0.60786  0.00319  1.0000
  H   H1407     1.0  0.76999  0.62700  0.05499  1.0000
  C   C840      1.0  0.89534  0.83686  0.24050  1.0000
  H   H1408     1.0  0.66584  0.52855  0.07060  1.0000
  H   H1409     1.0  0.92799  0.90178  0.20925  1.0000
  Fe  Fe122     1.0  0.96359  0.83149  0.15812  1.0000
  S   S246      1.0  0.65306  0.49938  0.10217  1.0000
  H   H1410     1.0  0.57344  0.55637  0.07861  1.0000
  C   C841      1.0  0.97514  0.93308  0.23763  1.0000
  H   H1411     1.0  0.77622  0.98032  0.20726  1.0000
  C   C842      1.0  0.81595  0.56644  0.03233  1.0000
  H   H1412     1.0  0.91555  0.85302  0.23060  1.0000
  H   H1413     1.0  0.97957  0.93140  0.11844  1.0000
  H   H1414     1.0  0.54359  0.61151  0.00644  1.0000
  H   H1415     1.0  0.56030  0.74275  0.23823  1.0000
  H   H1416     1.0  0.92851  0.97425  0.21941  1.0000
  H   H1417     1.0  0.57235  0.59336  0.01364  1.0000
  H   H1418     1.0  0.87606  0.83642  0.21135  1.0000
  H   H1419     1.0  0.96224  0.96427  0.13813  1.0000
  H   H1420     1.0  0.50352  0.49882  0.09964  1.0000
  H   H1421     1.0  0.73049  0.60793  0.04632  1.0000
  H   H1422     1.0  0.55160  0.54920  0.09870  1.0000
  H   H1423     1.0  0.70830  0.50092  0.02954  1.0000
  H   H1424     1.0  0.77923  0.57832  0.02019  1.0000
  H   H1425     1.0  0.62173  0.50582  0.05250  1.0000
  H   H1426     1.0  0.96874  0.76694  0.23871  1.0000
  H   H1427     1.0  0.92116  0.93851  0.19895  1.0000
  C   C843      1.0  0.63157  0.53458  0.05485  1.0000
  S   S247      1.0  0.89679  0.98404  0.14004  1.0000
  C   C844      1.0  0.85423  0.82375  0.22107  1.0000
  H   H1428     1.0  0.88216  0.50781  0.08441  1.0000
  N   N58       1.0  0.96897  0.96509  0.23022  1.0000
  C   C845      1.0  0.65610  0.54732  0.06536  1.0000
  H   H1429     1.0  0.77410  0.57103  0.05974  1.0000
  N   N59       1.0  0.78840  0.73319  0.14180  1.0000
  C   C846      1.0  0.76739  0.69175  0.14388  1.0000
  C   C847      1.0  0.81098  0.74253  0.15483  1.0000
  C   C848      1.0  0.81110  0.74182  0.12621  1.0000
  C   C849      1.0  0.76382  0.75273  0.14218  1.0000
  C   C850      1.0  0.74582  0.67470  0.13059  1.0000
  C   C851      1.0  0.79138  0.73079  0.17162  1.0000
  C   C852      1.0  0.83598  0.78252  0.12177  1.0000
  C   C853      1.0  0.77766  0.79302  0.14703  1.0000
  H   H1430     1.0  0.78452  0.67668  0.14531  1.0000
  H   H1431     1.0  0.74867  0.68375  0.15482  1.0000
  H   H1432     1.0  0.82741  0.77252  0.15438  1.0000
  H   H1433     1.0  0.82995  0.72919  0.15350  1.0000
  H   H1434     1.0  0.82711  0.72500  0.12567  1.0000
  H   H1435     1.0  0.79519  0.73412  0.11638  1.0000
  H   H1436     1.0  0.75440  0.75303  0.13055  1.0000
  H   H1437     1.0  0.74025  0.73705  0.15070  1.0000
  H   H1438     1.0  0.72793  0.64564  0.13463  1.0000
  H   H1439     1.0  0.72979  0.68985  0.12738  1.0000
  H   H1440     1.0  0.76256  0.67299  0.12007  1.0000
  H   H1441     1.0  0.80891  0.74536  0.18018  1.0000
  H   H1442     1.0  0.76846  0.73800  0.17330  1.0000
  H   H1443     1.0  0.78334  0.70057  0.17461  1.0000
  H   H1444     1.0  0.82169  0.80018  0.11936  1.0000
  H   H1445     1.0  0.85283  0.78403  0.11073  1.0000
  H   H1446     1.0  0.85364  0.79395  0.13063  1.0000
  H   H1447     1.0  0.76530  0.80889  0.14078  1.0000
  H   H1448     1.0  0.80592  0.80886  0.14431  1.0000
  H   H1449     1.0  0.76969  0.79349  0.15972  1.0000
  C   C854      1.0  0.77928  0.55434  0.02740  1.0000
  H   H1450     1.0  0.84814  0.75741  0.20836  1.0000
  H   H1451     1.0  0.83653  0.86608  0.21392  1.0000
  H   H1452     1.0  0.51577  0.97137  0.99839  1.0000
  H   H1453     1.0  0.81643  0.92215  0.21369  1.0000
  Fe  Fe123     1.0  0.72112  0.54397  0.13050  1.0000
  Fe  Fe124     1.0  0.69405  0.55702  0.10059  1.0000
  S   S248      1.0  0.93784  0.83094  0.18231  1.0000
  H   H1454     1.0  0.72938  0.55726  0.06161  1.0000
  N   N60       1.0  0.74968  0.54019  0.04061  1.0000
  C   C855      1.0  0.82822  0.93847  0.23673  1.0000
  H   H1455     1.0  0.98063  0.90478  0.21620  1.0000
  H   H1456     1.0  0.72830  0.55223  0.00944  1.0000
  C   C856      1.0  0.75264  0.56785  0.05263  1.0000
  S   S249      1.0  0.68118  0.56599  0.12559  1.0000
  C   C857      1.0  0.93797  0.93235  0.20680  1.0000
  N   N61       1.0  0.86561  0.80686  0.23438  1.0000
  C   C858      1.0  0.75633  0.60694  0.04670  1.0000
  H   H1457     1.0  0.86452  0.97757  0.19992  1.0000
  H   H1458     1.0  0.87954  0.96318  0.17346  1.0000
  H   H1459     1.0  0.72073  0.58316  0.02302  1.0000
  H   H1460     1.0  0.83317  0.80224  0.21582  1.0000
  C   C859      1.0  0.87930  0.77965  0.22755  1.0000
  C   C860      1.0  0.99144  0.52929  0.01150  1.0000
  C   C861      1.0  0.83985  0.85323  0.22504  1.0000
  H   H1461     1.0  0.59024  0.63520  0.00108  1.0000
  H   H1462     1.0  0.78485  0.97868  0.23397  1.0000
  H   H1463     1.0  0.88830  0.76602  0.23672  1.0000
  C   C862      1.0  0.98035  0.79115  0.21481  1.0000
  H   H1464     1.0  0.52287  0.52355  0.05664  1.0000
  H   H1465     1.0  0.77630  0.53271  0.01902  1.0000
  Fe  Fe125     1.0  0.64385  0.50642  0.12762  1.0000
  H   H1466     1.0  0.51576  0.52954  0.07680  1.0000
  H   H1467     1.0  0.81354  0.84034  0.23176  1.0000
  H   H1468     1.0  0.82064  0.54256  0.03729  1.0000
  C   C863      1.0  0.57098  0.50626  0.09194  1.0000
  C   C864      1.0  0.85343  0.74759  0.21968  1.0000
  H   H1469     1.0  0.97517  0.96087  0.16793  1.0000
  H   H1470     1.0  0.83540  0.57855  0.02175  1.0000
  C   C865      1.0  0.57270  0.54612  0.09090  1.0000
  H   H1471     1.0  0.82107  0.58814  0.04070  1.0000
  H   H1472     1.0  0.85716  0.87607  0.23117  1.0000
  C   C866      1.0  0.99080  0.97241  0.13548  1.0000
  H   H1473     1.0  0.71698  0.49934  0.07112  1.0000
  H   H1474     1.0  0.99352  0.97741  0.10947  1.0000
  H   H1475     1.0  0.77424  0.51330  0.05502  1.0000
  C   C867      1.0  0.98591  0.79004  0.23056  1.0000
  C   C868      1.0  0.99291  0.91345  0.22688  1.0000
  C   C869      1.0  0.75095  0.50603  0.04878  1.0000
  H   H1476     1.0  0.99132  0.88773  0.23339  1.0000
  S   S250      1.0  0.60693  0.50677  0.99709  1.0000
  H   H1477     1.0  0.54506  0.55620  0.99302  1.0000
  H   H1478     1.0  0.68552  0.54387  0.01807  1.0000
  C   C870      1.0  0.53181  0.73385  0.23892  1.0000
  H   H1479     1.0  0.69416  0.52549  0.04347  1.0000
  H   H1480     1.0  0.52626  0.73939  0.22694  1.0000
  H   H1481     1.0  0.55731  0.49409  0.06341  1.0000
  C   C871      1.0  0.97878  0.99048  0.16687  1.0000
  Fe  Fe126     1.0  0.58807  0.49434  0.02279  1.0000
  H   H1482     1.0  0.92715  0.88991  0.31424  1.0000
  H   H1483     1.0  0.58555  0.80786  0.24821  1.0000
  H   H1484     1.0  0.57043  0.58456  0.45345  1.0000
  C   C872      1.0  0.92687  0.91607  0.30907  1.0000
  H   H1485     1.0  0.92307  0.89948  0.35801  1.0000
  H   H1486     1.0  0.56050  0.77163  0.40663  1.0000
  H   H1487     1.0  0.51864  0.77914  0.28817  1.0000
  H   H1488     1.0  0.97633  0.94269  0.34905  1.0000
  Fe  Fe127     1.0  0.53770  0.77991  0.31938  1.0000
  S   S251      1.0  0.53902  0.77591  0.34534  1.0000
  S   S252      1.0  0.57700  0.82313  0.30154  1.0000
  H   H1489     1.0  0.98129  0.94094  0.30642  1.0000
  S   S253      1.0  0.56299  0.69201  0.35232  1.0000
  S   S254      1.0  0.53081  0.72124  0.31643  1.0000
  S   S255      1.0  0.84976  0.89791  0.27838  1.0000
  Fe  Fe128     1.0  0.77018  0.89765  0.30545  1.0000
  S   S256      1.0  0.76553  0.85321  0.28926  1.0000
  S   S257      1.0  0.72589  0.89331  0.32342  1.0000
  Fe  Fe129     1.0  0.81489  0.85472  0.29718  1.0000
  S   S258      1.0  0.81653  0.79964  0.30384  1.0000
  N   N62       1.0  0.96491  0.96198  0.32727  1.0000
  H   H1490     1.0  0.51854  0.70353  0.24194  1.0000
  H   H1491     1.0  0.57370  0.74612  0.26278  1.0000
  H   H1492     1.0  0.58173  0.82639  0.26701  1.0000
  C   C873      1.0  0.74150  0.79121  0.33196  1.0000
  H   H1493     1.0  0.97756  0.75450  0.33888  1.0000
  H   H1494     1.0  0.55137  0.53256  0.41752  1.0000
  C   C874      1.0  0.51781  0.75536  0.25035  1.0000
  C   C875      1.0  0.83557  0.78639  0.24701  1.0000
  H   H1495     1.0  0.97899  0.91623  0.33317  1.0000
  H   H1496     1.0  0.75064  0.80742  0.32030  1.0000
  C   C876      1.0  0.55727  0.56541  0.44478  1.0000
  C   C877      1.0  0.53983  0.74741  0.40240  1.0000
  S   S259      1.0  0.81712  0.89563  0.31478  1.0000
  C   C878      1.0  0.96348  0.93104  0.33865  1.0000
  C   C879      1.0  0.98499  0.49350  0.45825  1.0000
  C   C880      1.0  0.55464  0.50737  0.42208  1.0000
  C   C881      1.0  0.54834  0.75062  0.38445  1.0000
  C   C882      1.0  0.54560  0.65848  0.36839  1.0000
  H   H1497     1.0  0.80388  0.79136  0.26774  1.0000
  C   C883      1.0  0.69905  0.73768  0.32200  1.0000
  H   H1498     1.0  0.90970  0.95148  0.25357  1.0000
  C   C884      1.0  0.55397  0.61551  0.38694  1.0000
  C   C885      1.0  0.56661  0.64189  0.37397  1.0000
  H   H1499     1.0  0.58702  0.53267  0.44697  1.0000
  H   H1500     1.0  0.89554  0.80098  0.26113  1.0000
  H   H1501     1.0  0.57036  0.60269  0.39114  1.0000
  H   H1502     1.0  0.59267  0.64924  0.36820  1.0000
  C   C886      1.0  0.61836  0.84373  0.30757  1.0000
  C   C887      1.0  0.62201  0.84885  0.32338  1.0000
  C   C888      1.0  0.65516  0.86506  0.32807  1.0000
  C   C889      1.0  0.68480  0.87569  0.31701  1.0000
  C   C890      1.0  0.68122  0.87065  0.30117  1.0000
  C   C891      1.0  0.64800  0.85508  0.29644  1.0000
  H   H1503     1.0  0.59932  0.84096  0.33198  1.0000
  H   H1504     1.0  0.65786  0.86905  0.34032  1.0000
  H   H1505     1.0  0.70403  0.87901  0.29256  1.0000
  H   H1506     1.0  0.64532  0.85147  0.28417  1.0000
  H   H1507     1.0  0.54791  0.77626  0.37884  1.0000
  Fe  Fe130     1.0  0.52812  0.71604  0.34262  1.0000
  H   H1508     1.0  0.83929  0.76291  0.25313  1.0000
  C   C892      1.0  0.94629  0.54166  0.48410  1.0000
  S   S260      1.0  0.80063  0.94521  0.28734  1.0000
  H   H1509     1.0  0.49765  0.69186  0.43385  1.0000
  H   H1510     1.0  0.69780  0.77099  0.30081  1.0000
  C   C893      1.0  0.96332  0.98776  0.24323  1.0000
  C   C894      1.0  0.92416  0.79669  0.29879  1.0000
  C   C895      1.0  0.92039  0.82919  0.29392  1.0000
  C   C896      1.0  0.88728  0.83018  0.29527  1.0000
  C   C897      1.0  0.85807  0.79889  0.30164  1.0000
  C   C898      1.0  0.86190  0.76639  0.30638  1.0000
  C   C899      1.0  0.89485  0.76529  0.30496  1.0000
  H   H1511     1.0  0.94293  0.85358  0.28920  1.0000
  H   H1512     1.0  0.88430  0.85509  0.29145  1.0000
  H   H1513     1.0  0.83937  0.74205  0.31124  1.0000
  H   H1514     1.0  0.89764  0.74009  0.30870  1.0000
  C   C900      1.0  0.71030  0.75243  0.30455  1.0000
  H   H1515     1.0  0.58315  0.51516  0.42096  1.0000
  C   C901      1.0  0.51171  0.64846  0.37579  1.0000
  H   H1516     1.0  0.70254  0.72863  0.29719  1.0000
  H   H1517     1.0  0.57105  0.57836  0.43300  1.0000
  H   H1518     1.0  0.88698  0.85740  0.24617  1.0000
  H   H1519     1.0  0.90503  0.90512  0.34070  1.0000
  C   C902      1.0  0.82831  0.80902  0.26018  1.0000
  N   N63       1.0  0.50442  0.74534  0.40887  1.0000
  H   H1520     1.0  0.52256  0.77739  0.42858  1.0000
  C   C903      1.0  0.96029  0.94948  0.31101  1.0000
  H   H1521     1.0  0.50994  0.72426  0.44837  1.0000
  H   H1522     1.0  0.54369  0.69459  0.28238  1.0000
  H   H1523     1.0  0.53036  0.56374  0.44570  1.0000
  H   H1524     1.0  0.54194  0.72605  0.43284  1.0000
  N   N64       1.0  0.52477  0.75283  0.26711  1.0000
  C   C904      1.0  0.51222  0.77866  0.27593  1.0000
  S   S261      1.0  0.79384  0.89992  0.24655  1.0000
  H   H1525     1.0  0.51479  0.53105  0.48728  1.0000
  H   H1526     1.0  0.54373  0.72235  0.40668  1.0000
  C   C905      1.0  0.93860  0.97804  0.33218  1.0000
  C   C906      1.0  0.93566  0.96613  0.25721  1.0000
  H   H1527     1.0  0.92552  0.87328  0.34182  1.0000
  N   N65       1.0  0.70315  0.76686  0.33342  1.0000
  C   C907      1.0  0.56300  0.76501  0.26835  1.0000
  C   C908      1.0  0.69217  0.74861  0.34996  1.0000
  C   C909      1.0  0.68387  0.79096  0.32993  1.0000
  C   C910      1.0  0.75296  0.82004  0.34414  1.0000
  C   C911      1.0  0.65413  0.72122  0.35414  1.0000
  C   C912      1.0  0.64628  0.77139  0.32593  1.0000
  H   H1528     1.0  0.70881  0.73361  0.35275  1.0000
  H   H1529     1.0  0.69569  0.76975  0.35857  1.0000
  H   H1530     1.0  0.68283  0.80784  0.33993  1.0000
  H   H1531     1.0  0.69848  0.81176  0.31985  1.0000
  H   H1532     1.0  0.75134  0.80680  0.35599  1.0000
  H   H1533     1.0  0.78071  0.83838  0.34073  1.0000
  H   H1534     1.0  0.73825  0.83807  0.34460  1.0000
  H   H1535     1.0  0.65065  0.70830  0.36627  1.0000
  H   H1536     1.0  0.64609  0.69811  0.34650  1.0000
  H   H1537     1.0  0.63635  0.73585  0.35435  1.0000
  H   H1538     1.0  0.62852  0.77997  0.33372  1.0000
  H   H1539     1.0  0.63519  0.74081  0.32721  1.0000
  H   H1540     1.0  0.64467  0.78056  0.31375  1.0000
  H   H1541     1.0  0.52081  0.80437  0.40317  1.0000
  C   C913      1.0  0.58687  0.80436  0.26095  1.0000
  H   H1542     1.0  0.82495  0.83408  0.25583  1.0000
  N   N66       1.0  0.53879  0.49654  0.43900  1.0000
  H   H1543     1.0  0.49525  0.66070  0.37130  1.0000
  H   H1544     1.0  0.92906  0.84680  0.25894  1.0000
  Fe  Fe131     1.0  0.80047  0.90014  0.27197  1.0000
  H   H1545     1.0  0.93327  0.98617  0.26552  1.0000
  H   H1546     1.0  0.73890  0.76698  0.30191  1.0000
  H   H1547     1.0  0.74987  0.97187  0.24898  1.0000
  H   H1548     1.0  0.75716  0.77407  0.33263  1.0000
  S   S262      1.0  0.96511  0.79455  0.29745  1.0000
  H   H1549     1.0  0.49722  0.51158  0.43231  1.0000
  C   C914      1.0  0.92716  0.90103  0.34499  1.0000
  H   H1550     1.0  0.67210  0.71690  0.32284  1.0000
  Fe  Fe132     1.0  0.84747  0.93932  0.29520  1.0000
  C   C915      1.0  0.91387  0.82330  0.25241  1.0000
  H   H1551     1.0  0.53139  0.72574  0.37928  1.0000
  H   H1552     1.0  0.71429  0.72111  0.32487  1.0000
  H   H1553     1.0  0.92589  0.91342  0.29630  1.0000
  H   H1554     1.0  0.96797  0.70908  0.33330  1.0000
  H   H1555     1.0  0.96194  0.97290  0.30271  1.0000
  H   H1556     1.0  0.84695  0.96162  0.25793  1.0000
  H   H1557     1.0  0.93474  0.96712  0.35798  1.0000
  S   S263      1.0  0.50587  0.57293  0.41084  1.0000
  H   H1558     1.0  0.56717  0.76352  0.28092  1.0000
  S   S264      1.0  0.89644  0.98475  0.30056  1.0000
  C   C916      1.0  0.52040  0.60592  0.39456  1.0000
  H   H1559     1.0  0.97321  0.54940  0.47839  1.0000
  C   C917      1.0  0.50445  0.74909  0.42630  1.0000
  C   C918      1.0  0.55896  0.52738  0.44852  1.0000
  H   H1560     1.0  0.49813  0.77735  0.38896  1.0000
  C   C919      1.0  0.50472  0.71392  0.27492  1.0000
  H   H1561     1.0  0.52540  0.80775  0.27061  1.0000
  H   H1562     1.0  0.93260  0.81320  0.24629  1.0000
  H   H1563     1.0  0.93650  0.56167  0.47912  1.0000
  H   H1564     1.0  0.49748  0.71485  0.28765  1.0000
  H   H1565     1.0  0.90278  0.91908  0.31370  1.0000
  C   C920      1.0  0.51414  0.72095  0.43564  1.0000
  H   H1566     1.0  0.81109  0.77331  0.24171  1.0000
  C   C921      1.0  0.50134  0.49250  0.44102  1.0000
  H   H1567     1.0  0.91183  0.95906  0.33085  1.0000
  C   C922      1.0  0.52306  0.68669  0.27455  1.0000
  H   H1568     1.0  0.54999  0.51941  0.46126  1.0000
  H   H1569     1.0  0.53432  0.68435  0.26268  1.0000
  H   H1570     1.0  0.94313  0.94636  0.26395  1.0000
  H   H1571     1.0  0.84891  0.81723  0.26797  1.0000
  H   H1572     1.0  0.57515  0.75217  0.38147  1.0000
  H   H1573     1.0  0.61415  0.80907  0.26227  1.0000
  C   C923      1.0  0.85047  0.96512  0.24527  1.0000
  H   H1574     1.0  0.95035  0.91142  0.24348  1.0000
  H   H1575     1.0  0.50383  0.65859  0.27921  1.0000
  C   C924      1.0  0.49867  0.77792  0.40179  1.0000
  C   C925      1.0  0.98651  0.73840  0.33046  1.0000
  H   H1576     1.0  0.98045  0.51329  0.45063  1.0000
  C   C926      1.0  0.49915  0.62235  0.38899  1.0000
  H   H1577     1.0  0.99190  0.94253  0.24712  1.0000
  H   H1578     1.0  0.92940  0.51401  0.48080  1.0000
  H   H1579     1.0  0.98339  0.74635  0.31844  1.0000
  H   H1580     1.0  0.52853  0.78487  0.24543  1.0000
  C   C927      1.0  0.93778  0.98971  0.34910  1.0000
  H   H1581     1.0  0.75992  0.57778  0.63764  1.0000
  C   C928      1.0  0.96345  0.56374  0.53321  1.0000
  Fe  Fe133     1.0  0.81848  0.54265  0.62703  1.0000
  H   H1582     1.0  0.88675  0.84247  0.70816  1.0000
  S   S265      1.0  0.83761  0.60522  0.62683  1.0000
  H   H1583     1.0  0.95952  0.93899  0.62750  1.0000
  H   H1584     1.0  0.88171  0.89169  0.71644  1.0000
  H   H1585     1.0  0.76246  0.54095  0.65801  1.0000
  S   S266      1.0  0.83923  0.51381  0.60915  1.0000
  C   C929      1.0  0.90074  0.95552  0.66580  1.0000
  Fe  Fe134     1.0  0.97986  0.83224  0.69122  1.0000
  C   C930      1.0  0.72310  0.56931  0.67298  1.0000
  H   H1586     1.0  0.77295  0.50813  0.67746  1.0000
  H   H1587     1.0  0.96440  0.56292  0.54608  1.0000
  H   H1588     1.0  0.75597  0.83524  0.71206  1.0000
  S   S267      1.0  0.92783  0.80048  0.68370  1.0000
  C   C931      1.0  0.96518  0.96591  0.72675  1.0000
  Fe  Fe135     1.0  0.95336  0.76572  0.67202  1.0000
  S   S268      1.0  0.92952  0.70282  0.67561  1.0000
  Fe  Fe136     1.0  0.94930  0.83864  0.66168  1.0000
  S   S269      1.0  0.91988  0.86827  0.65084  1.0000
  H   H1589     1.0  0.76905  0.62457  0.63107  1.0000
  C   C932      1.0  0.91590  0.90231  0.66253  1.0000
  C   C933      1.0  0.94742  0.84133  0.72621  1.0000
  H   H1590     1.0  0.85952  0.87144  0.73540  1.0000
  C   C934      1.0  0.92258  0.80532  0.72578  1.0000
  C   C935      1.0  0.86211  0.82829  0.70325  1.0000
  H   H1591     1.0  0.92790  0.78672  0.71799  1.0000
  H   H1592     1.0  0.75763  0.79701  0.72404  1.0000
  C   C936      1.0  0.92636  0.90510  0.67751  1.0000
  C   C937      1.0  0.70771  0.53903  0.68679  1.0000
  H   H1593     1.0  0.93624  0.88571  0.68211  1.0000
  C   C938      1.0  0.96841  0.96827  0.62270  1.0000
  C   C939      1.0  0.86533  0.63199  0.63982  1.0000
  C   C940      1.0  0.87688  0.61569  0.65154  1.0000
  C   C941      1.0  0.89700  0.63781  0.66231  1.0000
  C   C942      1.0  0.90594  0.67632  0.66135  1.0000
  C   C943      1.0  0.89480  0.69263  0.64949  1.0000
  C   C944      1.0  0.87447  0.67050  0.63881  1.0000
  H   H1594     1.0  0.87015  0.58609  0.65238  1.0000
  H   H1595     1.0  0.90563  0.62505  0.67144  1.0000
  H   H1596     1.0  0.90153  0.72224  0.64864  1.0000
  H   H1597     1.0  0.86568  0.68330  0.62975  1.0000
  H   H1598     1.0  0.86139  0.94229  0.71789  1.0000
  H   H1599     1.0  0.95528  0.57301  0.50404  1.0000
  C   C945      1.0  0.77804  0.56094  0.66591  1.0000
  H   H1600     1.0  0.98886  0.58398  0.52735  1.0000
  H   H1601     1.0  0.82513  0.93345  0.69418  1.0000
  H   H1602     1.0  0.68213  0.50710  0.56864  1.0000
  H   H1603     1.0  0.98878  0.93001  0.64849  1.0000
  H   H1604     1.0  0.77034  0.53916  0.69138  1.0000
  H   H1605     1.0  0.89467  0.92522  0.64516  1.0000
  H   H1606     1.0  0.92635  0.50814  0.53192  1.0000
  C   C946      1.0  0.95448  0.52438  0.52785  1.0000
  H   H1607     1.0  0.96565  0.96101  0.73939  1.0000
  C   C947      1.0  0.85915  0.92426  0.72851  1.0000
  H   H1608     1.0  0.71553  0.54927  0.69818  1.0000
  H   H1609     1.0  0.97336  0.98016  0.65219  1.0000
  H   H1610     1.0  0.93166  0.93471  0.69820  1.0000
  N   N67       1.0  0.96222  0.52251  0.51046  1.0000
  H   H1611     1.0  0.72775  0.59730  0.64190  1.0000
  H   H1612     1.0  0.83059  0.81093  0.72581  1.0000
  H   H1613     1.0  0.71151  0.59015  0.67488  1.0000
  C   C948      1.0  0.85746  0.88590  0.72440  1.0000
  H   H1614     1.0  0.76374  0.62992  0.68600  1.0000
  H   H1615     1.0  0.76815  0.59146  0.69487  1.0000
  S   S270      1.0  0.97040  0.80135  0.64913  1.0000
  S   S271      1.0  0.98729  0.85709  0.71425  1.0000
  C   C949      1.0  0.89102  0.79304  0.73574  1.0000
  C   C950      1.0  0.81541  0.63100  0.68223  1.0000
  H   H1616     1.0  0.80402  0.91852  0.71365  1.0000
  H   H1617     1.0  0.73786  0.82585  0.73229  1.0000
  H   H1618     1.0  0.95989  0.89253  0.73695  1.0000
  H   H1619     1.0  0.87190  0.76510  0.73550  1.0000
  C   C951      1.0  0.77568  0.60948  0.68378  1.0000
  H   H1620     1.0  0.82950  0.61298  0.67948  1.0000
  C   C952      1.0  0.90285  0.92737  0.65673  1.0000
  N   N68       1.0  0.76212  0.58838  0.66994  1.0000
  H   H1621     1.0  0.79976  0.63028  0.65266  1.0000
  N   N69       1.0  0.82611  0.86150  0.71727  1.0000
  C   C953      1.0  0.83004  0.82549  0.71450  1.0000
  C   C954      1.0  0.79423  0.85207  0.72908  1.0000
  H   H1622     1.0  0.86337  0.84176  0.69149  1.0000
  C   C955      1.0  0.82388  0.87915  0.70171  1.0000
  H   H1623     1.0  0.82477  0.65509  0.67328  1.0000
  H   H1624     1.0  0.79729  0.83866  0.74022  1.0000
  H   H1625     1.0  0.71157  0.49398  0.54548  1.0000
  S   S272      1.0  0.81280  0.50151  0.64702  1.0000
  H   H1626     1.0  0.99420  0.93723  0.71545  1.0000
  H   H1627     1.0  0.80740  0.80603  0.70937  1.0000
  C   C956      1.0  0.94420  0.54301  0.50209  1.0000
  H   H1628     1.0  0.79044  0.87700  0.73276  1.0000
  H   H1629     1.0  0.83727  0.92275  0.73718  1.0000
  C   C957      1.0  0.77120  0.61696  0.65608  1.0000
  H   H1630     1.0  0.86033  0.79977  0.70147  1.0000
  H   H1631     1.0  0.80840  0.85742  0.69440  1.0000
  H   H1632     1.0  0.89073  0.97490  0.66125  1.0000
  H   H1633     1.0  0.94297  0.57380  0.53098  1.0000
  H   H1634     1.0  0.71247  0.55490  0.66263  1.0000
  C   C958      1.0  0.94071  0.86493  0.73653  1.0000
  S   S273      1.0  0.76313  0.51381  0.62240  1.0000
  C   C959      1.0  0.80786  0.90857  0.70208  1.0000
  C   C960      1.0  0.91091  0.95806  0.68083  1.0000
  H   H1635     1.0  0.91614  0.53233  0.50690  1.0000
  H   H1636     1.0  0.95281  0.98153  0.62921  1.0000
  H   H1637     1.0  0.71382  0.51452  0.68444  1.0000
  H   H1638     1.0  0.97076  0.76114  0.73905  1.0000
  C   C961      1.0  0.78325  0.53789  0.67975  1.0000
  C   C962      1.0  0.75972  0.82608  0.72383  1.0000
  H   H1639     1.0  0.78265  0.89794  0.69728  1.0000
  H   H1640     1.0  0.76316  0.63998  0.65915  1.0000
  H   H1641     1.0  0.80405  0.57546  0.65898  1.0000
  H   H1642     1.0  0.85011  0.89238  0.69481  1.0000
  H   H1643     1.0  0.81138  0.54600  0.68045  1.0000
  C   C963      1.0  0.75575  0.60278  0.64094  1.0000
  H   H1644     1.0  0.67897  0.52885  0.68801  1.0000
  H   H1645     1.0  0.94192  0.94297  0.72369  1.0000
  H   H1646     1.0  0.65496  0.49655  0.59405  1.0000
  H   H1647     1.0  0.82279  0.64240  0.69355  1.0000
  C   C964      1.0  0.92358  0.93274  0.68668  1.0000
  H   H1648     1.0  0.96809  0.51117  0.53476  1.0000
  H   H1649     1.0  0.88313  0.93824  0.73396  1.0000
  H   H1650     1.0  0.96267  0.96813  0.61038  1.0000
  H   H1651     1.0  0.76796  0.86701  0.83739  1.0000
  Fe  Fe137     1.0  0.85027  0.84185  0.77695  1.0000
  S   S274      1.0  0.81814  0.83023  0.80054  1.0000
  H   H1652     1.0  0.98033  0.50904  0.95168  1.0000
  Fe  Fe138     1.0  0.89502  0.92048  0.78271  1.0000
  S   S275      1.0  0.86690  0.91677  0.80667  1.0000
  H   H1653     1.0  0.58275  0.63254  0.94299  1.0000
  Fe  Fe139     1.0  0.86878  0.86066  0.80971  1.0000
  S   S276      1.0  0.88224  0.84090  0.83204  1.0000
  Fe  Fe140     1.0  0.81878  0.88701  0.79540  1.0000
  S   S277      1.0  0.77155  0.90018  0.80033  1.0000
  S   S278      1.0  0.90064  0.86668  0.78664  1.0000
  S   S279      1.0  0.84703  0.89625  0.77101  1.0000
  H   H1654     1.0  0.64169  0.79815  0.85865  1.0000
  S   S280      1.0  0.91124  0.50060  0.98551  1.0000
  H   H1655     1.0  0.95702  0.78090  0.84848  1.0000
  Fe  Fe141     1.0  0.58689  0.76043  0.81660  1.0000
  S   S281      1.0  0.58301  0.73561  0.84114  1.0000
  S   S282      1.0  0.63088  0.76274  0.79874  1.0000
  S   S283      1.0  0.53217  0.72379  0.81330  1.0000
  C   C965      1.0  0.95719  0.94569  0.82515  1.0000
  C   C966      1.0  0.69900  0.85614  0.84417  1.0000
  C   C967      1.0  0.95523  0.49644  0.94688  1.0000
  H   H1656     1.0  0.72925  0.79239  0.85719  1.0000
  H   H1657     1.0  0.57504  0.53463  0.95015  1.0000
  N   N70       1.0  0.56048  0.59931  0.97382  1.0000
  H   H1658     1.0  0.93762  0.98204  0.83844  1.0000
  N   N71       1.0  0.69536  0.81690  0.84844  1.0000
  H   H1659     1.0  0.98725  0.82339  0.74564  1.0000
  Fe  Fe142     1.0  0.56569  0.78041  0.84835  1.0000
  H   H1660     1.0  0.71086  0.87472  0.85331  1.0000
  C   C968      1.0  0.66716  0.80094  0.86218  1.0000
  C   C969      1.0  0.50906  0.85299  0.86957  1.0000
  H   H1661     1.0  0.70982  0.75911  0.82420  1.0000
  C   C970      1.0  0.73247  0.86409  0.79731  1.0000
  C   C971      1.0  0.70087  0.86721  0.80176  1.0000
  C   C972      1.0  0.66930  0.83667  0.80156  1.0000
  C   C973      1.0  0.66929  0.80308  0.79673  1.0000
  C   C974      1.0  0.70079  0.80082  0.79123  1.0000
  C   C975      1.0  0.73234  0.83121  0.79159  1.0000
  H   H1662     1.0  0.70084  0.89283  0.80591  1.0000
  H   H1663     1.0  0.64505  0.83887  0.80542  1.0000
  H   H1664     1.0  0.70086  0.77501  0.78732  1.0000
  H   H1665     1.0  0.75651  0.82881  0.78779  1.0000
  C   C976      1.0  0.91986  0.83143  0.82994  1.0000
  C   C977      1.0  0.92417  0.80754  0.84127  1.0000
  C   C978      1.0  0.94587  0.84790  0.81725  1.0000
  H   H1666     1.0  0.90422  0.79474  0.85113  1.0000
  H   H1667     1.0  0.94327  0.86694  0.80864  1.0000
  N   N72       1.0  0.97522  0.79693  0.76941  1.0000
  H   H1668     1.0  0.57825  0.99103  0.96874  1.0000
  C   C979      1.0  0.90910  0.85297  0.74625  1.0000
  S   S284      1.0  0.50973  0.74592  0.84768  1.0000
  H   H1669     1.0  0.75693  0.82260  0.82931  1.0000
  H   H1670     1.0  0.68399  0.76071  0.87403  1.0000
  H   H1671     1.0  0.95031  0.73760  0.76714  1.0000
  H   H1672     1.0  0.51774  0.85762  0.90841  1.0000
  H   H1673     1.0  0.64932  0.84112  0.83417  1.0000
  H   H1674     1.0  0.96118  0.50117  0.93392  1.0000
  Fe  Fe143     1.0  0.51888  0.76952  0.82282  1.0000
  S   S285      1.0  0.57411  0.80840  0.82405  1.0000
  C   C980      1.0  0.55357  0.56925  0.96270  1.0000
  H   H1675     1.0  0.88958  0.97724  0.75502  1.0000
  C   C981      1.0  0.55060  0.82791  0.87631  1.0000
  C   C982      1.0  0.76113  0.83698  0.84022  1.0000
  Fe  Fe144     1.0  0.52729  0.70329  0.83843  1.0000
  H   H1676     1.0  0.92985  0.74630  0.79517  1.0000
  H   H1677     1.0  0.64953  0.74041  0.86175  1.0000
  C   C983      1.0  0.72970  0.81963  0.85314  1.0000
  H   H1678     1.0  0.64077  0.75570  0.88015  1.0000
  H   H1679     1.0  0.64931  0.85898  0.85322  1.0000
  S   S286      1.0  0.57936  0.80684  0.87074  1.0000
  H   H1680     1.0  0.66542  0.73540  0.83198  1.0000
  C   C984      1.0  0.66522  0.86118  0.84181  1.0000
  C   C985      1.0  0.59463  0.65207  0.95165  1.0000
  H   H1681     1.0  0.93943  0.51179  0.95122  1.0000
  C   C986      1.0  0.98016  0.81647  0.82715  1.0000
  H   H1682     1.0  0.94223  0.82622  0.76564  1.0000
  H   H1683     1.0  0.52953  0.54510  0.96739  1.0000
  H   H1684     1.0  0.58289  0.67291  0.95245  1.0000
  C   C987      1.0  0.95404  0.79971  0.83977  1.0000
  H   H1685     1.0  0.92852  0.76407  0.75982  1.0000
  C   C988      1.0  0.66072  0.76225  0.86973  1.0000
  H   H1686     1.0  0.67223  0.82018  0.87168  1.0000
  C   C989      1.0  0.54540  0.83565  0.89190  1.0000
  C   C990      1.0  0.91759  0.74982  0.78477  1.0000
  H   H1687     1.0  0.50665  0.63843  0.81639  1.0000
  H   H1688     1.0  0.97524  0.55648  0.97018  1.0000
  C   C991      1.0  0.52177  0.85178  0.89636  1.0000
  C   C992      1.0  0.94338  0.76154  0.76951  1.0000
  C   C993      1.0  0.69023  0.75767  0.83418  1.0000
  H   H1689     1.0  0.94574  0.94929  0.81440  1.0000
  C   C994      1.0  0.50365  0.86055  0.88516  1.0000
  H   H1690     1.0  0.54805  0.57767  0.95119  1.0000
  H   H1691     1.0  0.58481  0.53881  0.96970  1.0000
  H   H1692     1.0  0.90482  0.76944  0.78685  1.0000
  H   H1693     1.0  0.95074  0.82375  0.78531  1.0000
  H   H1694     1.0  0.62231  0.66654  0.94659  1.0000
  H   H1695     1.0  0.90387  0.87193  0.75381  1.0000
  H   H1696     1.0  0.94163  0.94511  0.85047  1.0000
  C   C995      1.0  0.97595  0.84059  0.81592  1.0000
  C   C996      1.0  0.96288  0.82741  0.77291  1.0000
  H   H1697     1.0  0.52670  0.63019  0.95278  1.0000
  S   S287      1.0  0.94382  0.96623  0.77116  1.0000
  H   H1698     1.0  0.60769  0.57708  0.95468  1.0000
  H   H1699     1.0  0.53648  0.83096  0.85309  1.0000
  H   H1700     1.0  0.90740  0.93500  0.83861  1.0000
  C   C997      1.0  0.93516  0.95287  0.83903  1.0000
  S   S288      1.0  0.84526  0.80162  0.75864  1.0000
  H   H1701     1.0  0.95208  0.91575  0.82632  1.0000
  C   C998      1.0  0.53230  0.83649  0.86518  1.0000
  H   H1702     1.0  0.89651  0.72253  0.78360  1.0000
  H   H1703     1.0  0.78425  0.83458  0.84446  1.0000
  C   C999      1.0  0.68588  0.79502  0.83440  1.0000
  H   H1704     1.0  0.73583  0.83629  0.86345  1.0000
  H   H1705     1.0  0.65868  0.78938  0.83248  1.0000
  H   H1706     1.0  0.70194  0.81196  0.82366  1.0000
  H   H1707     1.0  0.67187  0.88943  0.83614  1.0000
  H   H1708     1.0  0.71696  0.86822  0.83311  1.0000
  C   C1000     1.0  0.52911  0.60892  0.97685  1.0000
  H   H1709     1.0  0.69779  0.74834  0.84492  1.0000
  C   C1001     1.0  0.97979  0.54828  0.98161  1.0000
  C   C1002     1.0  0.58235  0.55464  0.95925  1.0000
  H   H1710     1.0  0.55947  0.82900  0.90056  1.0000
  H   H1711     1.0  0.61661  0.62790  0.96841  1.0000
  H   H1712     1.0  0.59599  0.65541  0.97618  1.0000
  H   H1713     1.0  0.50236  0.71326  0.90533  1.0000
  H   H1714     1.0  0.98231  0.79096  0.79383  1.0000
  C   C1003     1.0  0.59268  0.63333  0.96804  1.0000
  H   H1715     1.0  0.53607  0.63592  0.98212  1.0000
  H   H1716     1.0  0.97833  0.88672  0.77387  1.0000
  C   C1004     1.0  0.88436  0.81685  0.74604  1.0000
  H   H1717     1.0  0.50401  0.53895  0.86977  1.0000
  H   H1718     1.0  0.98260  0.90937  0.84424  1.0000
  H   H1719     1.0  0.97647  0.93367  0.79477  1.0000
  C   C1005     1.0  0.50982  0.61088  0.96273  1.0000
  H   H1720     1.0  0.50898  0.58792  0.98564  1.0000
  H   H1721     1.0  0.50154  0.57056  0.85433  1.0000
  C   C1006     1.0  0.56611  0.58388  0.98922  1.0000
  H   H1722     1.0  0.59058  0.57918  0.98800  1.0000
  H   H1723     1.0  0.98959  0.73571  0.78197  1.0000
  C   C1007     1.0  0.99072  0.86747  0.77035  1.0000
  H   H1724     1.0  0.49809  0.65439  0.89635  1.0000
  H   H1725     1.0  0.49685  0.65210  0.91718  1.0000
  H   H1726     1.0  0.49519  0.85977  0.86086  1.0000
  C   C1008     1.0  0.51016  0.98829  0.98974  1.0000
  H   H1727     1.0  0.49483  0.52886  0.83490  1.0000
  H   H1728     1.0  0.49633  0.58296  0.95867  1.0000
