data_image0
_chemical_formula_structural       CH3CHFeS3FeS2CFeS2FeS2HCFeCFeHS2N2HCH5C6H4C6H6C2H2CHCH3CH2FeCHCH3C2HCH2NC8H21CH5FeCHCH2CNCHSHCH4C2HC2H8CHCHCHC3H2CHCH3CH2NC2H6CH2SCHCH2CHSH2CH10FeS2FeSH2SFeHCFe2HFeS2FeSCHCHCFeSCSCHCH3C2HSCH3C6H4C6H5C2HC2SH2C2HSCNC8H22NCH4CH3SHC4SH3CH2CH7CH3C2H2SHCNH5SH8SC2H2C4HCH2SH4CHFeNHCFeSCFeSC2FeSHSH2CSFeHFeS2FeS2FeS2FeSFeS3C6H4C2H7C2HC6H5CHCH3C6H10NCHC3H2CH2C2H2CH4CH4NC5FeC2H23NHSH2FeCH4SH4CH2CSHCHSNH4CHCSHCHCHSH3FeH3CFe2S2FeS2FeS2FeSFeS3C2FeS2FeH4S3HC4H2C7H4C6H5CNSH5CH2NC7H23CSH5CHCH2CH2FeHCHCHCH7CH3NC4H2CHCH2CH11CH2CNH2CHCH2C2HCHC2HCH5NH2C2H2CH4C2H2CSCFeS2FeSHFeS2FeSFeS3H2FeSCFeS2FeHCS2H4C2H2C2HSC3H3C6H4C2HCHCHCHCHC6H4CFe2SH4NH4CNC5H8CSHSHCH6CSHC2SNC8H22S2H2CH3FeC2H3SHCHC2FeS2H2SHFeSHS2FeS2FeSCFeSFeS3FeS4C6H4CSC6H3FeC5H2CSCH2C7H4CH3CH2CH6C2HC2NCHNC6H18NHCH2CH2C2H9CHCSH3NC4HFeCNCH4C2HCH2SCH4CH7FeH4CHCH8CH11CHC2H4CFeSHFeS2FeSFeS4FeS2FeS3FeS2C6H3FeC2HCSH2C6H3C2H3C2H2CHCH2C2H5CH6NC8H13C2H6CH3C2HCH3NH2C2H5CHC2H2C2H2CH2CNHCHCHCHCHCH2CHNH6CHCH2C2HCH2CHCH2C2H2C2H4CH2C2HCSH5CH5CHCH4CHSCHS2FeSHFeS2FeS2FeCFeS3FeHSHS2C6HCHC6H3C6H4NCHC6H4C2H3NH6CH2C2H5SCH3CHCHCH5C4NCSH2CHCHCHCHCH5FeC2H2C2H2CH4NHC3H8SH5SCH2CH2CHCHCH3C2H2CFeHSCH3FeH16C2HNHFeS2NSFeHFeSCS2FeHS2HFeS2FeS2FeSFeHS2H2CH2C6H6C3H4C6H5SC6H4C2H3CH3CH3CH6CH3CH2CHC2H8CNC2H2CNCH2C4H2C3H3CH2C2HNHC7H9C2H8NSH2CH5SH2C2FeH3CH3SH2C2H3CH2CHFeS2H2CHSFeS2FeS2FeSFeCS2FeS2HSFeSHC6H4C6H6C2HC4HFeH2CHCH4C2H2CH2CHCH9CHCH5CH4CHC2SH5SCH2SHC2H5NSNCH9CH2CH2C2H3CHCNC8H11CHCH2C4SFe2HC3H4C2H4CHSFeS2HFeS2FeS2FeHFeS3FeS2FeS2CHCH3C6H4CSFeHC6H4C4H4C6H4NHCHCH3C2SCHCH3C2H5CHCH5CHCH2NCHC3HC2HSH9CSH7NCH2C2H2CHCH9C4H13CH3C3H4FeH2C5H2CHCH2CH2FeSHFeS2FeSFeS3CHCSHSHCH2FeS2HC7HFeH2C5H3C6H9C2HNHCHCH5C2H3CH5CH2C5H2FeCH6CHC2SH2NH6CHC2H2SCH4CH3NHCHC2SHCH2CH2CH4CHC2H4C2HCFeH3CH2CH3CHCSC3SHCH3SFe2S2FeS2FeSFeS3FeS2CFeCSCHCH3C2H3C6H4C6H5C4H2C4H4CH3NH2C2H2C2HCH14CH3CH2C2H4NC2H2NC3HC2H8CH5NC5HC3H10C2H4CH2CH6C2HCNH3CHC2SCH3CHCH3C2H9CHCHNH7SHC2FeH2CHCH2CH4CH4C4FeS2FeS2FeSFeS3FeS2HFeS2HC2H4C4HCH4C2H2C6H4C6H4NCNH2C2SHNHCHNC8H8CH10C2H2SH3CSHC2H4C6H2NH9CH2CH2CH2CSCH11CHC2H9FeC2H6CH4C3HCHCHCH5NCH2C3H3FeS2HFeH2SFeS2HSFeSFeHS3HSHCFeHSHCHC6H3C6H4FeHC6H4SC2NH3CH2C2H7CHCH3C2NH4CH2CH2C2H4CH3CNHCH3C2SHCH5CHCH4CHCHC2NCH2C4H11CH2FeCHCH4CHCH3SHSNCH3C3H2CS2HFe2S2FeSHSHCHFeS2FeS2HS2FeS2CH3CH2C6H4C6H4C6H8SH6C2H2C2H2FeH5CNC8H20CFeCH5C3H2CH2C2H5NHCH3SCH2FeC2HCH4NHCHCHC2H3SHNHCHNHCH5CNCH3CHSHSC
_chemical_formula_sum              "C1008 H1728 Fe144 S288 N72"
_cell_length_a       39.8556
_cell_length_b       40.2444
_cell_length_c       80.017
_cell_angle_alpha    88.1292
_cell_angle_beta     90.8142
_cell_angle_gamma    119.766

_space_group_name_H-M_alt    "P 1"
_space_group_IT_number       1

loop_
  _space_group_symop_operation_xyz
  'x, y, z'

loop_
  _atom_site_type_symbol
  _atom_site_label
  _atom_site_symmetry_multiplicity
  _atom_site_fract_x
  _atom_site_fract_y
  _atom_site_fract_z
  _atom_site_occupancy
  C   C1        1.0  0.37999  0.38190  0.20361  1.0000
  H   H1        1.0  0.21128  0.44078  0.06041  1.0000
  H   H2        1.0  0.47040  0.02923  0.20492  1.0000
  H   H3        1.0  0.11901  0.38666  0.05665  1.0000
  C   C2        1.0  0.36051  0.40302  0.20446  1.0000
  H   H4        1.0  0.15528  0.37472  0.06219  1.0000
  Fe  Fe1       1.0  0.08516  0.47027  0.02956  1.0000
  S   S1        1.0  0.06357  0.42881  0.05214  1.0000
  S   S2        1.0  0.09164  0.45751  0.00308  1.0000
  S   S3        1.0  0.04069  0.15565  0.11131  1.0000
  Fe  Fe2       1.0  0.15447  0.05933  0.08189  1.0000
  S   S4        1.0  0.14527  0.04319  0.10910  1.0000
  S   S5        1.0  0.13790  0.10101  0.06990  1.0000
  C   C3        1.0  0.19807  0.40324  0.03322  1.0000
  Fe  Fe3       1.0  0.20303  0.04655  0.10834  1.0000
  S   S6        1.0  0.24322  0.07231  0.13063  1.0000
  S   S7        1.0  0.21460  0.06727  0.08144  1.0000
  Fe  Fe4       1.0  0.40304  0.27496  0.16142  1.0000
  S   S8        1.0  0.39618  0.25358  0.18810  1.0000
  S   S9        1.0  0.35588  0.25015  0.14153  1.0000
  H   H5        1.0  0.44830  0.14060  0.12603  1.0000
  C   C4        1.0  0.43862  0.00713  0.02004  1.0000
  Fe  Fe5       1.0  0.45602  0.26175  0.18529  1.0000
  C   C5        1.0  0.40939  0.19663  0.13127  1.0000
  Fe  Fe6       1.0  0.42603  0.31611  0.19458  1.0000
  H   H6        1.0  0.16899  0.45485  0.02295  1.0000
  S   S10       1.0  0.46068  0.27858  0.15815  1.0000
  S   S11       1.0  0.42956  0.33724  0.16794  1.0000
  N   N1        1.0  0.38953  0.02666  0.00872  1.0000
  N   N2        1.0  0.28320  0.26380  0.19427  1.0000
  H   H7        1.0  0.01944  0.30169  0.07803  1.0000
  C   C6        1.0  0.03064  0.35913  0.03646  1.0000
  H   H8        1.0  0.18831  0.48567  0.06876  1.0000
  H   H9        1.0  0.23630  0.30336  0.19421  1.0000
  H   H10       1.0  0.39134  0.37941  0.19182  1.0000
  H   H11       1.0  0.40917  0.44410  0.97949  1.0000
  H   H12       1.0  0.29611  0.30266  0.16334  1.0000
  C   C7        1.0  0.27417  0.12189  0.13340  1.0000
  C   C8        1.0  0.28565  0.14832  0.11997  1.0000
  C   C9        1.0  0.31113  0.18749  0.12260  1.0000
  C   C10       1.0  0.32572  0.20048  0.13863  1.0000
  C   C11       1.0  0.31475  0.17394  0.15202  1.0000
  C   C12       1.0  0.28895  0.13486  0.14940  1.0000
  H   H13       1.0  0.27534  0.13839  0.10753  1.0000
  H   H14       1.0  0.31993  0.20779  0.11214  1.0000
  H   H15       1.0  0.32563  0.18360  0.16442  1.0000
  H   H16       1.0  0.28033  0.11450  0.15984  1.0000
  C   C13       1.0  0.06404  0.13763  0.09903  1.0000
  C   C14       1.0  0.07325  0.14900  0.08224  1.0000
  C   C15       1.0  0.09523  0.13692  0.07326  1.0000
  C   C16       1.0  0.10740  0.11282  0.08092  1.0000
  C   C17       1.0  0.09659  0.10017  0.09748  1.0000
  C   C18       1.0  0.07563  0.11306  0.10658  1.0000
  H   H17       1.0  0.06453  0.16808  0.07633  1.0000
  H   H18       1.0  0.10329  0.14672  0.06042  1.0000
  H   H19       1.0  0.10509  0.08120  0.10346  1.0000
  H   H20       1.0  0.06851  0.10410  0.11956  1.0000
  H   H21       1.0  0.35662  0.14531  0.12743  1.0000
  H   H22       1.0  0.21201  0.47268  0.04442  1.0000
  C   C19       1.0  0.49183  0.03386  0.21482  1.0000
  C   C20       1.0  0.04280  0.37853  0.05145  1.0000
  H   H23       1.0  0.09690  0.31979  0.05247  1.0000
  H   H24       1.0  0.31060  0.31234  0.21047  1.0000
  C   C21       1.0  0.16852  0.45791  0.06296  1.0000
  H   H25       1.0  0.21701  0.44404  0.01151  1.0000
  C   C22       1.0  0.03833  0.35752  0.06645  1.0000
  H   H26       1.0  0.21833  0.20318  0.16434  1.0000
  H   H27       1.0  0.32512  0.08666  0.11735  1.0000
  H   H28       1.0  0.04802  0.37241  0.07808  1.0000
  C   C23       1.0  0.01232  0.02604  0.07186  1.0000
  H   H29       1.0  0.43768  0.08643  0.14605  1.0000
  H   H30       1.0  0.00341  0.02941  0.05893  1.0000
  Fe  Fe7       1.0  0.07400  0.50124  0.99578  1.0000
  C   C24       1.0  0.01352  0.31896  0.03654  1.0000
  H   H31       1.0  0.18401  0.37708  0.02582  1.0000
  C   C25       1.0  0.45046  0.08556  0.99639  1.0000
  H   H32       1.0  0.02994  0.05554  0.07646  1.0000
  H   H33       1.0  0.33812  0.33932  0.17370  1.0000
  H   H34       1.0  0.09652  0.34257  0.03328  1.0000
  C   C26       1.0  0.36380  0.02133  0.99384  1.0000
  C   C27       1.0  0.22952  0.43474  0.02186  1.0000
  H   H35       1.0  0.44123  0.20988  0.13058  1.0000
  C   C28       1.0  0.37495  0.08814  0.13074  1.0000
  H   H36       1.0  0.46815  0.11704  0.99777  1.0000
  H   H37       1.0  0.28412  0.33488  0.18559  1.0000
  N   N3        1.0  0.21459  0.20078  0.10822  1.0000
  C   C29       1.0  0.21900  0.17674  0.09525  1.0000
  C   C30       1.0  0.21395  0.18310  0.12522  1.0000
  C   C31       1.0  0.24990  0.24013  0.10702  1.0000
  C   C32       1.0  0.17822  0.20264  0.10449  1.0000
  C   C33       1.0  0.22332  0.19177  0.07696  1.0000
  C   C34       1.0  0.18500  0.13992  0.12738  1.0000
  C   C35       1.0  0.25332  0.26901  0.12003  1.0000
  C   C36       1.0  0.15673  0.20719  0.11937  1.0000
  H   H38       1.0  0.24438  0.17307  0.09811  1.0000
  H   H39       1.0  0.19350  0.14733  0.09532  1.0000
  H   H40       1.0  0.20764  0.19755  0.13522  1.0000
  H   H41       1.0  0.24299  0.18712  0.12839  1.0000
  H   H42       1.0  0.27671  0.23794  0.10800  1.0000
  H   H43       1.0  0.25143  0.25425  0.09465  1.0000
  H   H44       1.0  0.18415  0.22621  0.09522  1.0000
  H   H45       1.0  0.15635  0.17635  0.09829  1.0000
  H   H46       1.0  0.25198  0.21743  0.07458  1.0000
  H   H47       1.0  0.22134  0.16933  0.06859  1.0000
  H   H48       1.0  0.19986  0.19769  0.07320  1.0000
  H   H49       1.0  0.19639  0.12282  0.12155  1.0000
  H   H50       1.0  0.18102  0.13162  0.14089  1.0000
  H   H51       1.0  0.15636  0.13208  0.12199  1.0000
  H   H52       1.0  0.28202  0.29529  0.11851  1.0000
  H   H53       1.0  0.25212  0.25847  0.13309  1.0000
  H   H54       1.0  0.23148  0.27806  0.11782  1.0000
  H   H55       1.0  0.14246  0.18069  0.12734  1.0000
  H   H56       1.0  0.13315  0.21195  0.11445  1.0000
  H   H57       1.0  0.17540  0.23173  0.12720  1.0000
  H   H58       1.0  0.25022  0.45995  0.02901  1.0000
  C   C37       1.0  0.24730  0.24447  0.18368  1.0000
  H   H59       1.0  0.35851  0.06212  0.02968  1.0000
  H   H60       1.0  0.24301  0.26528  0.17587  1.0000
  H   H61       1.0  0.38879  0.08901  0.11859  1.0000
  H   H62       1.0  0.24673  0.42331  0.01606  1.0000
  H   H63       1.0  0.40347  0.08604  0.00884  1.0000
  Fe  Fe8       1.0  0.48688  0.33867  0.16725  1.0000
  C   C38       1.0  0.36659  0.01280  0.02474  1.0000
  H   H64       1.0  0.01335  0.03146  0.10428  1.0000
  C   C39       1.0  0.47423  0.09545  0.20627  1.0000
  H   H65       1.0  0.05521  0.01146  0.08239  1.0000
  H   H66       1.0  0.44165  0.11590  0.16356  1.0000
  C   C40       1.0  0.44957  0.11610  0.15031  1.0000
  N   N4        1.0  0.16948  0.41303  0.04056  1.0000
  C   C41       1.0  0.33123  0.07059  0.12733  1.0000
  H   H67       1.0  0.14744  0.41855  0.00030  1.0000
  S   S12       1.0  0.03622  0.48858  0.97265  1.0000
  H   H68       1.0  0.39485  0.15169  0.11408  1.0000
  C   C42       1.0  0.43346  0.46686  0.97273  1.0000
  H   H69       1.0  0.25508  0.21696  0.21256  1.0000
  H   H70       1.0  0.03389  0.37501  0.02484  1.0000
  H   H71       1.0  0.31812  0.02346  0.01907  1.0000
  H   H72       1.0  0.00374  0.30408  0.02490  1.0000
  C   C43       1.0  0.14946  0.42485  0.02748  1.0000
  C   C44       1.0  0.04050  0.01033  0.07037  1.0000
  H   H73       1.0  0.37763  0.06658  0.13882  1.0000
  C   C45       1.0  0.37802  0.12311  0.15573  1.0000
  C   C46       1.0  0.40034  0.15642  0.16779  1.0000
  H   H74       1.0  0.34826  0.11871  0.15473  1.0000
  H   H75       1.0  0.37427  0.09666  0.16232  1.0000
  H   H76       1.0  0.14692  0.46197  0.05574  1.0000
  H   H77       1.0  0.40030  0.20207  0.14339  1.0000
  H   H78       1.0  0.38200  0.16871  0.17137  1.0000
  H   H79       1.0  0.42762  0.18035  0.16291  1.0000
  H   H80       1.0  0.34157  0.30766  0.15942  1.0000
  H   H81       1.0  0.31467  0.06805  0.13877  1.0000
  C   C47       1.0  0.19225  0.44644  0.05184  1.0000
  H   H82       1.0  0.43863  0.08065  0.98352  1.0000
  C   C48       1.0  0.32361  0.30936  0.16948  1.0000
  H   H83       1.0  0.13369  0.32966  0.03768  1.0000
  C   C49       1.0  0.41833  0.06883  0.00984  1.0000
  H   H84       1.0  0.13894  0.37565  0.01121  1.0000
  C   C50       1.0  0.13414  0.40029  0.01171  1.0000
  C   C51       1.0  0.14049  0.37990  0.05132  1.0000
  C   C52       1.0  0.11610  0.34121  0.04287  1.0000
  H   H85       1.0  0.34541  0.29785  0.19209  1.0000
  H   H86       1.0  0.12453  0.42569  0.03308  1.0000
  C   C53       1.0  0.26772  0.31938  0.19694  1.0000
  H   H87       1.0  0.45525  0.16994  0.14285  1.0000
  C   C54       1.0  0.02186  0.31742  0.06648  1.0000
  H   H88       1.0  0.21309  0.39615  0.04340  1.0000
  H   H89       1.0  0.22111  0.23014  0.19182  1.0000
  H   H90       1.0  0.32513  0.25915  0.17878  1.0000
  C   C55       1.0  0.00883  0.29789  0.05154  1.0000
  H   H91       1.0  0.26986  0.22704  0.16254  1.0000
  H   H92       1.0  0.44771  0.06878  0.21024  1.0000
  N   N5        1.0  0.39495  0.12708  0.13854  1.0000
  C   C56       1.0  0.43760  0.14011  0.13889  1.0000
  C   C57       1.0  0.38773  0.15375  0.12730  1.0000
  H   H93       1.0  0.31964  0.04110  0.12276  1.0000
  H   H94       1.0  0.40146  0.21222  0.12173  1.0000
  H   H95       1.0  0.40737  0.14570  0.17955  1.0000
  H   H96       1.0  0.10244  0.38870  0.01062  1.0000
  H   H97       1.0  0.15391  0.43672  0.07335  1.0000
  H   H98       1.0  0.28644  0.21177  0.19858  1.0000
  C   C58       1.0  0.24552  0.21446  0.17162  1.0000
  H   H99       1.0  0.43257  0.07573  0.02230  1.0000
  H   H100      1.0  0.35672  0.41645  0.19322  1.0000
  S   S13       1.0  0.47393  0.21983  0.19579  1.0000
  C   C59       1.0  0.34115  0.03064  0.02852  1.0000
  H   H101      1.0  0.35235  0.04154  0.99400  1.0000
  C   C60       1.0  0.28172  0.29316  0.20510  1.0000
  H   H102      1.0  0.49536  0.23049  0.16051  1.0000
  H   H103      1.0  0.24449  0.18939  0.17828  1.0000
  C   C61       1.0  0.31981  0.28146  0.18400  1.0000
  H   H104      1.0  0.47049  0.07395  0.99783  1.0000
  S   S14       1.0  0.48533  0.32195  0.19432  1.0000
  H   H105      1.0  0.45572  0.03631  0.02488  1.0000
  H   H106      1.0  0.06361  0.02880  0.06127  1.0000
  C   C62       1.0  0.28318  0.23319  0.20577  1.0000
  H   H107      1.0  0.38061  0.02831  0.98199  1.0000
  H   H108      1.0  0.38614  0.01861  0.03567  1.0000
  H   H109      1.0  0.47898  0.09566  0.19271  1.0000
  H   H110      1.0  0.27203  0.34163  0.20597  1.0000
  H   H111      1.0  0.48153  0.12916  0.14987  1.0000
  H   H112      1.0  0.32637  0.01876  0.04072  1.0000
  H   H113      1.0  0.46837  0.11928  0.20837  1.0000
  H   H114      1.0  0.34416  0.25861  0.21332  1.0000
  H   H115      1.0  0.42389  0.00989  0.99392  1.0000
  H   H116      1.0  0.26230  0.27894  0.21607  1.0000
  Fe  Fe9       1.0  0.02946  0.22856  0.32778  1.0000
  S   S15       1.0  0.05430  0.23879  0.35375  1.0000
  S   S16       1.0  0.05597  0.26633  0.30450  1.0000
  Fe  Fe10      1.0  0.03869  0.17672  0.35345  1.0000
  S   S17       1.0  0.07720  0.15439  0.36385  1.0000
  H   H117      1.0  0.07053  0.45494  0.29827  1.0000
  H   H118      1.0  0.04050  0.45552  0.45219  1.0000
  S   S18       1.0  0.12797  0.05661  0.32088  1.0000
  Fe  Fe11      1.0  0.47584  0.17487  0.42983  1.0000
  H   H119      1.0  0.31531  0.26853  0.22745  1.0000
  C   C63       1.0  0.04156  0.45874  0.43834  1.0000
  Fe  Fe12      1.0  0.46780  0.09597  0.43674  1.0000
  Fe  Fe13      1.0  0.24661  0.48596  0.24913  1.0000
  H   H120      1.0  0.38686  0.14439  0.39950  1.0000
  Fe  Fe14      1.0  0.44204  0.11336  0.40333  1.0000
  S   S19       1.0  0.40204  0.09041  0.38092  1.0000
  S   S20       1.0  0.42486  0.11507  0.42968  1.0000
  Fe  Fe15      1.0  0.30045  0.45332  0.24209  1.0000
  S   S21       1.0  0.32167  0.46101  0.26874  1.0000
  C   C64       1.0  0.28929  0.04011  0.39565  1.0000
  H   H121      1.0  0.11430  0.37949  0.29754  1.0000
  C   C65       1.0  0.49685  0.26986  0.43026  1.0000
  H   H122      1.0  0.19004  0.46786  0.32042  1.0000
  C   C66       1.0  0.13304  0.40854  0.25820  1.0000
  Fe  Fe16      1.0  0.25882  0.43682  0.27563  1.0000
  S   S22       1.0  0.23192  0.39701  0.29838  1.0000
  C   C67       1.0  0.38464  0.18256  0.41714  1.0000
  S   S23       1.0  0.23732  0.42588  0.24916  1.0000
  C   C68       1.0  0.30446  0.15693  0.37251  1.0000
  H   H123      1.0  0.07028  0.47971  0.27939  1.0000
  C   C69       1.0  0.35136  0.38980  0.23423  1.0000
  H   H124      1.0  0.27327  0.03533  0.40713  1.0000
  H   H125      1.0  0.34039  0.39266  0.24607  1.0000
  H   H126      1.0  0.37179  0.17871  0.35809  1.0000
  C   C70       1.0  0.35086  0.06580  0.38123  1.0000
  C   C71       1.0  0.33070  0.05257  0.36615  1.0000
  H   H127      1.0  0.06290  0.36405  0.31489  1.0000
  S   S24       1.0  0.40568  0.33411  0.21741  1.0000
  C   C72       1.0  0.32999  0.05996  0.39597  1.0000
  H   H128      1.0  0.34664  0.05724  0.35466  1.0000
  H   H129      1.0  0.04402  0.38890  0.30221  1.0000
  H   H130      1.0  0.34514  0.07095  0.40756  1.0000
  C   C73       1.0  0.09039  0.12671  0.35175  1.0000
  C   C74       1.0  0.10856  0.10813  0.35957  1.0000
  C   C75       1.0  0.11945  0.08586  0.35032  1.0000
  C   C76       1.0  0.11283  0.08253  0.33309  1.0000
  C   C77       1.0  0.09475  0.10118  0.32524  1.0000
  C   C78       1.0  0.08327  0.12291  0.33455  1.0000
  H   H131      1.0  0.11417  0.11090  0.37287  1.0000
  H   H132      1.0  0.13372  0.07195  0.35647  1.0000
  H   H133      1.0  0.08952  0.09870  0.31191  1.0000
  H   H134      1.0  0.06920  0.13688  0.32837  1.0000
  C   C79       1.0  0.10457  0.30336  0.30304  1.0000
  C   C80       1.0  0.12680  0.31952  0.31728  1.0000
  C   C81       1.0  0.16564  0.34855  0.31562  1.0000
  C   C82       1.0  0.18253  0.36181  0.29976  1.0000
  C   C83       1.0  0.16020  0.34593  0.28551  1.0000
  C   C84       1.0  0.12131  0.31693  0.28716  1.0000
  H   H135      1.0  0.11402  0.30975  0.32957  1.0000
  H   H136      1.0  0.18274  0.36085  0.32670  1.0000
  H   H137      1.0  0.17302  0.35568  0.27322  1.0000
  H   H138      1.0  0.10423  0.30459  0.27608  1.0000
  H   H139      1.0  0.05017  0.43282  0.41709  1.0000
  C   C85       1.0  0.17493  0.44723  0.31035  1.0000
  C   C86       1.0  0.09854  0.39451  0.29329  1.0000
  H   H140      1.0  0.01849  0.46462  0.43400  1.0000
  C   C87       1.0  0.07086  0.39073  0.30740  1.0000
  C   C88       1.0  0.15090  0.46075  0.29990  1.0000
  S   S25       1.0  0.44756  0.05026  0.45744  1.0000
  H   H141      1.0  0.08392  0.41381  0.31651  1.0000
  H   H142      1.0  0.02670  0.05219  0.35096  1.0000
  C   C89       1.0  0.34607  0.40713  0.21976  1.0000
  C   C90       1.0  0.36146  0.23724  0.39500  1.0000
  H   H143      1.0  0.15673  0.41883  0.31655  1.0000
  S   S26       1.0  0.48243  0.09109  0.41020  1.0000
  C   C91       1.0  0.36056  0.00888  0.42717  1.0000
  N   N6        1.0  0.16943  0.24170  0.31939  1.0000
  C   C92       1.0  0.14084  0.23662  0.33283  1.0000
  C   C93       1.0  0.14997  0.23862  0.30274  1.0000
  C   C94       1.0  0.20445  0.28113  0.32094  1.0000
  C   C95       1.0  0.18023  0.21098  0.32226  1.0000
  C   C96       1.0  0.15646  0.24379  0.35091  1.0000
  C   C97       1.0  0.11319  0.20012  0.29955  1.0000
  C   C98       1.0  0.22931  0.29976  0.30512  1.0000
  C   C99       1.0  0.20596  0.20764  0.30899  1.0000
  H   H144      1.0  0.12861  0.25582  0.33022  1.0000
  H   H145      1.0  0.11563  0.20709  0.33306  1.0000
  H   H146      1.0  0.16955  0.24395  0.29207  1.0000
  H   H147      1.0  0.14202  0.26144  0.30131  1.0000
  H   H148      1.0  0.19567  0.30201  0.32491  1.0000
  H   H149      1.0  0.22416  0.28106  0.33093  1.0000
  H   H150      1.0  0.19614  0.21531  0.33425  1.0000
  H   H151      1.0  0.15432  0.18226  0.32425  1.0000
  H   H152      1.0  0.18088  0.27322  0.35251  1.0000
  H   H153      1.0  0.13305  0.24041  0.35939  1.0000
  H   H154      1.0  0.16466  0.22239  0.35533  1.0000
  H   H155      1.0  0.08907  0.19574  0.30773  1.0000
  H   H156      1.0  0.10340  0.20054  0.28651  1.0000
  H   H157      1.0  0.11832  0.17551  0.30091  1.0000
  H   H158      1.0  0.21377  0.30805  0.29573  1.0000
  H   H159      1.0  0.23903  0.28144  0.29933  1.0000
  H   H160      1.0  0.25558  0.32681  0.30854  1.0000
  H   H161      1.0  0.23704  0.22725  0.31160  1.0000
  H   H162      1.0  0.19927  0.21255  0.29603  1.0000
  H   H163      1.0  0.20057  0.17772  0.30931  1.0000
  H   H164      1.0  0.35361  0.16603  0.42049  1.0000
  H   H165      1.0  0.36342  0.02379  0.41501  1.0000
  N   N7        1.0  0.12582  0.43425  0.28645  1.0000
  C   C100      1.0  0.03920  0.42357  0.42999  1.0000
  H   H166      1.0  0.11324  0.37774  0.26112  1.0000
  H   H167      1.0  0.31798  0.16087  0.39864  1.0000
  H   H168      1.0  0.13390  0.46657  0.30899  1.0000
  H   H169      1.0  0.38017  0.23197  0.37082  1.0000
  C   C101      1.0  0.38452  0.17174  0.36920  1.0000
  H   H170      1.0  0.34801  0.21943  0.40636  1.0000
  H   H171      1.0  0.31212  0.18655  0.36865  1.0000
  H   H172      1.0  0.43301  0.18616  0.35265  1.0000
  S   S27       1.0  0.01743  0.16779  0.32707  1.0000
  H   H173      1.0  0.30650  0.14168  0.36159  1.0000
  C   C102      1.0  0.15239  0.43123  0.27407  1.0000
  C   C103      1.0  0.43719  0.45606  0.45710  1.0000
  C   C104      1.0  0.38395  0.22404  0.38390  1.0000
  C   C105      1.0  0.47660  0.46906  0.45409  1.0000
  S   S28       1.0  0.47793  0.22608  0.44177  1.0000
  H   H174      1.0  0.17529  0.46017  0.26977  1.0000
  H   H175      1.0  0.48973  0.24538  0.40608  1.0000
  H   H176      1.0  0.01345  0.37622  0.45575  1.0000
  C   C106      1.0  0.32955  0.15574  0.38713  1.0000
  H   H177      1.0  0.16803  0.41747  0.27992  1.0000
  H   H178      1.0  0.27478  0.02302  0.35411  1.0000
  C   C107      1.0  0.10398  0.45100  0.27720  1.0000
  H   H179      1.0  0.40644  0.02472  0.39830  1.0000
  H   H180      1.0  0.07890  0.42837  0.27036  1.0000
  H   H181      1.0  0.07952  0.37609  0.28322  1.0000
  H   H182      1.0  0.11784  0.42086  0.25084  1.0000
  H   H183      1.0  0.27361  0.14155  0.37644  1.0000
  H   H184      1.0  0.15585  0.41014  0.24986  1.0000
  H   H185      1.0  0.31086  0.22225  0.22722  1.0000
  C   C108      1.0  0.31532  0.24706  0.21911  1.0000
  H   H186      1.0  0.38596  0.02982  0.43439  1.0000
  H   H187      1.0  0.37399  0.35467  0.24457  1.0000
  H   H188      1.0  0.12259  0.47230  0.26737  1.0000
  C   C109      1.0  0.38469  0.36405  0.21803  1.0000
  C   C110      1.0  0.42837  0.19144  0.36573  1.0000
  H   H189      1.0  0.32300  0.12547  0.38867  1.0000
  H   H190      1.0  0.44309  0.22287  0.36719  1.0000
  S   S29       1.0  0.26344  0.49468  0.27602  1.0000
  H   H191      1.0  0.04282  0.38572  0.40170  1.0000
  C   C111      1.0  0.37045  0.36830  0.23333  1.0000
  N   N8        1.0  0.37255  0.18218  0.38516  1.0000
  H   H192      1.0  0.41539  0.43315  0.44981  1.0000
  H   H193      1.0  0.39986  0.17358  0.42638  1.0000
  H   H194      1.0  0.33922  0.24004  0.38754  1.0000
  H   H195      1.0  0.37311  0.14029  0.36888  1.0000
  H   H196      1.0  0.44231  0.17884  0.37379  1.0000
  S   S30       1.0  0.48942  0.17483  0.40289  1.0000
  H   H197      1.0  0.06118  0.41789  0.43617  1.0000
  H   H198      1.0  0.01676  0.33494  0.40083  1.0000
  H   H199      1.0  0.38178  0.26654  0.39933  1.0000
  H   H200      1.0  0.39653  0.21365  0.41889  1.0000
  H   H201      1.0  0.19785  0.44687  0.30282  1.0000
  H   H202      1.0  0.17142  0.48935  0.29429  1.0000
  H   H203      1.0  0.06970  0.48452  0.43515  1.0000
  H   H204      1.0  0.42500  0.19267  0.39806  1.0000
  S   S31       1.0  0.32000  0.43241  0.21988  1.0000
  C   C112      1.0  0.39319  0.17464  0.39947  1.0000
  C   C113      1.0  0.48987  0.01561  0.44888  1.0000
  H   H205      1.0  0.41531  0.24236  0.38670  1.0000
  H   H206      1.0  0.02329  0.01673  0.32713  1.0000
  C   C114      1.0  0.08855  0.47228  0.28755  1.0000
  C   C115      1.0  0.29000  0.03322  0.36579  1.0000
  C   C116      1.0  0.46379  0.01673  0.46003  1.0000
  C   C117      1.0  0.26908  0.02664  0.38058  1.0000
  H   H207      1.0  0.48498  0.45620  0.44451  1.0000
  C   C118      1.0  0.01435  0.36017  0.40438  1.0000
  H   H208      1.0  0.43833  0.00615  0.39649  1.0000
  H   H209      1.0  0.00564  0.42177  0.39915  1.0000
  S   S32       1.0  0.20533  0.50393  0.23770  1.0000
  H   H210      1.0  0.47517  0.02696  0.22673  1.0000
  H   H211      1.0  0.11251  0.49989  0.29197  1.0000
  H   H212      1.0  0.32385  0.03194  0.43433  1.0000
  H   H213      1.0  0.02378  0.34974  0.43013  1.0000
  C   C119      1.0  0.00284  0.35540  0.42297  1.0000
  H   H214      1.0  0.04644  0.01980  0.36685  1.0000
  Fe  Fe17      1.0  0.13725  0.01017  0.33316  1.0000
  N   N9        1.0  0.00000  0.38780  0.43053  1.0000
  H   H215      1.0  0.00094  0.07148  0.32735  1.0000
  C   C120      1.0  0.49943  0.27133  0.41282  1.0000
  Fe  Fe18      1.0  0.46192  0.20623  0.68090  1.0000
  S   S33       1.0  0.47082  0.19911  0.65405  1.0000
  C   C121      1.0  0.05693  0.24457  0.58403  1.0000
  Fe  Fe19      1.0  0.42850  0.12097  0.68953  1.0000
  S   S34       1.0  0.43555  0.10724  0.66320  1.0000
  C   C122      1.0  0.30695  0.35445  0.49589  1.0000
  C   C123      1.0  0.37506  0.03159  0.71243  1.0000
  Fe  Fe20      1.0  0.41224  0.14637  0.65556  1.0000
  S   S35       1.0  0.37347  0.13337  0.63280  1.0000
  H   H216      1.0  0.37383  0.40045  0.53773  1.0000
  S   S36       1.0  0.40103  0.15646  0.68187  1.0000
  H   H217      1.0  0.00937  0.17876  0.64221  1.0000
  H   H218      1.0  0.41768  0.23615  0.61506  1.0000
  C   C124      1.0  0.00935  0.01840  0.61170  1.0000
  S   S37       1.0  0.23642  0.49796  0.49004  1.0000
  Fe  Fe21      1.0  0.28613  0.49255  0.50136  1.0000
  H   H219      1.0  0.38072  0.36370  0.47778  1.0000
  Fe  Fe22      1.0  0.31403  0.45404  0.52716  1.0000
  S   S38       1.0  0.30041  0.41254  0.54949  1.0000
  S   S39       1.0  0.29059  0.43885  0.50117  1.0000
  Fe  Fe23      1.0  0.20230  0.16321  0.60440  1.0000
  S   S40       1.0  0.21400  0.15445  0.57794  1.0000
  S   S41       1.0  0.24078  0.17644  0.62720  1.0000
  Fe  Fe24      1.0  0.12073  0.14725  0.59630  1.0000
  S   S42       1.0  0.12583  0.13737  0.56937  1.0000
  S   S43       1.0  0.06675  0.13912  0.60885  1.0000
  Fe  Fe25      1.0  0.15357  0.10373  0.57892  1.0000
  S   S44       1.0  0.13700  0.04691  0.56746  1.0000
  Fe  Fe26      1.0  0.18543  0.18915  0.57067  1.0000
  S   S45       1.0  0.20315  0.23071  0.54819  1.0000
  S   S46       1.0  0.14421  0.10990  0.60583  1.0000
  S   S47       1.0  0.17797  0.20161  0.59712  1.0000
  C   C125      1.0  0.27060  0.36219  0.54924  1.0000
  C   C126      1.0  0.26889  0.34025  0.56359  1.0000
  C   C127      1.0  0.24793  0.29995  0.56355  1.0000
  C   C128      1.0  0.22864  0.28122  0.54909  1.0000
  C   C129      1.0  0.22972  0.30312  0.53484  1.0000
  C   C130      1.0  0.25028  0.34345  0.53495  1.0000
  H   H220      1.0  0.28452  0.35456  0.57470  1.0000
  H   H221      1.0  0.24736  0.28339  0.57458  1.0000
  H   H222      1.0  0.21460  0.28881  0.52364  1.0000
  H   H223      1.0  0.25099  0.36000  0.52389  1.0000
  C   C131      1.0  0.02748  0.13734  0.57993  1.0000
  C   C132      1.0  0.02512  0.12657  0.59684  1.0000
  H   H224      1.0  0.36106  0.22660  0.63093  1.0000
  H   H225      1.0  0.05524  0.15177  0.57371  1.0000
  H   H226      1.0  0.42069  0.22265  0.63609  1.0000
  H   H227      1.0  0.28382  0.05374  0.64907  1.0000
  H   H228      1.0  0.03864  0.01028  0.56668  1.0000
  H   H229      1.0  0.11083  0.02714  0.60212  1.0000
  H   H230      1.0  0.45096  0.31148  0.64711  1.0000
  C   C133      1.0  0.33873  0.38045  0.50819  1.0000
  C   C134      1.0  0.17825  0.02417  0.63156  1.0000
  H   H231      1.0  0.26785  0.08411  0.59524  1.0000
  C   C135      1.0  0.33696  0.14581  0.63150  1.0000
  C   C136      1.0  0.32318  0.14948  0.61568  1.0000
  C   C137      1.0  0.29341  0.15855  0.61418  1.0000
  C   C138      1.0  0.27728  0.16397  0.62851  1.0000
  C   C139      1.0  0.29091  0.16008  0.64432  1.0000
  C   C140      1.0  0.32055  0.15087  0.64583  1.0000
  H   H232      1.0  0.33572  0.14543  0.60456  1.0000
  H   H233      1.0  0.28323  0.16169  0.60194  1.0000
  H   H234      1.0  0.27821  0.16386  0.65546  1.0000
  H   H235      1.0  0.33036  0.14718  0.65807  1.0000
  H   H236      1.0  0.35807  0.40727  0.50124  1.0000
  C   C141      1.0  0.36389  0.01171  0.69753  1.0000
  H   H237      1.0  0.37444  0.02711  0.68571  1.0000
  C   C142      1.0  0.39726  0.24565  0.66237  1.0000
  H   H238      1.0  0.41342  0.44457  0.51273  1.0000
  H   H239      1.0  0.20814  0.08326  0.64173  1.0000
  H   H240      1.0  0.21538  0.08830  0.61106  1.0000
  C   C143      1.0  0.24964  0.05501  0.62795  1.0000
  C   C144      1.0  0.42157  0.24609  0.62811  1.0000
  C   C145      1.0  0.35179  0.26730  0.65255  1.0000
  C   C146      1.0  0.33952  0.28846  0.63961  1.0000
  C   C147      1.0  0.38372  0.24475  0.68045  1.0000
  C   C148      1.0  0.42963  0.33384  0.66508  1.0000
  H   H241      1.0  0.35044  0.27806  0.66494  1.0000
  H   H242      1.0  0.32846  0.23674  0.65293  1.0000
  H   H243      1.0  0.31199  0.28621  0.64382  1.0000
  H   H244      1.0  0.36110  0.31936  0.63839  1.0000
  H   H245      1.0  0.35170  0.22922  0.68137  1.0000
  H   H246      1.0  0.39571  0.27346  0.68571  1.0000
  H   H247      1.0  0.39378  0.22862  0.68864  1.0000
  H   H248      1.0  0.44688  0.32778  0.67443  1.0000
  H   H249      1.0  0.40265  0.32927  0.67088  1.0000
  H   H250      1.0  0.44590  0.36490  0.66165  1.0000
  N   N10       1.0  0.36062  0.36313  0.51680  1.0000
  C   C149      1.0  0.33153  0.32883  0.52704  1.0000
  H   H251      1.0  0.49301  0.01101  0.71101  1.0000
  C   C150      1.0  0.38912  0.39163  0.52882  1.0000
  C   C151      1.0  0.38032  0.35016  0.50474  1.0000
  C   C152      1.0  0.34734  0.30674  0.53753  1.0000
  H   H252      1.0  0.45055  0.27188  0.62884  1.0000
  H   H253      1.0  0.42153  0.32771  0.63832  1.0000
  C   C153      1.0  0.17897  0.05807  0.64048  1.0000
  H   H254      1.0  0.31631  0.33752  0.53590  1.0000
  H   H255      1.0  0.30873  0.30722  0.51894  1.0000
  C   C154      1.0  0.42316  0.31071  0.64923  1.0000
  C   C155      1.0  0.46352  0.00697  0.70977  1.0000
  H   H256      1.0  0.40318  0.37870  0.53661  1.0000
  H   H257      1.0  0.40306  0.34638  0.51131  1.0000
  C   C156      1.0  0.42294  0.42844  0.52110  1.0000
  H   H258      1.0  0.32242  0.27998  0.54269  1.0000
  H   H259      1.0  0.36473  0.29812  0.53001  1.0000
  H   H260      1.0  0.36406  0.32302  0.54849  1.0000
  H   H261      1.0  0.42845  0.25427  0.66293  1.0000
  C   C157      1.0  0.38856  0.25401  0.63243  1.0000
  H   H262      1.0  0.05147  0.49978  0.54787  1.0000
  H   H263      1.0  0.05481  0.04636  0.58221  1.0000
  H   H264      1.0  0.05498  0.21626  0.58326  1.0000
  H   H265      1.0  0.43954  0.44793  0.53133  1.0000
  N   N11       1.0  0.12797  0.28086  0.57359  1.0000
  C   C158      1.0  0.14109  0.29177  0.59138  1.0000
  C   C159      1.0  0.08756  0.27486  0.57197  1.0000
  C   C160      1.0  0.15553  0.31360  0.56208  1.0000
  C   C161      1.0  0.12901  0.24468  0.57029  1.0000
  C   C162      1.0  0.18379  0.30390  0.59511  1.0000
  Fe  Fe27      1.0  0.49340  0.16118  0.66382  1.0000
  C   C163      1.0  0.13915  0.32117  0.54567  1.0000
  C   C164      1.0  0.11151  0.22561  0.55362  1.0000
  H   H266      1.0  0.13668  0.31585  0.59503  1.0000
  H   H267      1.0  0.12369  0.26754  0.60032  1.0000
  H   H268      1.0  0.07608  0.26624  0.55915  1.0000
  H   H269      1.0  0.08788  0.30232  0.57394  1.0000
  H   H270      1.0  0.16834  0.34148  0.56849  1.0000
  H   H271      1.0  0.18063  0.31027  0.55873  1.0000
  H   H272      1.0  0.15915  0.25003  0.57054  1.0000
  H   H273      1.0  0.11332  0.22278  0.58038  1.0000
  H   H274      1.0  0.20447  0.32944  0.58760  1.0000
  H   H275      1.0  0.18988  0.31157  0.60846  1.0000
  H   H276      1.0  0.18995  0.28031  0.59328  1.0000
  H   H277      1.0  0.02274  0.04747  0.60577  1.0000
  H   H278      1.0  0.06215  0.25394  0.59715  1.0000
  H   H279      1.0  0.40628  0.40604  0.48989  1.0000
  H   H280      1.0  0.12066  0.33390  0.54822  1.0000
  H   H281      1.0  0.12264  0.29557  0.53811  1.0000
  H   H282      1.0  0.16363  0.34251  0.53778  1.0000
  H   H283      1.0  0.11722  0.20147  0.55231  1.0000
  H   H284      1.0  0.12560  0.24470  0.54265  1.0000
  H   H285      1.0  0.07953  0.21204  0.55352  1.0000
  H   H286      1.0  0.23442  0.09041  0.58233  1.0000
  H   H287      1.0  0.38854  0.27367  0.62232  1.0000
  H   H288      1.0  0.33349  0.27502  0.62722  1.0000
  N   N12       1.0  0.39032  0.26993  0.64948  1.0000
  H   H289      1.0  0.32477  0.38951  0.51761  1.0000
  S   S48       1.0  0.48865  0.17193  0.69069  1.0000
  H   H290      1.0  0.01293  0.37707  0.68822  1.0000
  H   H291      1.0  0.23526  0.03936  0.65464  1.0000
  Fe  Fe28      1.0  0.35228  0.47740  0.49271  1.0000
  C   C165      1.0  0.20918  0.06044  0.60587  1.0000
  H   H292      1.0  0.02805  0.24044  0.58053  1.0000
  H   H293      1.0  0.35907  0.32142  0.50003  1.0000
  H   H294      1.0  0.05087  0.05803  0.56093  1.0000
  H   H295      1.0  0.16774  0.04896  0.65343  1.0000
  S   S49       1.0  0.37601  0.48959  0.51878  1.0000
  H   H296      1.0  0.24631  0.00712  0.64367  1.0000
  H   H297      1.0  0.38215  0.21513  0.65880  1.0000
  H   H298      1.0  0.27298  0.05722  0.61970  1.0000
  H   H299      1.0  0.17959  0.04837  0.60061  1.0000
  C   C166      1.0  0.03693  0.03526  0.57083  1.0000
  H   H300      1.0  0.44332  0.42226  0.51441  1.0000
  H   H301      1.0  0.42672  0.37667  0.48620  1.0000
  C   C167      1.0  0.25333  0.03726  0.64476  1.0000
  S   S50       1.0  0.40799  0.08134  0.71262  1.0000
  H   H302      1.0  0.03227  0.01589  0.61873  1.0000
  C   C168      1.0  0.23731  0.07004  0.59111  1.0000
  H   H303      1.0  0.16064  0.06773  0.63373  1.0000
  S   S51       1.0  0.48000  0.26306  0.69263  1.0000
  N   N13       1.0  0.21080  0.03443  0.61946  1.0000
  H   H304      1.0  0.23045  0.04442  0.58387  1.0000
  H   H305      1.0  0.25799  0.08507  0.63028  1.0000
  H   H306      1.0  0.28059  0.33277  0.50262  1.0000
  H   H307      1.0  0.29834  0.37225  0.48803  1.0000
  C   C169      1.0  0.39914  0.37599  0.48896  1.0000
  H   H308      1.0  0.31670  0.33995  0.48730  1.0000
  C   C170      1.0  0.01804  0.40219  0.71217  1.0000
  S   S52       1.0  0.37590  0.45544  0.47265  1.0000
  H   H309      1.0  0.46651  0.03573  0.71125  1.0000
  C   C171      1.0  0.42578  0.47269  0.46938  1.0000
  H   H310      1.0  0.14994  0.00968  0.62501  1.0000
  C   C172      1.0  0.45414  0.50218  0.47879  1.0000
  H   H311      1.0  0.45803  0.48985  0.69098  1.0000
  S   S53       1.0  0.06834  0.41904  0.71350  1.0000
  H   H312      1.0  0.41535  0.50226  0.70684  1.0000
  H   H313      1.0  0.02599  0.49783  0.56635  1.0000
  H   H314      1.0  0.04496  0.50291  0.59408  1.0000
  Fe  Fe29      1.0  0.45959  0.38876  0.93588  1.0000
  H   H315      1.0  0.22570  0.38236  0.81330  1.0000
  H   H316      1.0  0.37392  0.47291  0.73164  1.0000
  H   H317      1.0  0.23394  0.46187  0.82306  1.0000
  C   C173      1.0  0.06452  0.06953  0.88628  1.0000
  Fe  Fe30      1.0  0.47565  0.32348  0.92918  1.0000
  Fe  Fe31      1.0  0.43481  0.34769  0.90276  1.0000
  S   S54       1.0  0.39301  0.32859  0.88075  1.0000
  S   S55       1.0  0.42106  0.32691  0.92940  1.0000
  Fe  Fe32      1.0  0.17174  0.20561  0.85632  1.0000
  S   S56       1.0  0.18645  0.20333  0.82946  1.0000
  S   S57       1.0  0.20947  0.22410  0.87979  1.0000
  Fe  Fe33      1.0  0.08425  0.16447  0.84913  1.0000
  S   S58       1.0  0.09226  0.15979  0.82186  1.0000
  S   S59       1.0  0.02741  0.13460  0.86343  1.0000
  Fe  Fe34      1.0  0.13610  0.14317  0.82999  1.0000
  S   S60       1.0  0.13304  0.09166  0.81804  1.0000
  Fe  Fe35      1.0  0.14145  0.22039  0.82322  1.0000
  S   S61       1.0  0.15284  0.25947  0.80028  1.0000
  S   S62       1.0  0.12507  0.14379  0.85710  1.0000
  S   S63       1.0  0.12996  0.22680  0.85017  1.0000
  C   C174      1.0  0.10625  0.01447  0.85662  1.0000
  C   C175      1.0  0.03695  0.07038  0.92618  1.0000
  Fe  Fe36      1.0  0.13157  0.43461  0.77009  1.0000
  S   S64       1.0  0.14594  0.42593  0.74419  1.0000
  S   S65       1.0  0.11564  0.39494  0.79293  1.0000
  Fe  Fe37      1.0  0.19296  0.48762  0.74465  1.0000
  H   H318      1.0  0.32209  0.43567  0.91621  1.0000
  H   H319      1.0  0.45922  0.21168  0.87751  1.0000
  H   H320      1.0  0.43384  0.47933  0.72025  1.0000
  H   H321      1.0  0.30715  0.43661  0.80552  1.0000
  S   S66       1.0  0.08958  0.45369  0.76165  1.0000
  S   S67       1.0  0.18215  0.49423  0.77135  1.0000
  S   S68       1.0  0.47037  0.40996  0.90905  1.0000
  H   H322      1.0  0.03902  0.31838  0.78529  1.0000
  C   C176      1.0  0.09178  0.01384  0.82238  1.0000
  C   C177      1.0  0.03103  0.05645  0.83460  1.0000
  C   C178      1.0  0.12015  0.04920  0.84743  1.0000
  C   C179      1.0  0.11347  0.04891  0.83021  1.0000
  H   H323      1.0  0.42515  0.20378  0.90835  1.0000
  H   H324      1.0  0.13727  0.07612  0.85352  1.0000
  C   C180      1.0  0.38075  0.50274  0.73380  1.0000
  C   C181      1.0  0.13782  0.29386  0.79814  1.0000
  C   C182      1.0  0.12688  0.30656  0.81199  1.0000
  C   C183      1.0  0.11909  0.33693  0.81008  1.0000
  C   C184      1.0  0.12231  0.35484  0.79436  1.0000
  C   C185      1.0  0.13179  0.34123  0.78038  1.0000
  C   C186      1.0  0.13962  0.31084  0.78229  1.0000
  H   H325      1.0  0.12538  0.29362  0.82422  1.0000
  H   H326      1.0  0.11141  0.34717  0.82091  1.0000
  H   H327      1.0  0.13414  0.35472  0.76821  1.0000
  H   H328      1.0  0.14807  0.30105  0.77153  1.0000
  C   C187      1.0  0.34203  0.29941  0.88094  1.0000
  C   C188      1.0  0.32202  0.29262  0.86571  1.0000
  C   C189      1.0  0.28152  0.26947  0.86513  1.0000
  C   C190      1.0  0.26054  0.25304  0.87986  1.0000
  C   C191      1.0  0.28054  0.25994  0.89514  1.0000
  C   C192      1.0  0.32114  0.28289  0.89570  1.0000
  H   H329      1.0  0.33797  0.30521  0.85422  1.0000
  H   H330      1.0  0.26652  0.26439  0.85330  1.0000
  H   H331      1.0  0.26452  0.24729  0.90660  1.0000
  H   H332      1.0  0.33618  0.28769  0.90751  1.0000
  H   H333      1.0  0.38948  0.44270  0.93723  1.0000
  C   C193      1.0  0.23113  0.38740  0.79958  1.0000
  N   N14       1.0  0.34854  0.40169  0.91042  1.0000
  S   S69       1.0  0.48652  0.33942  0.90200  1.0000
  H   H334      1.0  0.07936  0.18608  0.90968  1.0000
  H   H335      1.0  0.06223  0.35556  0.76327  1.0000
  H   H336      1.0  0.27923  0.37473  0.79938  1.0000
  H   H337      1.0  0.03687  0.04066  0.82506  1.0000
  H   H338      1.0  0.43636  0.16561  0.86837  1.0000
  C   C194      1.0  0.36112  0.01124  0.72772  1.0000
  H   H339      1.0  0.13449  0.16599  0.89148  1.0000
  H   H340      1.0  0.07252  0.05264  0.87816  1.0000
  N   N15       1.0  0.39096  0.20942  0.88817  1.0000
  C   C195      1.0  0.39544  0.19894  0.90607  1.0000
  C   C196      1.0  0.39510  0.18182  0.87723  1.0000
  C   C197      1.0  0.35077  0.20394  0.88641  1.0000
  C   C198      1.0  0.42113  0.25064  0.88462  1.0000
  C   C199      1.0  0.38871  0.22120  0.91973  1.0000
  C   C200      1.0  0.33856  0.21073  0.86886  1.0000
  C   C201      1.0  0.43229  0.26350  0.86611  1.0000
  H   H341      1.0  0.37556  0.16786  0.90882  1.0000
  H   H342      1.0  0.22932  0.44021  0.75913  1.0000
  H   H343      1.0  0.39103  0.18644  0.86383  1.0000
  H   H344      1.0  0.37182  0.15190  0.88014  1.0000
  H   H345      1.0  0.32883  0.17446  0.89072  1.0000
  H   H346      1.0  0.34710  0.22394  0.89446  1.0000
  H   H347      1.0  0.41217  0.27013  0.89007  1.0000
  H   H348      1.0  0.44852  0.25713  0.89104  1.0000
  H   H349      1.0  0.35787  0.21319  0.92079  1.0000
  H   H350      1.0  0.39704  0.21391  0.93204  1.0000
  H   H351      1.0  0.40698  0.25254  0.91775  1.0000
  H   H352      1.0  0.35564  0.24122  0.86475  1.0000
  H   H353      1.0  0.30804  0.20430  0.86945  1.0000
  H   H354      1.0  0.33956  0.19178  0.85940  1.0000
  H   H355      1.0  0.43574  0.29251  0.86409  1.0000
  H   H356      1.0  0.41130  0.24517  0.85671  1.0000
  H   H357      1.0  0.46107  0.26689  0.86331  1.0000
  H   H358      1.0  0.29129  0.42809  0.77606  1.0000
  H   H359      1.0  0.20153  0.43087  0.78821  1.0000
  H   H360      1.0  0.40494  0.45206  0.90712  1.0000
  H   H361      1.0  0.34255  0.37046  0.94472  1.0000
  H   H362      1.0  0.21265  0.39251  0.76745  1.0000
  H   H363      1.0  0.32851  0.50146  0.79389  1.0000
  C   C202      1.0  0.23865  0.41959  0.76358  1.0000
  S   S70       1.0  0.47913  0.27384  0.94150  1.0000
  H   H364      1.0  0.04924  0.05165  0.92377  1.0000
  H   H365      1.0  0.05066  0.29592  0.74589  1.0000
  H   H366      1.0  0.36857  0.45297  0.89461  1.0000
  H   H367      1.0  0.28537  0.46824  0.77455  1.0000
  H   H368      1.0  0.17557  0.17986  0.91368  1.0000
  C   C203      1.0  0.00775  0.36312  0.78172  1.0000
  H   H369      1.0  0.35709  0.33754  0.93866  1.0000
  C   C204      1.0  0.37887  0.43345  0.89958  1.0000
  H   H370      1.0  0.36960  0.02651  0.73929  1.0000
  H   H371      1.0  0.04999  0.37256  0.74507  1.0000
  C   C205      1.0  0.05999  0.32548  0.74127  1.0000
  H   H372      1.0  0.33380  0.50183  0.81597  1.0000
  H   H373      1.0  0.19099  0.45626  0.81324  1.0000
  Fe  Fe38      1.0  0.10708  0.44902  0.73562  1.0000
  H   H374      1.0  0.23184  0.33376  0.79958  1.0000
  C   C206      1.0  0.24959  0.36347  0.79441  1.0000
  H   H375      1.0  0.31495  0.41266  0.87995  1.0000
  C   C207      1.0  0.26918  0.43700  0.77758  1.0000
  H   H376      1.0  0.09996  0.07029  0.90699  1.0000
  C   C208      1.0  0.43408  0.18235  0.87863  1.0000
  H   H377      1.0  0.43626  0.16851  0.89052  1.0000
  H   H378      1.0  0.24969  0.36122  0.78063  1.0000
  H   H379      1.0  0.20190  0.37408  0.79410  1.0000
  H   H380      1.0  0.05853  0.07408  0.84133  1.0000
  H   H381      1.0  0.27689  0.44023  0.82037  1.0000
  H   H382      1.0  0.00539  0.05276  0.92386  1.0000
  H   H383      1.0  0.35197  0.44570  0.94725  1.0000
  C   C209      1.0  0.34285  0.35374  0.93403  1.0000
  H   H384      1.0  0.03368  0.10250  0.90426  1.0000
  H   H385      1.0  0.03738  0.04891  0.89283  1.0000
  H   H386      1.0  0.37022  0.40481  0.87541  1.0000
  N   N16       1.0  0.09459  0.12151  0.90867  1.0000
  C   C210      1.0  0.10598  0.15629  0.89744  1.0000
  C   C211      1.0  0.09768  0.09185  0.89871  1.0000
  C   C212      1.0  0.12101  0.13130  0.92358  1.0000
  C   C213      1.0  0.05396  0.10694  0.91481  1.0000
  H   H387      1.0  0.09205  0.34175  0.74159  1.0000
  H   H388      1.0  0.28010  0.40229  0.89650  1.0000
  C   C214      1.0  0.16459  0.15089  0.91949  1.0000
  H   H389      1.0  0.37038  0.36188  0.91019  1.0000
  C   C215      1.0  0.21091  0.44438  0.81407  1.0000
  H   H390      1.0  0.08540  0.14918  0.88690  1.0000
  H   H391      1.0  0.18096  0.15465  0.93129  1.0000
  C   C216      1.0  0.48299  0.48732  0.95151  1.0000
  H   H392      1.0  0.17147  0.13343  0.91126  1.0000
  H   H393      1.0  0.11395  0.10500  0.93122  1.0000
  H   H394      1.0  0.05238  0.12891  0.92231  1.0000
  H   H395      1.0  0.12896  0.20204  0.91609  1.0000
  H   H396      1.0  0.30947  0.39715  0.93029  1.0000
  H   H397      1.0  0.29185  0.35134  0.90842  1.0000
  H   H398      1.0  0.27203  0.36720  0.88158  1.0000
  H   H399      1.0  0.03964  0.37988  0.78103  1.0000
  H   H400      1.0  0.01324  0.01672  0.85550  1.0000
  H   H401      1.0  0.12496  0.10530  0.89127  1.0000
  H   H402      1.0  0.05892  0.08875  0.87798  1.0000
  C   C217      1.0  0.36517  0.44803  0.93482  1.0000
  H   H403      1.0  0.40598  0.40279  0.88883  1.0000
  H   H404      1.0  0.24140  0.47642  0.79178  1.0000
  C   C218      1.0  0.22712  0.44616  0.79649  1.0000
  N   N17       1.0  0.25363  0.42966  0.79518  1.0000
  H   H405      1.0  0.08628  0.01350  0.80908  1.0000
  H   H406      1.0  0.19705  0.02335  0.79002  1.0000
  C   C219      1.0  0.28703  0.44792  0.80718  1.0000
  H   H407      1.0  0.39579  0.39989  0.92367  1.0000
  C   C220      1.0  0.04388  0.34563  0.75199  1.0000
  H   H408      1.0  0.25116  0.41249  0.75288  1.0000
  H   H409      1.0  0.32350  0.35731  0.89199  1.0000
  C   C221      1.0  0.36615  0.38013  0.91911  1.0000
  C   C222      1.0  0.10816  0.19151  0.90560  1.0000
  H   H410      1.0  0.00695  0.14830  0.82975  1.0000
  C   C223      1.0  0.31480  0.37357  0.90019  1.0000
  H   H411      1.0  0.11870  0.21527  0.89605  1.0000
  C   C224      1.0  0.31201  0.49192  0.80578  1.0000
  C   C225      1.0  0.48863  0.02555  0.95365  1.0000
  H   H412      1.0  0.04164  0.07791  0.93957  1.0000
  C   C226      1.0  0.29482  0.39056  0.88902  1.0000
  H   H413      1.0  0.41651  0.44627  0.87805  1.0000
  H   H414      1.0  0.01340  0.42407  0.73567  1.0000
  H   H415      1.0  0.05153  0.32517  0.72797  1.0000
  H   H416      1.0  0.04039  0.27939  0.77534  1.0000
  H   H417      1.0  0.19357  0.41448  0.81897  1.0000
  N   N18       1.0  0.00140  0.32220  0.75617  1.0000
  H   H418      1.0  0.11654  0.14992  0.93220  1.0000
  H   H419      1.0  0.11254  0.01477  0.86983  1.0000
  C   C227      1.0  0.33432  0.41934  0.92281  1.0000
  C   C228      1.0  0.39327  0.42059  0.88466  1.0000
  H   H420      1.0  0.02335  0.07682  0.82837  1.0000
  H   H421      1.0  0.37742  0.47791  0.92983  1.0000
  C   C229      1.0  0.16503  0.00714  0.79064  1.0000
  H   H422      1.0  0.31295  0.33242  0.93052  1.0000
  H   H423      1.0  0.00549  0.27013  0.79084  1.0000
  H   H424      1.0  0.36153  0.50128  0.74407  1.0000
  H   H425      1.0  0.49654  0.04621  0.94336  1.0000
  C   C230      1.0  0.02122  0.28971  0.78009  1.0000
  C   C231      1.0  0.49908  0.25013  0.93072  1.0000
  H   H426      1.0  0.15538  0.02865  0.79151  1.0000
  H   H427      1.0  0.49722  0.48064  0.94183  1.0000
  C   C232      1.0  0.45173  0.45773  0.96022  1.0000
  S   S71       1.0  0.43405  0.40907  0.95570  1.0000
  C   C233      1.0  0.99986  0.02974  0.84735  1.0000
  Fe  Fe39      1.0  0.12597  0.55696  0.02189  1.0000
  S   S72       1.0  0.15296  0.61298  0.03539  1.0000
  S   S73       1.0  0.13512  0.55059  0.99486  1.0000
  Fe  Fe40      1.0  0.36698  0.89593  0.99545  1.0000
  S   S74       1.0  0.39143  0.90482  0.02149  1.0000
  H   H428      1.0  0.31211  0.98104  0.98066  1.0000
  Fe  Fe41      1.0  0.29532  0.82052  0.00554  1.0000
  S   S75       1.0  0.31406  0.82429  0.03219  1.0000
  S   S76       1.0  0.24017  0.77189  0.99538  1.0000
  Fe  Fe42      1.0  0.33072  0.88641  0.02987  1.0000
  S   S77       1.0  0.31951  0.91584  0.05121  1.0000
  Fe  Fe43      1.0  0.37234  0.84185  0.02140  1.0000
  S   S78       1.0  0.40174  0.81226  0.03423  1.0000
  S   S79       1.0  0.30741  0.88133  0.00393  1.0000
  S   S80       1.0  0.35256  0.83433  0.99469  1.0000
  H   H429      1.0  0.36612  0.63280  0.01022  1.0000
  H   H430      1.0  0.45854  0.74398  0.20072  1.0000
  Fe  Fe44      1.0  0.12000  0.98280  0.10073  1.0000
  S   S81       1.0  0.06314  0.94115  0.11343  1.0000
  C   C234      1.0  0.35261  0.64910  0.00480  1.0000
  Fe  Fe45      1.0  0.41679  0.59579  0.02028  1.0000
  S   S82       1.0  0.42603  0.61626  0.99341  1.0000
  S   S83       1.0  0.35894  0.56393  0.03343  1.0000
  Fe  Fe46      1.0  0.46811  0.67327  0.00385  1.0000
  H   H431      1.0  0.27305  0.70481  0.99019  1.0000
  C   C235      1.0  0.31503  0.54346  0.00467  1.0000
  S   S84       1.0  0.45596  0.65366  0.03066  1.0000
  S   S85       1.0  0.46311  0.57910  0.02042  1.0000
  H   H432      1.0  0.34033  0.54660  0.99838  1.0000
  H   H433      1.0  0.47024  0.77340  0.14256  1.0000
  H   H434      1.0  0.47230  0.78649  0.21168  1.0000
  H   H435      1.0  0.26062  0.65564  0.04473  1.0000
  C   C236      1.0  0.02109  0.90673  0.08505  1.0000
  C   C237      1.0  0.02031  0.91503  0.10183  1.0000
  H   H436      1.0  0.46016  0.00060  0.01463  1.0000
  H   H437      1.0  0.04852  0.91742  0.07872  1.0000
  C   C238      1.0  0.46764  0.97168  0.98029  1.0000
  C   C239      1.0  0.41823  0.78714  0.02232  1.0000
  H   H438      1.0  0.07459  0.77508  0.21420  1.0000
  S   S86       1.0  0.47018  0.72714  0.99329  1.0000
  C   C240      1.0  0.44801  0.74828  0.00440  1.0000
  C   C241      1.0  0.44213  0.77655  0.99643  1.0000
  C   C242      1.0  0.42684  0.79565  0.00531  1.0000
  H   H439      1.0  0.41737  0.75212  0.04344  1.0000
  H   H440      1.0  0.44281  0.71748  0.02760  1.0000
  H   H441      1.0  0.42272  0.81764  0.99910  1.0000
  C   C243      1.0  0.28636  0.93314  0.05159  1.0000
  C   C244      1.0  0.28094  0.94712  0.06660  1.0000
  C   C245      1.0  0.25532  0.96168  0.06745  1.0000
  C   C246      1.0  0.23505  0.96268  0.05321  1.0000
  C   C247      1.0  0.24052  0.94872  0.03818  1.0000
  C   C248      1.0  0.26589  0.93386  0.03737  1.0000
  H   H442      1.0  0.29664  0.94668  0.07767  1.0000
  H   H443      1.0  0.35503  0.72311  0.00169  1.0000
  H   H444      1.0  0.22500  0.94945  0.02710  1.0000
  H   H445      1.0  0.26983  0.92329  0.02573  1.0000
  C   C249      1.0  0.43832  0.73906  0.02130  1.0000
  C   C250      1.0  0.24692  0.52563  0.00403  1.0000
  H   H446      1.0  0.45975  0.95104  0.99059  1.0000
  C   C251      1.0  0.31670  0.55091  0.02170  1.0000
  H   H447      1.0  0.27863  0.52362  0.98287  1.0000
  C   C252      1.0  0.25733  0.62108  0.99496  1.0000
  H   H448      1.0  0.45993  0.74524  0.17026  1.0000
  C   C253      1.0  0.28366  0.54652  0.02976  1.0000
  H   H449      1.0  0.38791  0.97267  0.00596  1.0000
  C   C254      1.0  0.45975  0.77229  0.19970  1.0000
  H   H450      1.0  0.30886  0.97107  0.00262  1.0000
  C   C255      1.0  0.17844  0.65635  0.02382  1.0000
  C   C256      1.0  0.17152  0.65892  0.00678  1.0000
  C   C257      1.0  0.19094  0.69446  0.99811  1.0000
  C   C258      1.0  0.21805  0.72736  0.00631  1.0000
  C   C259      1.0  0.22567  0.72454  0.02324  1.0000
  C   C260      1.0  0.20557  0.68926  0.03201  1.0000
  H   H451      1.0  0.15046  0.63373  0.00038  1.0000
  H   H452      1.0  0.18482  0.69648  0.98501  1.0000
  H   H453      1.0  0.24647  0.74961  0.02967  1.0000
  H   H454      1.0  0.21101  0.68740  0.04520  1.0000
  C   C261      1.0  0.32891  0.98080  0.99181  1.0000
  Fe  Fe47      1.0  0.47558  0.60429  0.99421  1.0000
  Fe  Fe48      1.0  0.15187  0.50781  0.00430  1.0000
  S   S87       1.0  0.38952  0.93813  0.97332  1.0000
  H   H455      1.0  0.31285  0.62825  0.02559  1.0000
  H   H456      1.0  0.46221  0.83430  0.17951  1.0000
  H   H457      1.0  0.29670  0.69693  0.05491  1.0000
  H   H458      1.0  0.44969  0.78392  0.98337  1.0000
  N   N19       1.0  0.48480  0.79600  0.18512  1.0000
  H   H459      1.0  0.30725  0.74553  0.00209  1.0000
  H   H460      1.0  0.47683  0.97437  0.21215  1.0000
  H   H461      1.0  0.00047  0.51538  0.99629  1.0000
  H   H462      1.0  0.30772  0.66084  0.04926  1.0000
  C   C262      1.0  0.24907  0.53459  0.02088  1.0000
  N   N20       1.0  0.30670  0.67458  0.01385  1.0000
  C   C263      1.0  0.30723  0.69813  0.02827  1.0000
  C   C264      1.0  0.32444  0.70155  0.99895  1.0000
  C   C265      1.0  0.33076  0.65614  0.01880  1.0000
  C   C266      1.0  0.26521  0.64459  0.01075  1.0000
  C   C267      1.0  0.29217  0.67610  0.04515  1.0000
  H   H463      1.0  0.22585  0.60038  0.99424  1.0000
  H   H464      1.0  0.31792  0.74012  0.98124  1.0000
  H   H465      1.0  0.43225  0.51195  0.98629  1.0000
  H   H466      1.0  0.28917  0.71159  0.02557  1.0000
  H   H467      1.0  0.28487  0.55240  0.04292  1.0000
  H   H468      1.0  0.22391  0.53147  0.02720  1.0000
  H   H469      1.0  0.25354  0.62334  0.02137  1.0000
  H   H470      1.0  0.24646  0.65784  0.01005  1.0000
  C   C268      1.0  0.43897  0.97112  0.96985  1.0000
  S   S88       1.0  0.12608  0.99879  0.07346  1.0000
  H   H471      1.0  0.33815  0.95960  0.98946  1.0000
  S   S89       1.0  0.20280  0.98110  0.05347  1.0000
  H   H472      1.0  0.42369  0.98691  0.03072  1.0000
  C   C269      1.0  0.30404  0.72391  0.99300  1.0000
  H   H473      1.0  0.34781  0.98108  0.02505  1.0000
  H   H474      1.0  0.33708  0.72232  0.03034  1.0000
  H   H475      1.0  0.25137  0.97228  0.07909  1.0000
  H   H476      1.0  0.26516  0.63910  0.98334  1.0000
  H   H477      1.0  0.35392  0.67415  0.02778  1.0000
  H   H478      1.0  0.02643  0.98087  0.06561  1.0000
  C   C270      1.0  0.40946  0.00371  0.00633  1.0000
  S   S90       1.0  0.17713  0.98389  0.10245  1.0000
  H   H479      1.0  0.00971  0.82476  0.11119  1.0000
  C   C271      1.0  0.47783  0.53484  0.96793  1.0000
  C   C272      1.0  0.42397  0.75878  0.03027  1.0000
  S   S91       1.0  0.14694  0.51741  0.03124  1.0000
  N   N21       1.0  0.17978  0.80759  0.03433  1.0000
  C   C273      1.0  0.17807  0.83240  0.02010  1.0000
  C   C274      1.0  0.15876  0.81184  0.04891  1.0000
  C   C275      1.0  0.15908  0.76665  0.02873  1.0000
  C   C276      1.0  0.22178  0.82089  0.03795  1.0000
  C   C277      1.0  0.19282  0.82834  0.00297  1.0000
  C   C278      1.0  0.17726  0.85237  0.05604  1.0000
  C   C279      1.0  0.14785  0.73485  0.04233  1.0000
  C   C280      1.0  0.23175  0.80694  0.05455  1.0000
  H   H480      1.0  0.14787  0.82654  0.01813  1.0000
  H   H481      1.0  0.19533  0.86330  0.02302  1.0000
  H   H482      1.0  0.15539  0.79210  0.05953  1.0000
  H   H483      1.0  0.12847  0.80333  0.04533  1.0000
  H   H484      1.0  0.13169  0.76012  0.02218  1.0000
  H   H485      1.0  0.17679  0.76215  0.01941  1.0000
  H   H486      1.0  0.23447  0.81228  0.02782  1.0000
  H   H487      1.0  0.23943  0.85271  0.03748  1.0000
  H   H488      1.0  0.22302  0.83425  0.00357  1.0000
  H   H489      1.0  0.17420  0.79966  0.99772  1.0000
  H   H490      1.0  0.19231  0.84959  0.99391  1.0000
  H   H491      1.0  0.16161  0.85135  0.06760  1.0000
  H   H492      1.0  0.20796  0.86356  0.05954  1.0000
  H   H493      1.0  0.17479  0.87294  0.04726  1.0000
  H   H494      1.0  0.13649  0.70695  0.03612  1.0000
  H   H495      1.0  0.12428  0.73213  0.05048  1.0000
  H   H496      1.0  0.17265  0.73841  0.04994  1.0000
  H   H497      1.0  0.23676  0.78263  0.05243  1.0000
  H   H498      1.0  0.21036  0.79864  0.06466  1.0000
  H   H499      1.0  0.25896  0.83063  0.05964  1.0000
  H   H500      1.0  0.32577  0.68624  0.98790  1.0000
  H   H501      1.0  0.33384  0.63226  0.99447  1.0000
  S   S92       1.0  0.49593  0.58349  0.97256  1.0000
  S   S93       1.0  0.06317  0.51077  0.02235  1.0000
  H   H502      1.0  0.39989  0.74365  0.19006  1.0000
  H   H503      1.0  0.40428  0.75107  0.21191  1.0000
  C   C281      1.0  0.41769  0.76444  0.19965  1.0000
  H   H504      1.0  0.00734  0.98618  0.10110  1.0000
  H   H505      1.0  0.27187  0.60381  0.99545  1.0000
  H   H506      1.0  0.41605  0.79107  0.19811  1.0000
  Fe  Fe49      1.0  0.18533  0.00442  0.07545  1.0000
  C   C282      1.0  0.46535  0.77524  0.16941  1.0000
  C   C283      1.0  0.28007  0.53038  0.99593  1.0000
  H   H507      1.0  0.37656  0.67643  0.99962  1.0000
  H   H508      1.0  0.43654  0.77301  0.16784  1.0000
  H   H509      1.0  0.00527  0.65615  0.19300  1.0000
  S   S94       1.0  0.20296  0.50668  0.99298  1.0000
  H   H510      1.0  0.48683  0.82036  0.14966  1.0000
  C   C284      1.0  0.48653  0.79315  0.15277  1.0000
  H   H511      1.0  0.48937  0.84404  0.19827  1.0000
  C   C285      1.0  0.48833  0.83516  0.18514  1.0000
  C   C286      1.0  0.44645  0.50526  0.97660  1.0000
  Fe  Fe50      1.0  0.14863  0.94177  0.32551  1.0000
  S   S95       1.0  0.13883  0.92069  0.35235  1.0000
  S   S96       1.0  0.15751  0.91299  0.30316  1.0000
  H   H512      1.0  0.24642  0.61554  0.25336  1.0000
  H   H513      1.0  0.05918  0.73106  0.25641  1.0000
  S   S97       1.0  0.06039  0.66772  0.21861  1.0000
  H   H514      1.0  0.26631  0.60587  0.27699  1.0000
  Fe  Fe51      1.0  0.09013  0.93397  0.35174  1.0000
  S   S98       1.0  0.03165  0.89614  0.36390  1.0000
  H   H515      1.0  0.03793  0.82873  0.30048  1.0000
  S   S99       1.0  0.09733  0.95072  0.32458  1.0000
  S   S100      1.0  0.36720  0.57402  0.27864  1.0000
  Fe  Fe52      1.0  0.18611  0.72194  0.24945  1.0000
  S   S101      1.0  0.17589  0.70155  0.27619  1.0000
  S   S102      1.0  0.24477  0.76198  0.23808  1.0000
  Fe  Fe53      1.0  0.10007  0.67599  0.24077  1.0000
  S   S103      1.0  0.08360  0.65172  0.26701  1.0000
  C   C287      1.0  0.36686  0.92159  0.44465  1.0000
  Fe  Fe54      1.0  0.12533  0.71182  0.27500  1.0000
  S   S104      1.0  0.11130  0.73798  0.29684  1.0000
  Fe  Fe55      1.0  0.13578  0.64379  0.26581  1.0000
  S   S105      1.0  0.14073  0.59436  0.27763  1.0000
  S   S106      1.0  0.13859  0.73667  0.24890  1.0000
  S   S107      1.0  0.14918  0.66363  0.23898  1.0000
  Fe  Fe56      1.0  0.45409  0.83240  0.26682  1.0000
  S   S108      1.0  0.45796  0.82196  0.23982  1.0000
  S   S109      1.0  0.39963  0.82259  0.27972  1.0000
  S   S110      1.0  0.46637  0.73000  0.23731  1.0000
  S   S111      1.0  0.47665  0.79405  0.27604  1.0000
  C   C288      1.0  0.28743  0.77760  0.24983  1.0000
  C   C289      1.0  0.32322  0.79958  0.24179  1.0000
  C   C290      1.0  0.35786  0.81289  0.25078  1.0000
  C   C291      1.0  0.35686  0.80473  0.26794  1.0000
  C   C292      1.0  0.32108  0.78282  0.27601  1.0000
  C   C293      1.0  0.28646  0.76884  0.26695  1.0000
  H   H516      1.0  0.31447  0.72196  0.25385  1.0000
  H   H517      1.0  0.38532  0.83015  0.24452  1.0000
  H   H518      1.0  0.32021  0.77638  0.28929  1.0000
  H   H519      1.0  0.25916  0.75137  0.27323  1.0000
  C   C294      1.0  0.36834  0.72796  0.24661  1.0000
  S   S112      1.0  0.30753  0.51263  0.23963  1.0000
  C   C295      1.0  0.39219  0.61682  0.26654  1.0000
  C   C296      1.0  0.40468  0.65191  0.27421  1.0000
  C   C297      1.0  0.42630  0.68670  0.26522  1.0000
  C   C298      1.0  0.43671  0.68675  0.24860  1.0000
  C   C299      1.0  0.42386  0.65166  0.24085  1.0000
  C   C300      1.0  0.40132  0.61677  0.24973  1.0000
  H   H520      1.0  0.39753  0.65212  0.28719  1.0000
  H   H521      1.0  0.43525  0.71337  0.27126  1.0000
  H   H522      1.0  0.39200  0.58984  0.24373  1.0000
  Fe  Fe57      1.0  0.48439  0.78698  0.24907  1.0000
  C   C301      1.0  0.19848  0.53905  0.26563  1.0000
  C   C302      1.0  0.18320  0.55835  0.27437  1.0000
  C   C303      1.0  0.16086  0.57184  0.26607  1.0000
  C   C304      1.0  0.15398  0.56600  0.24894  1.0000
  C   C305      1.0  0.16819  0.54555  0.24033  1.0000
  H   H523      1.0  0.18897  0.56314  0.28758  1.0000
  H   H524      1.0  0.13673  0.57622  0.24242  1.0000
  C   C306      1.0  0.47792  0.53792  0.42307  1.0000
  S   S113      1.0  0.21790  0.00132  0.38097  1.0000
  C   C307      1.0  0.22543  0.80701  0.28560  1.0000
  H   H525      1.0  0.46767  0.85388  0.45452  1.0000
  H   H526      1.0  0.08127  0.74539  0.22915  1.0000
  C   C308      1.0  0.22934  0.78884  0.30232  1.0000
  C   C309      1.0  0.14335  0.86394  0.30173  1.0000
  C   C310      1.0  0.13557  0.83998  0.31591  1.0000
  C   C311      1.0  0.12589  0.80150  0.31419  1.0000
  C   C312      1.0  0.12425  0.78670  0.29834  1.0000
  C   C313      1.0  0.13203  0.81065  0.28416  1.0000
  C   C314      1.0  0.14153  0.84907  0.28587  1.0000
  H   H527      1.0  0.13781  0.85133  0.32820  1.0000
  H   H528      1.0  0.12015  0.78320  0.32524  1.0000
  H   H529      1.0  0.13073  0.79957  0.27189  1.0000
  H   H530      1.0  0.14771  0.86751  0.27485  1.0000
  C   C315      1.0  0.00999  0.63569  0.21767  1.0000
  H   H531      1.0  0.30711  0.93710  0.38978  1.0000
  H   H532      1.0  0.31412  0.61191  0.27968  1.0000
  H   H533      1.0  0.27089  0.59141  0.23416  1.0000
  C   C316      1.0  0.42594  0.80115  0.44354  1.0000
  H   H534      1.0  0.28863  0.95877  0.40286  1.0000
  H   H535      1.0  0.31445  0.58948  0.23568  1.0000
  C   C317      1.0  0.04294  0.83821  0.32785  1.0000
  H   H536      1.0  0.06779  0.87694  0.30629  1.0000
  H   H537      1.0  0.25818  0.79121  0.30364  1.0000
  H   H538      1.0  0.04756  0.99542  0.34831  1.0000
  H   H539      1.0  0.20779  0.75780  0.30260  1.0000
  H   H540      1.0  0.16179  0.54015  0.22719  1.0000
  H   H541      1.0  0.30249  0.92701  0.42346  1.0000
  C   C318      1.0  0.40829  0.99827  0.39990  1.0000
  C   C319      1.0  0.02232  0.73648  0.22807  1.0000
  H   H542      1.0  0.46239  0.52415  0.43494  1.0000
  C   C320      1.0  0.06657  0.76241  0.22706  1.0000
  C   C321      1.0  0.19021  0.53168  0.24867  1.0000
  N   N22       1.0  0.36188  0.97234  0.42546  1.0000
  C   C322      1.0  0.29620  0.62584  0.28080  1.0000
  H   H543      1.0  0.04698  0.80966  0.25109  1.0000
  N   N23       1.0  0.25039  0.84998  0.28367  1.0000
  C   C323      1.0  0.23837  0.86216  0.26770  1.0000
  C   C324      1.0  0.24286  0.86775  0.29852  1.0000
  C   C325      1.0  0.29198  0.85924  0.28324  1.0000
  C   C326      1.0  0.24249  0.84463  0.25155  1.0000
  C   C327      1.0  0.25061  0.90921  0.29623  1.0000
  C   C328      1.0  0.32300  0.90140  0.28000  1.0000
  H   H544      1.0  0.25452  0.89361  0.26555  1.0000
  H   H545      1.0  0.20758  0.85482  0.26859  1.0000
  H   H546      1.0  0.21196  0.85073  0.30246  1.0000
  H   H547      1.0  0.25993  0.86721  0.30956  1.0000
  H   H548      1.0  0.30013  0.85091  0.29536  1.0000
  H   H549      1.0  0.29657  0.84153  0.27415  1.0000
  H   H550      1.0  0.27197  0.84897  0.24986  1.0000
  H   H551      1.0  0.22084  0.81374  0.25106  1.0000
  H   H552      1.0  0.23662  0.85866  0.24060  1.0000
  H   H553      1.0  0.22919  0.91071  0.28766  1.0000
  H   H554      1.0  0.28018  0.92950  0.29179  1.0000
  H   H555      1.0  0.24686  0.91926  0.30847  1.0000
  H   H556      1.0  0.33147  0.91727  0.29183  1.0000
  H   H557      1.0  0.31455  0.91660  0.27063  1.0000
  H   H558      1.0  0.34901  0.90235  0.27457  1.0000
  H   H559      1.0  0.47883  0.78196  0.45034  1.0000
  H   H560      1.0  0.49853  0.69202  0.31201  1.0000
  H   H561      1.0  0.29709  0.98179  0.43049  1.0000
  N   N24       1.0  0.00478  0.72126  0.24517  1.0000
  H   H562      1.0  0.03686  0.97181  0.36837  1.0000
  C   C329      1.0  0.48779  0.96183  0.46493  1.0000
  H   H563      1.0  0.33110  0.94627  0.44872  1.0000
  H   H564      1.0  0.28856  0.58507  0.25430  1.0000
  C   C330      1.0  0.32863  0.94290  0.41537  1.0000
  H   H565      1.0  0.33703  0.98590  0.39456  1.0000
  H   H566      1.0  0.45906  0.85768  0.43293  1.0000
  C   C331      1.0  0.24162  0.66464  0.25851  1.0000
  C   C332      1.0  0.04068  0.85002  0.30951  1.0000
  H   H567      1.0  0.07226  0.84187  0.32972  1.0000
  H   H568      1.0  0.46815  0.51503  0.41377  1.0000
  H   H569      1.0  0.00493  0.74151  0.33656  1.0000
  H   H570      1.0  0.35832  0.90854  0.45744  1.0000
  H   H571      1.0  0.19436  0.79824  0.28415  1.0000
  H   H572      1.0  0.29394  0.63058  0.29424  1.0000
  H   H573      1.0  0.43163  0.65134  0.22798  1.0000
  H   H574      1.0  0.37799  0.75648  0.24058  1.0000
  H   H575      1.0  0.33543  0.92092  0.41099  1.0000
  C   C333      1.0  0.01395  0.69133  0.27268  1.0000
  H   H576      1.0  0.21620  0.52948  0.27210  1.0000
  C   C334      1.0  0.40029  0.98185  0.41797  1.0000
  S   S114      1.0  0.19014  0.00355  0.33163  1.0000
  H   H577      1.0  0.34956  0.89902  0.43563  1.0000
  H   H578      1.0  0.24487  0.66434  0.27229  1.0000
  H   H579      1.0  0.02794  0.79613  0.27198  1.0000
  N   N25       1.0  0.30507  0.66413  0.25281  1.0000
  C   C335      1.0  0.32373  0.70516  0.24637  1.0000
  C   C336      1.0  0.26223  0.64627  0.24967  1.0000
  C   C337      1.0  0.32158  0.64399  0.24304  1.0000
  C   C338      1.0  0.31456  0.66463  0.27114  1.0000
  H   H580      1.0  0.31282  0.65541  0.46445  1.0000
  Fe  Fe58      1.0  0.32411  0.51829  0.26667  1.0000
  C   C339      1.0  0.01041  0.79877  0.35274  1.0000
  N   N26       1.0  0.01215  0.79883  0.33387  1.0000
  C   C340      1.0  0.46414  0.83977  0.44238  1.0000
  H   H581      1.0  0.00493  0.60920  0.24202  1.0000
  H   H582      1.0  0.35015  0.65032  0.24815  1.0000
  H   H583      1.0  0.25659  0.64693  0.23601  1.0000
  H   H584      1.0  0.32415  0.80643  0.22856  1.0000
  C   C341      1.0  0.04922  0.81312  0.36202  1.0000
  C   C342      1.0  0.35988  0.95601  0.44296  1.0000
  H   H585      1.0  0.30827  0.68454  0.27803  1.0000
  C   C343      1.0  0.03243  0.99228  0.36028  1.0000
  H   H586      1.0  0.25099  0.69395  0.25359  1.0000
  H   H587      1.0  0.39805  0.93089  0.44338  1.0000
  S   S115      1.0  0.12701  0.99390  0.36036  1.0000
  C   C344      1.0  0.29704  0.60005  0.24197  1.0000
  H   H588      1.0  0.01563  0.71234  0.21968  1.0000
  H   H589      1.0  0.05892  0.78049  0.26484  1.0000
  H   H590      1.0  0.38159  0.71427  0.23947  1.0000
  H   H591      1.0  0.38108  0.97837  0.45132  1.0000
  C   C345      1.0  0.03556  0.78598  0.26067  1.0000
  H   H592      1.0  0.42047  0.78402  0.43224  1.0000
  H   H593      1.0  0.01030  0.71163  0.28040  1.0000
  H   H594      1.0  0.23159  0.79232  0.27557  1.0000
  H   H595      1.0  0.40352  0.95601  0.41758  1.0000
  H   H596      1.0  0.31443  0.70663  0.23328  1.0000
  H   H597      1.0  0.47512  0.70602  0.29670  1.0000
  H   H598      1.0  0.06314  0.79588  0.35945  1.0000
  Fe  Fe59      1.0  0.17710  0.98293  0.35855  1.0000
  H   H599      1.0  0.42498  0.78403  0.45488  1.0000
  H   H600      1.0  0.34622  0.67694  0.27286  1.0000
  H   H601      1.0  0.37994  0.73327  0.25953  1.0000
  H   H602      1.0  0.22290  0.80072  0.31335  1.0000
  C   C346      1.0  0.31535  0.95784  0.39997  1.0000
  H   H603      1.0  0.21025  0.64788  0.25584  1.0000
  C   C347      1.0  0.02884  0.70798  0.25497  1.0000
  H   H604      1.0  0.04761  0.77827  0.30413  1.0000
  H   H605      1.0  0.04251  0.86067  0.33543  1.0000
  H   H606      1.0  0.06957  0.84381  0.35916  1.0000
  H   H607      1.0  0.32705  0.65481  0.22979  1.0000
  H   H608      1.0  0.38908  0.97661  0.39088  1.0000
  H   H609      1.0  0.05250  0.77769  0.33309  1.0000
  H   H610      1.0  0.40155  0.80689  0.44479  1.0000
  H   H611      1.0  0.04373  0.81077  0.37571  1.0000
  C   C348      1.0  0.48620  0.63993  0.29127  1.0000
  H   H612      1.0  0.01804  0.90942  0.32901  1.0000
  H   H613      1.0  0.48081  0.83379  0.41263  1.0000
  H   H614      1.0  0.46897  0.55886  0.41885  1.0000
  H   H615      1.0  0.49382  0.67480  0.26971  1.0000
  H   H616      1.0  0.07816  0.78627  0.23577  1.0000
  H   H617      1.0  0.47631  0.79062  0.42132  1.0000
  H   H618      1.0  0.03557  0.68571  0.27913  1.0000
  H   H619      1.0  0.03120  0.68569  0.24803  1.0000
  H   H620      1.0  0.01665  0.85628  0.30775  1.0000
  H   H621      1.0  0.47846  0.61397  0.28403  1.0000
  H   H622      1.0  0.01433  0.72920  0.30985  1.0000
  C   C349      1.0  0.01995  0.75904  0.31068  1.0000
  H   H623      1.0  0.45852  0.63880  0.29425  1.0000
  C   C350      1.0  0.02232  0.76883  0.32927  1.0000
  C   C351      1.0  0.49560  0.82229  0.42094  1.0000
  H   H624      1.0  0.32488  0.99921  0.44953  1.0000
  H   H625      1.0  0.49724  0.74697  0.32148  1.0000
  H   H626      1.0  0.00940  0.75275  0.22195  1.0000
  H   H627      1.0  0.42442  0.00255  0.42592  1.0000
  C   C352      1.0  0.32426  0.00461  0.43587  1.0000
  Fe  Fe60      1.0  0.07682  0.61079  0.49078  1.0000
  S   S116      1.0  0.06486  0.58976  0.51765  1.0000
  H   H628      1.0  0.29374  0.56562  0.50824  1.0000
  Fe  Fe61      1.0  0.15729  0.67727  0.49888  1.0000
  S   S117      1.0  0.15089  0.66091  0.52609  1.0000
  S   S118      1.0  0.21241  0.72472  0.48705  1.0000
  Fe  Fe62      1.0  0.12618  0.60068  0.51751  1.0000
  S   S119      1.0  0.14723  0.56378  0.53088  1.0000
  Fe  Fe63      1.0  0.09055  0.65221  0.52377  1.0000
  S   S120      1.0  0.07063  0.67291  0.54596  1.0000
  S   S121      1.0  0.13628  0.61751  0.49036  1.0000
  S   S122      1.0  0.09868  0.67275  0.49685  1.0000
  S   S123      1.0  0.03240  0.88743  0.60478  1.0000
  Fe  Fe64      1.0  0.42471  0.83655  0.51561  1.0000
  S   S124      1.0  0.43152  0.82911  0.48853  1.0000
  S   S125      1.0  0.36749  0.81700  0.52857  1.0000
  Fe  Fe65      1.0  0.46810  0.80423  0.49756  1.0000
  S   S126      1.0  0.45674  0.75056  0.48456  1.0000
  S   S127      1.0  0.45788  0.80799  0.52463  1.0000
  S   S128      1.0  0.47644  0.89604  0.51634  1.0000
  Fe  Fe66      1.0  0.36485  0.53925  0.51703  1.0000
  S   S129      1.0  0.40553  0.59735  0.52763  1.0000
  S   S130      1.0  0.34545  0.52961  0.49030  1.0000
  C   C353      1.0  0.44238  0.70824  0.49672  1.0000
  C   C354      1.0  0.44823  0.70922  0.51401  1.0000
  C   C355      1.0  0.43712  0.67504  0.52332  1.0000
  C   C356      1.0  0.41955  0.63964  0.51546  1.0000
  C   C357      1.0  0.41350  0.63869  0.49817  1.0000
  C   C358      1.0  0.42517  0.67291  0.48883  1.0000
  H   H629      1.0  0.46189  0.73629  0.52020  1.0000
  H   H630      1.0  0.44200  0.67599  0.53667  1.0000
  H   H631      1.0  0.40035  0.61168  0.49196  1.0000
  Fe  Fe67      1.0  0.48577  0.88616  0.48974  1.0000
  C   C359      1.0  0.05687  0.93202  0.59398  1.0000
  C   C360      1.0  0.06180  0.93429  0.57665  1.0000
  H   H632      1.0  0.45184  0.99814  0.69705  1.0000
  C   C361      1.0  0.07453  0.96571  0.60310  1.0000
  S   S131      1.0  0.03636  0.58417  0.46870  1.0000
  H   H633      1.0  0.02763  0.68920  0.51992  1.0000
  H   H634      1.0  0.07066  0.96410  0.61652  1.0000
  C   C362      1.0  0.25513  0.74952  0.49890  1.0000
  C   C363      1.0  0.25459  0.74849  0.51640  1.0000
  C   C364      1.0  0.28919  0.76926  0.52538  1.0000
  C   C365      1.0  0.32459  0.79080  0.51695  1.0000
  C   C366      1.0  0.32514  0.79138  0.49947  1.0000
  C   C367      1.0  0.29054  0.77105  0.49050  1.0000
  H   H635      1.0  0.22747  0.73229  0.52300  1.0000
  H   H636      1.0  0.28846  0.76872  0.53890  1.0000
  H   H637      1.0  0.35202  0.80827  0.49282  1.0000
  C   C368      1.0  0.07431  0.56553  0.59065  1.0000
  C   C369      1.0  0.17191  0.54558  0.51937  1.0000
  H   H638      1.0  0.03520  0.80856  0.52792  1.0000
  H   H639      1.0  0.14991  0.83635  0.53645  1.0000
  H   H640      1.0  0.23478  0.64187  0.49320  1.0000
  C   C370      1.0  0.28780  0.61611  0.51043  1.0000
  C   C371      1.0  0.16999  0.54442  0.50192  1.0000
  H   H641      1.0  0.46947  0.85505  0.55416  1.0000
  H   H642      1.0  0.33528  0.60454  0.51675  1.0000
  C   C372      1.0  0.03760  0.58070  0.56884  1.0000
  H   H643      1.0  0.15280  0.55433  0.49518  1.0000
  C   C373      1.0  0.28118  0.67416  0.51170  1.0000
  H   H644      1.0  0.14319  0.96203  0.60944  1.0000
  H   H645      1.0  0.10690  0.63852  0.57981  1.0000
  C   C374      1.0  0.03955  0.69284  0.54630  1.0000
  C   C375      1.0  0.48075  0.93269  0.70954  1.0000
  H   H646      1.0  0.17138  0.95009  0.59657  1.0000
  H   H647      1.0  0.40321  0.80763  0.56049  1.0000
  H   H648      1.0  0.04772  0.90857  0.56953  1.0000
  H   H649      1.0  0.18775  0.52844  0.47963  1.0000
  H   H650      1.0  0.10019  0.54554  0.56536  1.0000
  C   C376      1.0  0.33946  0.97171  0.69797  1.0000
  H   H651      1.0  0.33129  0.95646  0.68639  1.0000
  H   H652      1.0  0.15340  0.60684  0.56234  1.0000
  H   H653      1.0  0.33100  0.66424  0.53293  1.0000
  H   H654      1.0  0.34487  0.73165  0.52457  1.0000
  H   H655      1.0  0.44571  0.51517  0.48829  1.0000
  H   H656      1.0  0.02401  0.59336  0.59374  1.0000
  N   N27       1.0  0.08694  0.84541  0.55489  1.0000
  C   C377      1.0  0.05719  0.82818  0.56874  1.0000
  C   C378      1.0  0.07150  0.86184  0.54165  1.0000
  C   C379      1.0  0.12373  0.87699  0.56228  1.0000
  C   C380      1.0  0.09313  0.81405  0.54843  1.0000
  C   C381      1.0  0.06927  0.81341  0.58450  1.0000
  C   C382      1.0  0.03367  0.83298  0.53311  1.0000
  C   C383      1.0  0.15230  0.90891  0.55019  1.0000
  C   C384      1.0  0.11901  0.82351  0.53287  1.0000
  H   H657      1.0  0.04900  0.84930  0.57300  1.0000
  H   H658      1.0  0.02993  0.80343  0.56428  1.0000
  H   H659      1.0  0.09258  0.87702  0.53142  1.0000
  H   H660      1.0  0.06650  0.88418  0.54705  1.0000
  H   H661      1.0  0.11690  0.89224  0.57192  1.0000
  H   H662      1.0  0.14017  0.86487  0.56894  1.0000
  H   H663      1.0  0.10654  0.80414  0.55821  1.0000
  H   H664      1.0  0.06525  0.78768  0.54595  1.0000
  H   H665      1.0  0.07290  0.78851  0.58186  1.0000
  H   H666      1.0  0.09563  0.83611  0.59047  1.0000
  H   H667      1.0  0.04605  0.80337  0.59403  1.0000
  H   H668      1.0  0.27450  0.62420  0.47756  1.0000
  H   H669      1.0  0.49045  0.95906  0.70176  1.0000
  C   C385      1.0  0.20635  0.99811  0.61246  1.0000
  C   C386      1.0  0.16993  0.97457  0.60180  1.0000
  H   H670      1.0  0.14085  0.92789  0.54588  1.0000
  H   H671      1.0  0.15978  0.89774  0.53927  1.0000
  H   H672      1.0  0.42354  0.93573  0.69554  1.0000
  H   H673      1.0  0.11544  0.84208  0.52340  1.0000
  H   H674      1.0  0.34956  0.66702  0.48837  1.0000
  H   H675      1.0  0.42998  0.88076  0.54531  1.0000
  C   C387      1.0  0.09746  0.00144  0.59497  1.0000
  H   H676      1.0  0.03933  0.59242  0.55586  1.0000
  H   H677      1.0  0.17582  0.00234  0.64112  1.0000
  H   H678      1.0  0.45024  0.94237  0.48641  1.0000
  C   C388      1.0  0.29638  0.65473  0.47568  1.0000
  C   C389      1.0  0.10425  0.00345  0.57776  1.0000
  H   H679      1.0  0.26177  0.60130  0.50250  1.0000
  C   C390      1.0  0.42383  0.88526  0.55829  1.0000
  H   H680      1.0  0.29115  0.77211  0.47697  1.0000
  H   H681      1.0  0.11047  0.79651  0.52630  1.0000
  H   H682      1.0  0.17963  0.92725  0.55695  1.0000
  N   N28       1.0  0.07372  0.57876  0.57286  1.0000
  H   H683      1.0  0.02753  0.84766  0.52251  1.0000
  H   H684      1.0  0.41061  0.81329  0.58282  1.0000
  C   C391      1.0  0.03204  0.70401  0.56167  1.0000
  C   C392      1.0  0.08603  0.96980  0.56861  1.0000
  H   H685      1.0  0.09080  0.97125  0.55527  1.0000
  H   H686      1.0  0.38621  0.72828  0.53069  1.0000
  H   H687      1.0  0.42704  0.55842  0.69547  1.0000
  H   H688      1.0  0.44232  0.84980  0.60700  1.0000
  H   H689      1.0  0.10022  0.56233  0.59280  1.0000
  C   C393      1.0  0.04233  0.51642  0.55557  1.0000
  H   H690      1.0  0.42075  0.67193  0.47545  1.0000
  C   C394      1.0  0.14826  0.62307  0.57196  1.0000
  C   C395      1.0  0.02211  0.69759  0.53183  1.0000
  H   H691      1.0  0.46368  0.90749  0.70169  1.0000
  H   H692      1.0  0.04535  0.70047  0.57295  1.0000
  C   C396      1.0  0.36361  0.71997  0.52092  1.0000
  C   C397      1.0  0.43452  0.57778  0.70612  1.0000
  H   H693      1.0  0.20550  0.97840  0.62273  1.0000
  H   H694      1.0  0.09080  0.56982  0.54867  1.0000
  C   C398      1.0  0.02827  0.60461  0.58065  1.0000
  H   H695      1.0  0.10632  0.63110  0.55805  1.0000
  H   H696      1.0  0.44933  0.92013  0.59015  1.0000
  C   C399      1.0  0.49354  0.51522  0.47576  1.0000
  N   N29       1.0  0.45546  0.88886  0.57003  1.0000
  H   H697      1.0  0.19566  0.53284  0.54142  1.0000
  C   C400      1.0  0.46062  0.85472  0.56733  1.0000
  H   H698      1.0  0.29201  0.70327  0.50594  1.0000
  C   C401      1.0  0.44377  0.89073  0.58769  1.0000
  H   H699      1.0  0.48457  0.85556  0.57480  1.0000
  C   C402      1.0  0.42465  0.81515  0.57073  1.0000
  H   H700      1.0  0.37606  0.87202  0.69139  1.0000
  C   C403      1.0  0.34128  0.67588  0.52002  1.0000
  H   H701      1.0  0.27651  0.60804  0.52347  1.0000
  C   C404      1.0  0.23854  0.64974  0.50647  1.0000
  H   H702      1.0  0.43891  0.94408  0.55031  1.0000
  H   H703      1.0  0.43346  0.79291  0.57101  1.0000
  C   C405      1.0  0.10762  0.61886  0.57055  1.0000
  H   H704      1.0  0.28017  0.67765  0.52542  1.0000
  N   N30       1.0  0.30810  0.65906  0.50779  1.0000
  H   H705      1.0  0.41198  0.87160  0.58929  1.0000
  H   H706      1.0  0.49041  0.88060  0.59886  1.0000
  H   H707      1.0  0.17022  0.65367  0.56971  1.0000
  H   H708      1.0  0.33772  0.70324  0.48871  1.0000
  H   H709      1.0  0.22356  0.62354  0.51454  1.0000
  H   H710      1.0  0.39567  0.85956  0.56167  1.0000
  C   C406      1.0  0.19402  0.53210  0.52792  1.0000
  H   H711      1.0  0.22343  0.66621  0.50835  1.0000
  C   C407      1.0  0.44932  0.98995  0.47346  1.0000
  H   H712      1.0  0.15388  0.61480  0.58458  1.0000
  H   H713      1.0  0.38868  0.91032  0.55041  1.0000
  C   C408      1.0  0.03968  0.52696  0.59653  1.0000
  C   C409      1.0  0.41598  0.91917  0.55742  1.0000
  H   H714      1.0  0.24316  0.61565  0.71494  1.0000
  C   C410      1.0  0.32463  0.67166  0.49041  1.0000
  H   H715      1.0  0.36327  0.66769  0.51700  1.0000
  H   H716      1.0  0.37883  0.73398  0.50905  1.0000
  C   C411      1.0  0.46278  0.87902  0.60200  1.0000
  H   H717      1.0  0.41225  0.92786  0.56995  1.0000
  C   C412      1.0  0.32619  0.95125  0.71326  1.0000
  H   H718      1.0  0.07820  0.58766  0.59969  1.0000
  H   H719      1.0  0.01144  0.55201  0.56877  1.0000
  C   C413      1.0  0.18970  0.52956  0.49312  1.0000
  C   C414      1.0  0.44182  0.50708  0.71361  1.0000
  H   H720      1.0  0.49696  0.51189  0.70531  1.0000
  H   H721      1.0  0.03564  0.52752  0.61021  1.0000
  C   C415      1.0  0.07871  0.55366  0.56065  1.0000
  C   C416      1.0  0.31243  0.59712  0.50721  1.0000
  H   H722      1.0  0.48183  0.54054  0.69278  1.0000
  H   H723      1.0  0.02306  0.52262  0.54752  1.0000
  H   H724      1.0  0.44680  0.60731  0.70067  1.0000
  H   H725      1.0  0.46888  0.89833  0.61262  1.0000
  C   C417      1.0  0.38256  0.87928  0.70476  1.0000
  H   H726      1.0  0.05048  0.63537  0.58011  1.0000
  H   H727      1.0  0.28177  0.67166  0.47282  1.0000
  C   C418      1.0  0.00710  0.71940  0.56262  1.0000
  C   C419      1.0  0.21415  0.51768  0.51910  1.0000
  H   H728      1.0  0.01449  0.98213  0.59407  1.0000
  C   C420      1.0  0.46128  0.96261  0.47593  1.0000
  S   S132      1.0  0.29862  0.90071  0.71313  1.0000
  H   H729      1.0  0.00083  0.60314  0.57653  1.0000
  H   H730      1.0  0.01177  0.52095  0.59098  1.0000
  H   H731      1.0  0.01102  0.51958  0.49249  1.0000
  H   H732      1.0  0.32505  0.60374  0.49446  1.0000
  H   H733      1.0  0.00127  0.72746  0.57454  1.0000
  C   C421      1.0  0.21195  0.51622  0.50164  1.0000
  H   H734      1.0  0.16758  0.99129  0.59102  1.0000
  H   H735      1.0  0.23091  0.50721  0.52583  1.0000
  H   H736      1.0  0.00878  0.82231  0.54174  1.0000
  H   H737      1.0  0.40829  0.57189  0.71305  1.0000
  H   H738      1.0  0.39983  0.86643  0.70967  1.0000
  C   C422      1.0  0.47176  0.51329  0.70003  1.0000
  H   H739      1.0  0.49160  0.58688  0.71006  1.0000
  C   C423      1.0  0.49220  0.92490  0.56499  1.0000
  H   H740      1.0  0.35436  0.86586  0.71138  1.0000
  H   H741      1.0  0.42902  0.99058  0.48211  1.0000
  H   H742      1.0  0.38165  0.93221  0.70420  1.0000
  H   H743      1.0  0.48852  0.95046  0.56549  1.0000
  C   C424      1.0  0.40362  0.92316  0.70637  1.0000
  H   H744      1.0  0.23194  0.00420  0.60475  1.0000
  S   S133      1.0  0.30518  0.50508  0.52802  1.0000
  C   C425      1.0  0.00740  0.53409  0.46667  1.0000
  H   H745      1.0  0.42680  0.51109  0.74982  1.0000
  S   S134      1.0  0.03814  0.82801  0.85026  1.0000
  S   S135      1.0  0.04157  0.80401  0.80119  1.0000
  Fe  Fe68      1.0  0.03012  0.87969  0.84854  1.0000
  S   S136      1.0  0.07032  0.93638  0.86035  1.0000
  H   H746      1.0  0.05487  0.57712  0.93905  1.0000
  Fe  Fe69      1.0  0.24328  0.83441  0.77063  1.0000
  S   S137      1.0  0.21956  0.82351  0.74450  1.0000
  S   S138      1.0  0.21656  0.84433  0.79353  1.0000
  Fe  Fe70      1.0  0.31238  0.82477  0.76130  1.0000
  S   S139      1.0  0.29358  0.81284  0.73471  1.0000
  S   S140      1.0  0.36410  0.82227  0.77190  1.0000
  Fe  Fe71      1.0  0.28141  0.86159  0.73631  1.0000
  C   C426      1.0  0.02649  0.65559  0.92489  1.0000
  Fe  Fe72      1.0  0.23403  0.77610  0.74522  1.0000
  S   S141      1.0  0.19455  0.71901  0.73381  1.0000
  S   S142      1.0  0.30443  0.87629  0.76245  1.0000
  S   S143      1.0  0.25361  0.78429  0.77184  1.0000
  Fe  Fe73      1.0  0.45984  0.65277  0.76084  1.0000
  H   H747      1.0  0.14837  0.92062  0.84922  1.0000
  S   S144      1.0  0.40840  0.60134  0.77284  1.0000
  H   H748      1.0  0.06140  0.62329  0.94321  1.0000
  S   S145      1.0  0.47576  0.71069  0.77010  1.0000
  S   S146      1.0  0.14580  0.56365  0.77406  1.0000
  C   C427      1.0  0.36476  0.57866  0.76162  1.0000
  C   C428      1.0  0.32956  0.55945  0.77033  1.0000
  C   C429      1.0  0.29450  0.53920  0.76166  1.0000
  C   C430      1.0  0.29465  0.53727  0.74426  1.0000
  C   C431      1.0  0.31938  0.70044  0.74266  1.0000
  C   C432      1.0  0.36471  0.57819  0.74418  1.0000
  H   H749      1.0  0.32945  0.56065  0.78381  1.0000
  C   C433      1.0  0.46500  0.57646  0.71768  1.0000
  H   H750      1.0  0.28651  0.67090  0.77216  1.0000
  C   C434      1.0  0.18340  0.67630  0.74495  1.0000
  C   C435      1.0  0.16420  0.64146  0.73671  1.0000
  C   C436      1.0  0.15365  0.60673  0.74540  1.0000
  C   C437      1.0  0.16119  0.60667  0.76250  1.0000
  C   C438      1.0  0.18032  0.64148  0.77076  1.0000
  C   C439      1.0  0.19222  0.67628  0.76193  1.0000
  H   H751      1.0  0.13863  0.57995  0.73898  1.0000
  H   H752      1.0  0.18626  0.64151  0.78400  1.0000
  H   H753      1.0  0.20740  0.70287  0.76838  1.0000
  C   C440      1.0  0.38690  0.80272  0.76018  1.0000
  C   C441      1.0  0.39102  0.80832  0.74283  1.0000
  C   C442      1.0  0.41360  0.79661  0.73410  1.0000
  C   C443      1.0  0.43123  0.77824  0.74259  1.0000
  C   C444      1.0  0.42517  0.77065  0.75979  1.0000
  C   C445      1.0  0.40370  0.78350  0.76859  1.0000
  H   H754      1.0  0.37776  0.82264  0.73621  1.0000
  H   H755      1.0  0.34811  0.67435  0.76740  1.0000
  H   H756      1.0  0.43767  0.75568  0.76641  1.0000
  H   H757      1.0  0.40027  0.77875  0.78200  1.0000
  N   N31       1.0  0.15946  0.94797  0.80680  1.0000
  C   C446      1.0  0.33680  0.97119  0.72816  1.0000
  H   H758      1.0  0.32663  0.95578  0.74001  1.0000
  C   C447      1.0  0.16764  0.83242  0.79535  1.0000
  C   C448      1.0  0.15251  0.83081  0.81130  1.0000
  C   C449      1.0  0.11397  0.82227  0.81329  1.0000
  C   C450      1.0  0.09030  0.81552  0.79931  1.0000
  C   C451      1.0  0.10547  0.81737  0.78333  1.0000
  C   C452      1.0  0.14403  0.82591  0.78134  1.0000
  H   H759      1.0  0.17066  0.83602  0.82220  1.0000
  H   H760      1.0  0.10248  0.82063  0.82566  1.0000
  H   H761      1.0  0.08735  0.81251  0.77245  1.0000
  H   H762      1.0  0.15560  0.82788  0.76897  1.0000
  C   C453      1.0  0.08500  0.97937  0.84872  1.0000
  C   C454      1.0  0.07718  0.97919  0.83164  1.0000
  H   H763      1.0  0.14081  0.72976  0.80438  1.0000
  H   H764      1.0  0.06065  0.95241  0.82546  1.0000
  H   H765      1.0  0.18832  0.96021  0.83969  1.0000
  N   N32       1.0  0.10326  0.70350  0.77332  1.0000
  H   H766      1.0  0.11866  0.96859  0.80709  1.0000
  H   H767      1.0  0.39167  0.59335  0.73740  1.0000
  H   H768      1.0  0.47190  0.88095  0.79198  1.0000
  H   H769      1.0  0.20794  0.92150  0.82295  1.0000
  H   H770      1.0  0.48827  0.78044  0.81434  1.0000
  H   H771      1.0  0.03495  0.59658  0.91438  1.0000
  C   C455      1.0  0.29024  0.71184  0.73565  1.0000
  H   H772      1.0  0.02386  0.67432  0.77034  1.0000
  H   H773      1.0  0.03602  0.62936  0.78306  1.0000
  C   C456      1.0  0.40957  0.93131  0.75448  1.0000
  C   C457      1.0  0.42330  0.52777  0.73921  1.0000
  H   H774      1.0  0.24887  0.65145  0.75754  1.0000
  H   H775      1.0  0.18855  0.75638  0.79626  1.0000
  H   H776      1.0  0.29496  0.50656  0.80728  1.0000
  H   H777      1.0  0.23232  0.60294  0.77816  1.0000
  H   H778      1.0  0.26749  0.52452  0.76844  1.0000
  S   S147      1.0  0.25193  0.50930  0.73301  1.0000
  C   C458      1.0  0.20274  0.96480  0.80693  1.0000
  H   H779      1.0  0.24930  0.95178  0.81043  1.0000
  H   H780      1.0  0.03381  0.72264  0.77396  1.0000
  H   H781      1.0  0.09203  0.88879  0.77712  1.0000
  C   C459      1.0  0.49787  0.95268  0.93150  1.0000
  H   H782      1.0  0.37298  0.51401  0.72253  1.0000
  C   C460      1.0  0.44959  0.99812  0.95654  1.0000
  H   H783      1.0  0.32719  0.62643  0.76070  1.0000
  C   C461      1.0  0.32980  0.55714  0.73554  1.0000
  H   H784      1.0  0.10496  0.66037  0.78981  1.0000
  H   H785      1.0  0.09017  0.75932  0.75751  1.0000
  H   H786      1.0  0.16268  0.99848  0.81725  1.0000
  H   H787      1.0  0.09173  0.74256  0.78675  1.0000
  H   H788      1.0  0.05785  0.60297  0.77611  1.0000
  C   C462      1.0  0.07829  0.71124  0.78482  1.0000
  C   C463      1.0  0.14094  0.92360  0.82231  1.0000
  C   C464      1.0  0.14358  0.92322  0.79174  1.0000
  C   C465      1.0  0.09776  0.66398  0.77665  1.0000
  N   N33       1.0  0.30361  0.65926  0.74846  1.0000
  C   C466      1.0  0.27413  0.64953  0.76210  1.0000
  S   S148      1.0  0.01404  0.87283  0.82147  1.0000
  H   H789      1.0  0.27930  0.60817  0.77923  1.0000
  H   H790      1.0  0.41077  0.98369  0.72363  1.0000
  C   C467      1.0  0.45807  0.93136  0.72528  1.0000
  H   H791      1.0  0.03625  0.66350  0.93801  1.0000
  C   C468      1.0  0.25802  0.60939  0.77051  1.0000
  H   H792      1.0  0.14418  0.96155  0.84227  1.0000
  C   C469      1.0  0.10035  0.90783  0.78798  1.0000
  H   H793      1.0  0.11482  0.70104  0.74715  1.0000
  C   C470      1.0  0.39527  0.91726  0.73666  1.0000
  H   H794      1.0  0.30653  0.64549  0.72275  1.0000
  C   C471      1.0  0.43657  0.97995  0.72367  1.0000
  H   H795      1.0  0.21673  0.98827  0.81599  1.0000
  H   H796      1.0  0.26740  0.70675  0.74475  1.0000
  H   H797      1.0  0.15734  0.64128  0.72357  1.0000
  H   H798      1.0  0.02821  0.69510  0.90471  1.0000
  H   H799      1.0  0.48380  0.56281  0.75944  1.0000
  Fe  Fe74      1.0  0.48450  0.72950  0.74317  1.0000
  C   C472      1.0  0.03926  0.59322  0.94087  1.0000
  C   C473      1.0  0.14517  0.73203  0.77669  1.0000
  H   H800      1.0  0.13514  0.76849  0.74817  1.0000
  H   H801      1.0  0.43848  0.93477  0.75711  1.0000
  C   C474      1.0  0.28785  0.63250  0.73400  1.0000
  C   C475      1.0  0.16011  0.73024  0.79444  1.0000
  H   H802      1.0  0.11779  0.65950  0.76870  1.0000
  H   H803      1.0  0.38936  0.90979  0.76377  1.0000
  C   C476      1.0  0.10373  0.74791  0.74918  1.0000
  H   H804      1.0  0.16440  0.72916  0.76759  1.0000
  H   H805      1.0  0.15087  0.76186  0.77482  1.0000
  H   H806      1.0  0.33479  0.71996  0.75311  1.0000
  H   H807      1.0  0.39253  0.66102  0.75153  1.0000
  N   N34       1.0  0.42415  0.93798  0.72273  1.0000
  H   H808      1.0  0.23473  0.63870  0.73157  1.0000
  C   C477      1.0  0.15033  0.98008  0.80620  1.0000
  C   C478      1.0  0.05694  0.62995  0.77391  1.0000
  C   C479      1.0  0.01599  0.68539  0.91748  1.0000
  H   H809      1.0  0.47937  0.95249  0.73404  1.0000
  H   H810      1.0  0.46864  0.92715  0.93046  1.0000
  H   H811      1.0  0.49626  0.97702  0.92546  1.0000
  H   H812      1.0  0.14179  0.89642  0.82246  1.0000
  H   H813      1.0  0.10944  0.91371  0.82256  1.0000
  H   H814      1.0  0.21536  0.97880  0.79460  1.0000
  H   H815      1.0  0.09394  0.93099  0.78454  1.0000
  H   H816      1.0  0.22576  0.59024  0.73415  1.0000
  S   S149      1.0  0.15557  0.51031  0.73405  1.0000
  H   H817      1.0  0.46692  0.80035  0.80048  1.0000
  H   H818      1.0  0.16007  0.93852  0.78022  1.0000
  H   H819      1.0  0.06641  0.68719  0.75118  1.0000
  H   H820      1.0  0.34110  0.70839  0.73254  1.0000
  H   H821      1.0  0.07685  0.69826  0.79748  1.0000
  S   S150      1.0  0.46430  0.67052  0.73382  1.0000
  C   C480      1.0  0.24563  0.61914  0.72869  1.0000
  H   H822      1.0  0.45184  0.99200  0.73560  1.0000
  H   H823      1.0  0.27763  0.69796  0.72367  1.0000
  C   C481      1.0  0.03629  0.69800  0.77917  1.0000
  H   H824      1.0  0.20789  0.91450  0.80070  1.0000
  H   H825      1.0  0.24865  0.58644  0.76132  1.0000
  C   C482      1.0  0.15646  0.94308  0.83919  1.0000
  H   H826      1.0  0.40971  0.95847  0.75672  1.0000
  C   C483      1.0  0.49000  0.54226  0.73478  1.0000
  H   H827      1.0  0.04652  0.62905  0.76094  1.0000
  C   C484      1.0  0.21719  0.93611  0.81052  1.0000
  H   H828      1.0  0.47913  0.83757  0.77666  1.0000
  H   H829      1.0  0.03011  0.71148  0.92509  1.0000
  H   H830      1.0  0.28870  0.60571  0.73710  1.0000
  C   C485      1.0  0.09621  0.70788  0.75500  1.0000
  C   C486      1.0  0.01485  0.58953  0.92511  1.0000
  H   H831      1.0  0.14731  0.89768  0.79317  1.0000
  H   H832      1.0  0.05255  0.66042  0.91785  1.0000
  C   C487      1.0  0.37157  0.66686  0.74462  1.0000
  Fe  Fe75      1.0  0.14150  0.51296  0.76086  1.0000
  H   H833      1.0  0.08160  0.89011  0.79849  1.0000
  S   S151      1.0  0.46147  0.76627  0.73138  1.0000
  C   C488      1.0  0.33683  0.65621  0.75619  1.0000
  H   H834      1.0  0.38733  0.69768  0.74112  1.0000
  H   H835      1.0  0.16499  0.70548  0.79611  1.0000
  H   H836      1.0  0.09154  0.74620  0.73646  1.0000
  Fe  Fe76      1.0  0.01710  0.81860  0.82361  1.0000
  H   H837      1.0  0.38576  0.88617  0.73709  1.0000
  H   H838      1.0  0.15309  0.99183  0.77887  1.0000
  H   H839      1.0  0.33000  0.55605  0.72204  1.0000
  H   H840      1.0  0.36847  0.91897  0.73448  1.0000
  H   H841      1.0  0.01720  0.68788  0.79037  1.0000
  H   H842      1.0  0.41766  0.80205  0.72074  1.0000
  H   H843      1.0  0.36310  0.64956  0.73323  1.0000
  H   H844      1.0  0.44874  0.90282  0.73145  1.0000
  H   H845      1.0  0.48468  0.51386  0.73979  1.0000
  H   H846      1.0  0.42601  0.55389  0.74495  1.0000
  H   H847      1.0  0.47219  0.59876  0.72709  1.0000
  H   H848      1.0  0.00489  0.96076  0.84874  1.0000
  H   H849      1.0  0.00247  0.58889  0.89010  1.0000
  H   H850      1.0  0.30592  0.74314  0.73280  1.0000
  H   H851      1.0  0.02115  0.58009  0.95219  1.0000
  H   H852      1.0  0.02149  0.64003  0.89145  1.0000
  C   C489      1.0  0.49594  0.52571  0.95536  1.0000
  C   C490      1.0  0.49031  0.79309  0.80158  1.0000
  H   H853      1.0  0.48524  0.77042  0.79278  1.0000
  N   N35       1.0  0.45437  0.53841  0.72609  1.0000
  H   H854      1.0  0.42750  0.99788  0.94844  1.0000
  Fe  Fe77      1.0  0.93046  0.18364  0.10757  1.0000
  S   S152      1.0  0.90680  0.17217  0.08151  1.0000
  S   S153      1.0  0.90607  0.20112  0.12893  1.0000
  N   N36       1.0  0.52477  0.07463  0.21473  1.0000
  S   S154      1.0  0.97628  0.15398  0.07261  1.0000
  Fe  Fe78      1.0  0.96925  0.20617  0.07346  1.0000
  H   H855      1.0  0.70205  0.37529  0.20424  1.0000
  Fe  Fe79      1.0  0.91622  0.12142  0.08323  1.0000
  S   S155      1.0  0.87333  0.06334  0.07339  1.0000
  C   C491      1.0  0.84306  0.42072  0.97775  1.0000
  S   S156      1.0  0.93511  0.13032  0.10990  1.0000
  S   S157      1.0  0.54206  0.38209  0.15397  1.0000
  Fe  Fe80      1.0  0.80284  0.48742  0.16738  1.0000
  H   H856      1.0  0.49993  0.05363  0.18192  1.0000
  S   S158      1.0  0.80094  0.43640  0.15541  1.0000
  S   S159      1.0  0.98668  0.24741  0.05093  1.0000
  H   H857      1.0  0.87289  0.43659  0.98274  1.0000
  Fe  Fe81      1.0  0.70156  0.16688  0.15650  1.0000
  S   S160      1.0  0.72290  0.17617  0.18311  1.0000
  S   S161      1.0  0.72987  0.15768  0.13385  1.0000
  Fe  Fe82      1.0  0.62959  0.17190  0.16517  1.0000
  S   S162      1.0  0.64555  0.18111  0.19215  1.0000
  S   S163      1.0  0.57775  0.17358  0.15413  1.0000
  Fe  Fe83      1.0  0.70548  0.22165  0.18284  1.0000
  S   S164      1.0  0.73550  0.27824  0.19595  1.0000
  Fe  Fe84      1.0  0.66077  0.13449  0.19005  1.0000
  H   H858      1.0  0.56884  0.28451  0.19210  1.0000
  S   S165      1.0  0.68861  0.21542  0.15583  1.0000
  S   S166      1.0  0.64029  0.12216  0.16347  1.0000
  H   H859      1.0  0.95111  0.27239  0.08306  1.0000
  H   H860      1.0  0.86138  0.10839  0.15494  1.0000
  C   C492      1.0  0.99903  0.50005  0.97068  1.0000
  H   H861      1.0  0.83868  0.43897  0.96831  1.0000
  H   H862      1.0  0.60515  0.03510  0.18668  1.0000
  C   C493      1.0  0.78118  0.39224  0.16664  1.0000
  C   C494      1.0  0.77269  0.35890  0.15823  1.0000
  C   C495      1.0  0.75795  0.32354  0.16701  1.0000
  C   C496      1.0  0.75238  0.32152  0.18431  1.0000
  C   C497      1.0  0.76098  0.35489  0.19270  1.0000
  C   C498      1.0  0.77486  0.39000  0.18388  1.0000
  H   H863      1.0  0.77758  0.36040  0.14489  1.0000
  H   H864      1.0  0.75171  0.29804  0.16045  1.0000
  H   H865      1.0  0.65792  0.31362  0.14746  1.0000
  H   H866      1.0  0.78112  0.41535  0.19046  1.0000
  H   H867      1.0  0.71650  0.01537  0.13754  1.0000
  H   H868      1.0  0.83805  0.43914  0.20770  1.0000
  C   C499      1.0  0.53325  0.20712  0.15792  1.0000
  C   C500      1.0  0.55278  0.19040  0.16611  1.0000
  C   C501      1.0  0.55006  0.18531  0.18350  1.0000
  H   H869      1.0  0.82969  0.36281  0.98168  1.0000
  H   H870      1.0  0.80360  0.30265  0.97014  1.0000
  H   H871      1.0  0.53024  0.10408  0.17704  1.0000
  H   H872      1.0  0.56561  0.17312  0.18991  1.0000
  C   C502      1.0  0.58361  0.41153  0.16574  1.0000
  C   C503      1.0  0.62012  0.42752  0.15814  1.0000
  C   C504      1.0  0.65380  0.45152  0.16708  1.0000
  C   C505      1.0  0.65114  0.46076  0.18353  1.0000
  C   C506      1.0  0.61463  0.44483  0.19111  1.0000
  C   C507      1.0  0.58099  0.41992  0.18233  1.0000
  H   H873      1.0  0.62234  0.42093  0.14534  1.0000
  H   H874      1.0  0.68167  0.46295  0.16120  1.0000
  H   H875      1.0  0.67709  0.31952  0.19216  1.0000
  H   H876      1.0  0.55298  0.40789  0.18828  1.0000
  H   H877      1.0  0.81032  0.11270  0.13952  1.0000
  S   S167      1.0  0.69265  0.49197  0.19495  1.0000
  C   C508      1.0  0.85791  0.19200  0.12977  1.0000
  C   C509      1.0  0.83434  0.18182  0.11559  1.0000
  C   C510      1.0  0.79549  0.17266  0.11694  1.0000
  C   C511      1.0  0.77988  0.17364  0.13245  1.0000
  C   C512      1.0  0.80386  0.18522  0.14649  1.0000
  C   C513      1.0  0.84277  0.19450  0.14512  1.0000
  H   H878      1.0  0.84581  0.18040  0.10364  1.0000
  H   H879      1.0  0.77715  0.16402  0.10600  1.0000
  H   H880      1.0  0.79222  0.18623  0.15848  1.0000
  H   H881      1.0  0.86093  0.20274  0.15612  1.0000
  C   C514      1.0  0.50580  0.21070  0.18426  1.0000
  C   C515      1.0  0.61601  0.04167  0.21311  1.0000
  H   H882      1.0  0.88453  0.04835  0.10844  1.0000
  H   H883      1.0  0.92811  0.43741  0.21249  1.0000
  H   H884      1.0  0.63969  0.34558  0.14163  1.0000
  C   C516      1.0  0.80165  0.08309  0.09152  1.0000
  H   H885      1.0  0.95131  0.46439  0.19400  1.0000
  H   H886      1.0  0.53565  0.21157  0.14448  1.0000
  H   H887      1.0  0.83605  0.11709  0.11137  1.0000
  C   C517      1.0  0.66393  0.34348  0.14759  1.0000
  H   H888      1.0  0.87247  0.11387  0.13332  1.0000
  H   H889      1.0  0.63854  0.38762  0.18740  1.0000
  H   H890      1.0  0.85701  0.43773  0.17866  1.0000
  C   C518      1.0  0.83337  0.38176  0.97060  1.0000
  H   H891      1.0  0.57022  0.33032  0.19245  1.0000
  H   H892      1.0  0.97788  0.28024  0.11174  1.0000
  H   H893      1.0  0.78473  0.09822  0.09079  1.0000
  H   H894      1.0  0.91423  0.24084  0.06192  1.0000
  H   H895      1.0  0.63324  0.24880  0.18396  1.0000
  H   H896      1.0  0.60123  0.34879  0.16469  1.0000
  C   C519      1.0  0.56938  0.30807  0.18434  1.0000
  H   H897      1.0  0.51925  0.00722  0.20079  1.0000
  H   H898      1.0  0.54157  0.29613  0.17748  1.0000
  H   H899      1.0  0.91637  0.24314  0.09831  1.0000
  C   C520      1.0  0.78552  0.02430  0.12519  1.0000
  H   H900      1.0  0.73425  0.06181  0.14693  1.0000
  H   H901      1.0  0.67798  0.39019  0.16322  1.0000
  C   C521      1.0  0.88245  0.43696  0.18410  1.0000
  H   H902      1.0  0.57172  0.11588  0.19912  1.0000
  C   C522      1.0  0.69025  0.39265  0.19840  1.0000
  C   C523      1.0  0.64853  0.36767  0.19199  1.0000
  H   H903      1.0  0.79284  0.06805  0.15046  1.0000
  H   H904      1.0  0.85325  0.31685  0.97543  1.0000
  H   H905      1.0  0.73953  0.05135  0.10934  1.0000
  H   H906      1.0  0.76046  0.09500  0.11966  1.0000
  H   H907      1.0  0.52363  0.19037  0.20594  1.0000
  H   H908      1.0  0.94858  0.07141  0.08765  1.0000
  H   H909      1.0  0.95601  0.39800  0.96768  1.0000
  H   H910      1.0  0.81367  0.02501  0.12651  1.0000
  C   C524      1.0  0.93379  0.27328  0.09359  1.0000
  N   N37       1.0  0.79190  0.06443  0.12336  1.0000
  C   C525      1.0  0.81005  0.08489  0.13933  1.0000
  C   C526      1.0  0.75448  0.06494  0.12104  1.0000
  H   H911      1.0  0.78364  0.05325  0.08756  1.0000
  H   H912      1.0  0.84342  0.37816  0.19389  1.0000
  C   C527      1.0  0.51027  0.21771  0.16698  1.0000
  N   N38       1.0  0.89694  0.46157  0.19930  1.0000
  C   C528      1.0  0.52979  0.07784  0.18209  1.0000
  H   H913      1.0  0.84168  0.07711  0.10797  1.0000
  H   H914      1.0  0.90461  0.44828  0.17399  1.0000
  C   C529      1.0  0.60277  0.32505  0.17156  1.0000
  C   C530      1.0  0.59949  0.02053  0.19878  1.0000
  C   C531      1.0  0.64218  0.27485  0.17591  1.0000
  C   C532      1.0  0.85188  0.09377  0.14282  1.0000
  H   H915      1.0  0.98600  0.32450  0.10254  1.0000
  H   H916      1.0  0.82535  0.09769  0.08220  1.0000
  C   C533      1.0  0.67281  0.36043  0.16519  1.0000
  C   C534      1.0  0.86867  0.02142  0.10227  1.0000
  C   C535      1.0  0.52625  0.19500  0.19252  1.0000
  H   H917      1.0  0.66965  0.28192  0.16957  1.0000
  H   H918      1.0  0.85443  0.06761  0.14391  1.0000
  H   H919      1.0  0.75674  0.35347  0.20609  1.0000
  C   C536      1.0  0.86020  0.02086  0.08521  1.0000
  H   H920      1.0  0.59554  0.30301  0.16210  1.0000
  H   H921      1.0  0.82299  0.41586  0.98823  1.0000
  C   C537      1.0  0.72442  0.04568  0.13520  1.0000
  C   C538      1.0  0.87087  0.39441  0.18678  1.0000
  H   H922      1.0  0.68975  0.36061  0.13953  1.0000
  N   N39       1.0  0.90753  0.28841  0.08787  1.0000
  H   H923      1.0  0.70102  0.36337  0.16908  1.0000
  C   C539      1.0  0.87994  0.26123  0.07520  1.0000
  C   C540      1.0  0.88568  0.28934  0.10308  1.0000
  C   C541      1.0  0.93250  0.32813  0.08042  1.0000
  C   C542      1.0  0.81940  0.08594  0.10904  1.0000
  C   C543      1.0  0.89832  0.25644  0.05925  1.0000
  C   C544      1.0  0.84401  0.28176  0.10043  1.0000
  C   C545      1.0  0.91111  0.34696  0.07184  1.0000
  H   H924      1.0  0.86534  0.38089  0.17439  1.0000
  H   H925      1.0  0.61230  0.45164  0.20387  1.0000
  H   H926      1.0  0.85888  0.27000  0.07080  1.0000
  H   H927      1.0  0.86225  0.23214  0.08109  1.0000
  H   H928      1.0  0.88251  0.26724  0.11270  1.0000
  H   H929      1.0  0.90210  0.31713  0.10946  1.0000
  H   H930      1.0  0.95102  0.34823  0.09015  1.0000
  H   H931      1.0  0.95312  0.32828  0.07112  1.0000
  H   H932      1.0  0.61890  0.26625  0.16658  1.0000
  C   C546      1.0  0.64753  0.30782  0.18691  1.0000
  C   C547      1.0  0.96313  0.29615  0.10737  1.0000
  H   H933      1.0  0.87498  0.23869  0.05038  1.0000
  H   H934      1.0  0.91752  0.28403  0.05264  1.0000
  H   H935      1.0  0.84174  0.30034  0.09054  1.0000
  H   H936      1.0  0.83343  0.28718  0.11226  1.0000
  H   H937      1.0  0.82405  0.25126  0.09759  1.0000
  H   H938      1.0  0.89363  0.33059  0.06105  1.0000
  H   H939      1.0  0.93287  0.37571  0.06679  1.0000
  H   H940      1.0  0.89301  0.35152  0.08080  1.0000
  N   N40       1.0  0.64275  0.33948  0.17868  1.0000
  S   S168      1.0  0.78882  0.48859  0.19421  1.0000
  H   H941      1.0  0.87318  0.49738  0.19108  1.0000
  H   H942      1.0  0.89553  0.38671  0.98106  1.0000
  C   C548      1.0  0.97070  0.06232  0.08797  1.0000
  H   H943      1.0  0.94925  0.29971  0.11855  1.0000
  H   H944      1.0  0.50847  0.50252  0.99327  1.0000
  H   H945      1.0  0.94389  0.02217  0.06821  1.0000
  H   H946      1.0  0.71008  0.41194  0.18845  1.0000
  H   H947      1.0  0.54596  0.07035  0.17317  1.0000
  S   S169      1.0  0.64443  0.09242  0.21238  1.0000
  H   H948      1.0  0.69760  0.04599  0.13147  1.0000
  H   H949      1.0  0.62867  0.29515  0.19811  1.0000
  C   C549      1.0  0.90040  0.39578  0.96759  1.0000
  C   C550      1.0  0.95247  0.02129  0.08148  1.0000
  Fe  Fe85      1.0  0.99486  0.16601  0.09930  1.0000
  H   H950      1.0  0.98057  0.06432  0.10110  1.0000
  H   H951      1.0  0.63058  0.35274  0.20325  1.0000
  H   H952      1.0  0.59873  0.50314  0.13256  1.0000
  C   C551      1.0  0.54976  0.08504  0.19931  1.0000
  H   H953      1.0  0.56757  0.07080  0.19958  1.0000
  H   H954      1.0  0.50806  0.50364  0.01541  1.0000
  H   H955      1.0  0.89396  0.39079  0.19296  1.0000
  S   S170      1.0  0.99261  0.22081  0.09952  1.0000
  H   H956      1.0  0.67041  0.50254  0.13861  1.0000
  H   H957      1.0  0.77031  0.00976  0.13705  1.0000
  C   C552      1.0  0.90176  0.50014  0.19426  1.0000
  C   C553      1.0  0.93423  0.46372  0.20505  1.0000
  H   H958      1.0  0.99469  0.08321  0.07984  1.0000
  H   H959      1.0  0.91716  0.42760  0.96770  1.0000
  H   H960      1.0  0.69006  0.41155  0.20819  1.0000
  C   C554      1.0  0.86608  0.44315  0.21262  1.0000
  H   H961      1.0  0.54796  0.50406  0.00441  1.0000
  H   H962      1.0  0.53272  0.13199  0.21417  1.0000
  C   C555      1.0  0.96218  0.49883  0.21536  1.0000
  H   H963      1.0  0.86091  0.41408  0.21628  1.0000
  Fe  Fe86      1.0  0.57628  0.44069  0.41406  1.0000
  S   S171      1.0  0.58822  0.44612  0.44159  1.0000
  S   S172      1.0  0.54499  0.38423  0.40093  1.0000
  H   H964      1.0  0.69622  0.43690  0.36725  1.0000
  H   H965      1.0  0.58245  0.23033  0.43560  1.0000
  C   C556      1.0  0.97999  0.41829  0.40580  1.0000
  H   H966      1.0  0.84721  0.19537  0.34316  1.0000
  S   S173      1.0  0.63803  0.47853  0.40621  1.0000
  Fe  Fe87      1.0  0.82472  0.39823  0.41592  1.0000
  S   S174      1.0  0.81615  0.37747  0.44261  1.0000
  S   S175      1.0  0.80488  0.43914  0.40607  1.0000
  Fe  Fe88      1.0  0.86049  0.34865  0.40652  1.0000
  S   S176      1.0  0.85279  0.32351  0.43258  1.0000
  S   S177      1.0  0.88717  0.33515  0.38455  1.0000
  Fe  Fe89      1.0  0.79433  0.31951  0.43182  1.0000
  S   S178      1.0  0.73944  0.27111  0.44328  1.0000
  Fe  Fe90      1.0  0.87531  0.38407  0.44067  1.0000
  C   C557      1.0  0.58798  0.25837  0.43048  1.0000
  S   S179      1.0  0.80012  0.34000  0.40509  1.0000
  S   S180      1.0  0.88607  0.40972  0.41466  1.0000
  Fe  Fe91      1.0  0.95963  0.15083  0.33825  1.0000
  S   S181      1.0  0.56252  0.48869  0.41246  1.0000
  S   S182      1.0  0.90477  0.09932  0.32928  1.0000
  H   H967      1.0  0.95782  0.40667  0.43081  1.0000
  S   S183      1.0  0.96905  0.21087  0.33629  1.0000
  Fe  Fe92      1.0  0.52841  0.15312  0.41225  1.0000
  S   S184      1.0  0.58701  0.18545  0.39979  1.0000
  H   H968      1.0  0.85252  0.02383  0.31797  1.0000
  C   C558      1.0  0.90953  0.30642  0.38479  1.0000
  C   C559      1.0  0.92534  0.30254  0.36986  1.0000
  C   C560      1.0  0.94439  0.28095  0.36953  1.0000
  C   C561      1.0  0.94806  0.26320  0.38420  1.0000
  C   C562      1.0  0.93184  0.26667  0.39910  1.0000
  C   C563      1.0  0.91251  0.28801  0.39940  1.0000
  H   H969      1.0  0.92314  0.31663  0.35848  1.0000
  H   H970      1.0  0.95689  0.27870  0.35800  1.0000
  H   H971      1.0  0.93442  0.25291  0.41050  1.0000
  H   H972      1.0  0.90019  0.29045  0.41094  1.0000
  C   C564      1.0  0.69746  0.24719  0.43095  1.0000
  C   C565      1.0  0.69687  0.25784  0.41419  1.0000
  C   C566      1.0  0.66289  0.23843  0.40475  1.0000
  C   C567      1.0  0.62907  0.20870  0.41206  1.0000
  C   C568      1.0  0.62947  0.19823  0.42887  1.0000
  C   C569      1.0  0.66367  0.21729  0.43824  1.0000
  H   H973      1.0  0.72268  0.28052  0.40840  1.0000
  H   H974      1.0  0.66287  0.24626  0.39169  1.0000
  H   H975      1.0  0.60367  0.17496  0.43454  1.0000
  H   H976      1.0  0.66403  0.20863  0.45116  1.0000
  H   H977      1.0  0.87906  0.49379  0.22746  1.0000
  H   H978      1.0  0.59942  0.11725  0.24436  1.0000
  C   C570      1.0  0.60835  0.02226  0.22874  1.0000
  C   C571      1.0  0.72110  0.46243  0.43544  1.0000
  H   H979      1.0  0.89769  0.46371  0.23624  1.0000
  C   C572      1.0  0.75696  0.46888  0.41010  1.0000
  C   C573      1.0  0.77120  0.44610  0.41733  1.0000
  C   C574      1.0  0.75938  0.43063  0.43352  1.0000
  C   C575      1.0  0.73506  0.43943  0.44265  1.0000
  H   H980      1.0  0.68514  0.43917  0.38882  1.0000
  Fe  Fe93      1.0  0.57987  0.49737  0.43949  1.0000
  H   H981      1.0  0.77001  0.41300  0.43922  1.0000
  H   H982      1.0  0.66359  0.29310  0.44145  1.0000
  C   C576      1.0  0.52659  0.34064  0.41252  1.0000
  H   H983      1.0  0.62094  0.23928  0.45736  1.0000
  C   C577      1.0  0.61382  0.25600  0.46597  1.0000
  H   H984      1.0  0.56148  0.27414  0.44977  1.0000
  H   H985      1.0  0.99874  0.09345  0.34593  1.0000
  H   H986      1.0  0.88060  0.46738  0.45180  1.0000
  H   H987      1.0  0.95118  0.46968  0.43737  1.0000
  C   C578      1.0  0.89209  0.05007  0.35654  1.0000
  C   C579      1.0  0.88426  0.05396  0.33971  1.0000
  H   H988      1.0  0.64684  0.30251  0.39138  1.0000
  H   H989      1.0  0.91170  0.07509  0.36338  1.0000
  C   C580      1.0  0.63416  0.37766  0.41305  1.0000
  H   H990      1.0  0.82097  0.49364  0.45886  1.0000
  H   H991      1.0  0.70198  0.37247  0.36664  1.0000
  C   C581      1.0  0.50956  0.10196  0.21684  1.0000
  H   H992      1.0  0.56452  0.06125  0.22825  1.0000
  C   C582      1.0  0.98644  0.06556  0.33969  1.0000
  H   H993      1.0  0.71860  0.32668  0.45642  1.0000
  H   H994      1.0  0.95564  0.40511  0.39681  1.0000
  H   H995      1.0  0.72739  0.42875  0.45540  1.0000
  H   H996      1.0  0.58001  0.31501  0.37919  1.0000
  H   H997      1.0  0.61763  0.37765  0.38176  1.0000
  H   H998      1.0  0.89808  0.22320  0.34124  1.0000
  H   H999      1.0  0.60408  0.35532  0.41074  1.0000
  H   H1000     1.0  0.95532  0.05540  0.33806  1.0000
  H   H1001     1.0  0.63836  0.38013  0.42678  1.0000
  C   C583      1.0  0.59361  0.30142  0.38682  1.0000
  H   H1002     1.0  0.57933  0.27092  0.38324  1.0000
  C   C584      1.0  0.69457  0.32918  0.46198  1.0000
  H   H1003     1.0  0.78275  0.08648  0.33721  1.0000
  H   H1004     1.0  0.83430  0.11213  0.33573  1.0000
  H   H1005     1.0  0.70628  0.36032  0.46350  1.0000
  H   H1006     1.0  0.98559  0.03934  0.36366  1.0000
  H   H1007     1.0  0.69280  0.39392  0.40871  1.0000
  C   C585      1.0  0.63731  0.31976  0.38361  1.0000
  H   H1008     1.0  0.58715  0.30095  0.40021  1.0000
  H   H1009     1.0  0.51518  0.30739  0.39047  1.0000
  H   H1010     1.0  0.80992  0.07136  0.35001  1.0000
  H   H1011     1.0  0.95637  0.31408  0.45055  1.0000
  C   C586      1.0  0.72163  0.35256  0.38795  1.0000
  H   H1012     1.0  0.56314  0.25246  0.42221  1.0000
  C   C587      1.0  0.96880  0.39318  0.42209  1.0000
  C   C588      1.0  0.66000  0.31286  0.44974  1.0000
  S   S185      1.0  0.98001  0.15572  0.36465  1.0000
  H   H1013     1.0  0.87317  0.18106  0.32957  1.0000
  H   H1014     1.0  0.50122  0.03611  0.43850  1.0000
  H   H1015     1.0  0.55024  0.22002  0.46307  1.0000
  H   H1016     1.0  0.61433  0.27116  0.42257  1.0000
  H   H1017     1.0  0.83590  0.48537  0.43953  1.0000
  S   S186      1.0  0.91787  0.40676  0.46213  1.0000
  C   C589      1.0  0.87384  0.01374  0.36464  1.0000
  H   H1018     1.0  0.99163  0.36012  0.39621  1.0000
  H   H1019     1.0  0.59661  0.31252  0.43758  1.0000
  S   S187      1.0  0.97357  0.23745  0.38471  1.0000
  H   H1020     1.0  0.94332  0.36493  0.41919  1.0000
  C   C590      1.0  0.51386  0.30654  0.40398  1.0000
  C   C591      1.0  0.96420  0.48039  0.44936  1.0000
  H   H1021     1.0  0.53378  0.36525  0.43668  1.0000
  H   H1022     1.0  0.87954  0.01107  0.37772  1.0000
  H   H1023     1.0  0.70823  0.32296  0.38334  1.0000
  H   H1024     1.0  0.72135  0.49476  0.41342  1.0000
  H   H1025     1.0  0.80603  0.18732  0.36871  1.0000
  N   N41       1.0  0.62039  0.29299  0.45765  1.0000
  S   S188      1.0  0.51709  0.15601  0.43938  1.0000
  N   N42       1.0  0.66189  0.36195  0.38693  1.0000
  C   C592      1.0  0.70208  0.37457  0.38050  1.0000
  H   H1026     1.0  0.60226  0.13324  0.22323  1.0000
  H   H1027     1.0  0.64070  0.31413  0.37035  1.0000
  H   H1028     1.0  0.97760  0.48991  0.22454  1.0000
  H   H1029     1.0  0.92742  0.33625  0.44516  1.0000
  H   H1030     1.0  0.84763  0.44874  0.23720  1.0000
  H   H1031     1.0  0.62105  0.03834  0.23990  1.0000
  H   H1032     1.0  0.63789  0.40549  0.40841  1.0000
  H   H1033     1.0  0.64101  0.37457  0.36379  1.0000
  H   H1034     1.0  0.66310  0.34445  0.41271  1.0000
  C   C593      1.0  0.66436  0.36907  0.40546  1.0000
  H   H1035     1.0  0.50084  0.10119  0.23010  1.0000
  H   H1036     1.0  0.82976  0.21184  0.38710  1.0000
  C   C594      1.0  0.67247  0.42784  0.37647  1.0000
  H   H1037     1.0  0.72225  0.40525  0.38315  1.0000
  H   H1038     1.0  0.97463  0.32836  0.42375  1.0000
  C   C595      1.0  0.64631  0.38386  0.37701  1.0000
  C   C596      1.0  0.58194  0.11908  0.23380  1.0000
  H   H1039     1.0  0.65519  0.44144  0.37240  1.0000
  H   H1040     1.0  0.72176  0.35199  0.40182  1.0000
  H   H1041     1.0  0.75233  0.36737  0.38382  1.0000
  C   C597      1.0  0.59073  0.28552  0.44423  1.0000
  H   H1042     1.0  0.66345  0.33717  0.44155  1.0000
  C   C598      1.0  0.95396  0.45537  0.46330  1.0000
  N   N43       1.0  0.84801  0.14523  0.36752  1.0000
  C   C599      1.0  0.85631  0.11572  0.37579  1.0000
  C   C600      1.0  0.81022  0.12339  0.35833  1.0000
  C   C601      1.0  0.84377  0.16794  0.38117  1.0000
  C   C602      1.0  0.88133  0.17079  0.35608  1.0000
  C   C603      1.0  0.89050  0.13098  0.38813  1.0000
  C   C604      1.0  0.80978  0.09705  0.34460  1.0000
  C   C605      1.0  0.83352  0.19887  0.37572  1.0000
  C   C606      1.0  0.87360  0.19328  0.34188  1.0000
  H   H1043     1.0  0.83046  0.09340  0.38275  1.0000
  H   H1044     1.0  0.86278  0.10015  0.36624  1.0000
  H   H1045     1.0  0.80069  0.14244  0.35235  1.0000
  H   H1046     1.0  0.78652  0.10516  0.36731  1.0000
  H   H1047     1.0  0.82146  0.14831  0.39040  1.0000
  H   H1048     1.0  0.87124  0.18370  0.38827  1.0000
  H   H1049     1.0  0.90624  0.19199  0.36345  1.0000
  H   H1050     1.0  0.89212  0.15357  0.34981  1.0000
  H   H1051     1.0  0.91673  0.15595  0.38287  1.0000
  H   H1052     1.0  0.88295  0.13864  0.40017  1.0000
  H   H1053     1.0  0.89788  0.10818  0.39104  1.0000
  C   C607      1.0  0.98955  0.37730  0.44878  1.0000
  H   H1054     1.0  0.98553  0.39950  0.45491  1.0000
  C   C608      1.0  0.88563  0.48727  0.46207  1.0000
  H   H1055     1.0  0.85748  0.22273  0.36860  1.0000
  H   H1056     1.0  0.53171  0.06611  0.24127  1.0000
  C   C609      1.0  0.87379  0.46417  0.22917  1.0000
  C   C610      1.0  0.85880  0.02110  0.33099  1.0000
  C   C611      1.0  0.54970  0.07816  0.22975  1.0000
  C   C612      1.0  0.95228  0.33900  0.45255  1.0000
  S   S189      1.0  0.69268  0.47493  0.44759  1.0000
  Fe  Fe94      1.0  0.64943  0.48625  0.43366  1.0000
  Fe  Fe95      1.0  0.99280  0.21693  0.36234  1.0000
  H   H1057     1.0  0.76602  0.48105  0.39761  1.0000
  C   C613      1.0  0.52454  0.33927  0.42999  1.0000
  C   C614      1.0  0.73155  0.47658  0.41903  1.0000
  C   C615      1.0  0.62561  0.35776  0.46462  1.0000
  H   H1058     1.0  0.57017  0.13739  0.23782  1.0000
  H   H1059     1.0  0.60381  0.35654  0.45551  1.0000
  H   H1060     1.0  0.94453  0.33770  0.46594  1.0000
  H   H1061     1.0  0.65500  0.37525  0.45927  1.0000
  C   C616      1.0  0.50493  0.49886  0.46336  1.0000
  C   C617      1.0  0.50935  0.30394  0.43880  1.0000
  H   H1062     1.0  0.98363  0.44691  0.40824  1.0000
  H   H1063     1.0  0.95537  0.01655  0.31491  1.0000
  H   H1064     1.0  0.50716  0.30299  0.45229  1.0000
  H   H1065     1.0  0.99335  0.01805  0.30304  1.0000
  C   C618      1.0  0.99474  0.03838  0.35066  1.0000
  H   H1066     1.0  0.90740  0.49361  0.42789  1.0000
  S   S190      1.0  0.54798  0.17096  0.65121  1.0000
  Fe  Fe96      1.0  0.61143  0.47318  0.66368  1.0000
  S   S191      1.0  0.62974  0.47639  0.69049  1.0000
  S   S192      1.0  0.56357  0.42069  0.65155  1.0000
  H   H1067     1.0  0.82937  0.43975  0.47042  1.0000
  Fe  Fe97      1.0  0.82053  0.28048  0.65532  1.0000
  S   S193      1.0  0.81209  0.25948  0.68217  1.0000
  S   S194      1.0  0.83278  0.25453  0.63289  1.0000
  Fe  Fe98      1.0  0.80023  0.34321  0.66259  1.0000
  S   S195      1.0  0.79076  0.32688  0.68980  1.0000
  S   S196      1.0  0.78355  0.38379  0.64957  1.0000
  Fe  Fe99      1.0  0.84486  0.32226  0.68825  1.0000
  H   H1068     1.0  0.62396  0.37331  0.47550  1.0000
  Fe  Fe100     1.0  0.75932  0.26641  0.68131  1.0000
  S   S197      1.0  0.70151  0.22377  0.69279  1.0000
  S   S198      1.0  0.85673  0.34316  0.66131  1.0000
  S   S199      1.0  0.76561  0.28289  0.65417  1.0000
  Fe  Fe101     1.0  0.79562  0.05418  0.60442  1.0000
  S   S200      1.0  0.80839  0.07999  0.57836  1.0000
  S   S201      1.0  0.78435  0.07905  0.62739  1.0000
  Fe  Fe102     1.0  0.85705  0.06670  0.57901  1.0000
  S   S202      1.0  0.91666  0.10706  0.56845  1.0000
  S   S203      1.0  0.84668  0.04484  0.60556  1.0000
  C   C619      1.0  0.95782  0.11254  0.57929  1.0000
  H   H1069     1.0  0.58700  0.30314  0.47582  1.0000
  C   C620      1.0  0.95539  0.10011  0.59596  1.0000
  H   H1070     1.0  0.96242  0.21494  0.60450  1.0000
  H   H1071     1.0  0.92781  0.08558  0.60221  1.0000
  H   H1072     1.0  0.61805  0.39657  0.67757  1.0000
  C   C621      1.0  0.81839  0.20550  0.63160  1.0000
  C   C622      1.0  0.81482  0.18985  0.61578  1.0000
  C   C623      1.0  0.80458  0.15116  0.61427  1.0000
  C   C624      1.0  0.79801  0.12791  0.62861  1.0000
  C   C625      1.0  0.80159  0.14358  0.64441  1.0000
  C   C626      1.0  0.81178  0.18221  0.64592  1.0000
  H   H1073     1.0  0.82009  0.20777  0.60464  1.0000
  H   H1074     1.0  0.80171  0.13936  0.60203  1.0000
  H   H1075     1.0  0.79647  0.12572  0.65556  1.0000
  H   H1076     1.0  0.81483  0.19407  0.65816  1.0000
  C   C627      1.0  0.95701  0.36474  0.69728  1.0000
  S   S204      1.0  0.73096  0.48239  0.69048  1.0000
  Fe  Fe103     1.0  0.68948  0.50068  0.67984  1.0000
  H   H1077     1.0  0.94147  0.34822  0.68659  1.0000
  C   C628      1.0  0.76567  0.40751  0.66165  1.0000
  C   C629      1.0  0.74279  0.42111  0.65393  1.0000
  C   C630      1.0  0.73052  0.44265  0.66288  1.0000
  C   C631      1.0  0.74189  0.45162  0.67949  1.0000
  C   C632      1.0  0.76430  0.43756  0.68728  1.0000
  C   C633      1.0  0.77585  0.41524  0.67844  1.0000
  H   H1078     1.0  0.73483  0.41521  0.64093  1.0000
  H   H1079     1.0  0.77329  0.44443  0.70013  1.0000
  H   H1080     1.0  0.79383  0.40525  0.68446  1.0000
  H   H1081     1.0  0.75074  0.49129  0.63215  1.0000
  C   C634      1.0  0.85666  0.46235  0.47594  1.0000
  C   C635      1.0  0.52934  0.34262  0.65489  1.0000
  C   C636      1.0  0.54321  0.37716  0.66322  1.0000
  C   C637      1.0  0.53911  0.37633  0.68057  1.0000
  H   H1082     1.0  0.66991  0.28245  0.70128  1.0000
  H   H1083     1.0  0.95876  0.25901  0.63191  1.0000
  H   H1084     1.0  0.63324  0.31299  0.63722  1.0000
  H   H1085     1.0  0.54952  0.40280  0.68709  1.0000
  C   C638      1.0  0.58987  0.18861  0.66353  1.0000
  C   C639      1.0  0.58836  0.17650  0.68022  1.0000
  C   C640      1.0  0.62281  0.18814  0.68923  1.0000
  C   C641      1.0  0.65878  0.21243  0.68169  1.0000
  C   C642      1.0  0.65998  0.22591  0.66526  1.0000
  C   C643      1.0  0.62571  0.21361  0.65614  1.0000
  H   H1086     1.0  0.56076  0.15714  0.68601  1.0000
  H   H1087     1.0  0.99593  0.14021  0.55827  1.0000
  H   H1088     1.0  0.68724  0.24521  0.65942  1.0000
  H   H1089     1.0  0.62697  0.22330  0.64327  1.0000
  N   N44       1.0  0.63346  0.31791  0.68099  1.0000
  H   H1090     1.0  0.98455  0.22116  0.63277  1.0000
  C   C644      1.0  0.67115  0.08322  0.62654  1.0000
  H   H1091     1.0  0.63622  0.47654  0.52165  1.0000
  C   C645      1.0  0.83169  0.50146  0.64212  1.0000
  H   H1092     1.0  0.96424  0.45027  0.48953  1.0000
  H   H1093     1.0  0.87926  0.18861  0.62452  1.0000
  H   H1094     1.0  0.58553  0.32725  0.67502  1.0000
  C   C646      1.0  0.60520  0.27657  0.68539  1.0000
  C   C647      1.0  0.64839  0.32020  0.66353  1.0000
  S   S205      1.0  0.67068  0.49404  0.65312  1.0000
  C   C648      1.0  0.66740  0.33416  0.69280  1.0000
  H   H1095     1.0  0.50040  0.28098  0.65730  1.0000
  C   C649      1.0  0.98897  0.10743  0.60474  1.0000
  H   H1096     1.0  0.66052  0.30074  0.66245  1.0000
  H   H1097     1.0  0.64218  0.48945  0.47062  1.0000
  H   H1098     1.0  0.71297  0.45297  0.65681  1.0000
  C   C650      1.0  0.50589  0.30652  0.68113  1.0000
  C   C651      1.0  0.93666  0.36891  0.71038  1.0000
  H   H1099     1.0  0.86538  0.09145  0.64645  1.0000
  H   H1100     1.0  0.83214  0.47705  0.64883  1.0000
  H   H1101     1.0  0.61936  0.43867  0.49435  1.0000
  H   H1102     1.0  0.61822  0.25828  0.68324  1.0000
  H   H1103     1.0  0.91307  0.25675  0.63003  1.0000
  C   C652      1.0  0.60124  0.49694  0.49581  1.0000
  H   H1104     1.0  0.55298  0.49753  0.50796  1.0000
  C   C653      1.0  0.97179  0.46953  0.47872  1.0000
  H   H1105     1.0  0.60408  0.34070  0.69532  1.0000
  H   H1106     1.0  0.67302  0.34929  0.66054  1.0000
  H   H1107     1.0  0.89413  0.01459  0.58711  1.0000
  H   H1108     1.0  0.62160  0.17780  0.70199  1.0000
  H   H1109     1.0  0.63584  0.32078  0.48157  1.0000
  C   C654      1.0  0.96314  0.19059  0.63556  1.0000
  H   H1110     1.0  0.68980  0.36332  0.68842  1.0000
  C   C655      1.0  0.99392  0.13084  0.57124  1.0000
  H   H1111     1.0  0.68281  0.09421  0.61380  1.0000
  H   H1112     1.0  0.96656  0.13719  0.63580  1.0000
  N   N45       1.0  0.69291  0.14906  0.63934  1.0000
  C   C656      1.0  0.70867  0.16835  0.62249  1.0000
  H   H1113     1.0  0.59313  0.47102  0.50373  1.0000
  C   C657      1.0  0.71825  0.17557  0.65279  1.0000
  C   C658      1.0  0.65210  0.14182  0.64073  1.0000
  C   C659      1.0  0.71804  0.21040  0.62035  1.0000
  H   H1114     1.0  0.57078  0.23658  0.70528  1.0000
  C   C660      1.0  0.71993  0.15716  0.66978  1.0000
  C   C661      1.0  0.62909  0.11993  0.65652  1.0000
  H   H1115     1.0  0.73585  0.16820  0.61956  1.0000
  S   S206      1.0  0.82128  0.00867  0.56821  1.0000
  H   H1116     1.0  0.68471  0.09686  0.65223  1.0000
  H   H1117     1.0  0.95062  0.16665  0.60312  1.0000
  H   H1118     1.0  0.74884  0.19224  0.64855  1.0000
  H   H1119     1.0  0.70975  0.19739  0.65537  1.0000
  H   H1120     1.0  0.65196  0.16932  0.64055  1.0000
  H   H1121     1.0  0.63303  0.09551  0.66038  1.0000
  H   H1122     1.0  0.72439  0.21944  0.60696  1.0000
  H   H1123     1.0  0.69393  0.21482  0.62408  1.0000
  H   H1124     1.0  0.74450  0.22987  0.62731  1.0000
  C   C662      1.0  0.90833  0.20064  0.63010  1.0000
  S   S207      1.0  0.88547  0.34573  0.71061  1.0000
  H   H1125     1.0  0.57946  0.26534  0.67708  1.0000
  H   H1126     1.0  0.69117  0.13889  0.67548  1.0000
  H   H1127     1.0  0.73690  0.18025  0.67868  1.0000
  H   H1128     1.0  0.73531  0.14067  0.66870  1.0000
  H   H1129     1.0  0.63624  0.13951  0.66709  1.0000
  H   H1130     1.0  0.65904  0.44402  0.48240  1.0000
  H   H1131     1.0  0.56532  0.24198  0.48321  1.0000
  N   N46       1.0  0.92733  0.17809  0.62510  1.0000
  C   C663      1.0  0.93867  0.18507  0.60689  1.0000
  H   H1132     1.0  0.99785  0.17352  0.62056  1.0000
  H   H1133     1.0  0.99808  0.05387  0.57839  1.0000
  C   C664      1.0  0.89894  0.13604  0.62791  1.0000
  C   C665      1.0  0.90574  0.17690  0.59440  1.0000
  H   H1134     1.0  0.60565  0.32852  0.64858  1.0000
  H   H1135     1.0  0.71375  0.32664  0.70351  1.0000
  C   C666      1.0  0.88773  0.12231  0.64625  1.0000
  H   H1136     1.0  0.64571  0.38697  0.66328  1.0000
  C   C667      1.0  0.69455  0.11238  0.64002  1.0000
  H   H1137     1.0  0.80660  0.48905  0.63363  1.0000
  H   H1138     1.0  0.53262  0.34316  0.64147  1.0000
  H   H1139     1.0  0.63999  0.07420  0.62706  1.0000
  H   H1140     1.0  0.90329  0.19825  0.64384  1.0000
  H   H1141     1.0  0.87130  0.12795  0.62129  1.0000
  H   H1142     1.0  0.90982  0.11816  0.62241  1.0000
  H   H1143     1.0  0.88369  0.14606  0.59445  1.0000
  H   H1144     1.0  0.89157  0.19410  0.59659  1.0000
  H   H1145     1.0  0.91793  0.18432  0.58153  1.0000
  C   C668      1.0  0.93034  0.24390  0.62560  1.0000
  C   C669      1.0  0.61844  0.30955  0.64934  1.0000
  C   C670      1.0  0.61295  0.34070  0.68220  1.0000
  C   C671      1.0  0.65683  0.49655  0.48302  1.0000
  H   H1146     1.0  0.93392  0.24977  0.61193  1.0000
  H   H1147     1.0  0.66166  0.39940  0.68472  1.0000
  H   H1148     1.0  0.91254  0.12489  0.65368  1.0000
  H   H1149     1.0  0.58557  0.48552  0.48386  1.0000
  H   H1150     1.0  0.87471  0.13749  0.65242  1.0000
  H   H1151     1.0  0.68811  0.15250  0.61230  1.0000
  H   H1152     1.0  0.63441  0.12742  0.62959  1.0000
  H   H1153     1.0  0.67367  0.05714  0.62882  1.0000
  H   H1154     1.0  0.57000  0.28040  0.70550  1.0000
  H   H1155     1.0  0.72502  0.11894  0.63886  1.0000
  H   H1156     1.0  0.59769  0.10708  0.65386  1.0000
  H   H1157     1.0  0.95640  0.18920  0.64912  1.0000
  H   H1158     1.0  0.98700  0.09852  0.61777  1.0000
  C   C672      1.0  0.63642  0.38317  0.67651  1.0000
  H   H1159     1.0  0.59519  0.27918  0.65040  1.0000
  H   H1160     1.0  0.84971  0.47899  0.48456  1.0000
  H   H1161     1.0  0.86969  0.44845  0.48382  1.0000
  C   C673      1.0  0.98495  0.16835  0.63323  1.0000
  C   C674      1.0  0.91351  0.00782  0.57993  1.0000
  C   C675      1.0  0.65013  0.45874  0.49136  1.0000
  H   H1162     1.0  0.57142  0.20252  0.47807  1.0000
  H   H1163     1.0  0.65863  0.33814  0.70540  1.0000
  H   H1164     1.0  0.66871  0.46394  0.50251  1.0000
  H   H1165     1.0  0.95236  0.02532  0.60042  1.0000
  Fe  Fe104     1.0  0.77093  0.01917  0.57007  1.0000
  H   H1166     1.0  0.93082  0.03274  0.57141  1.0000
  H   H1167     1.0  0.98182  0.02409  0.56092  1.0000
  C   C676      1.0  0.68849  0.31089  0.69517  1.0000
  C   C677      1.0  0.51107  0.30738  0.66384  1.0000
  C   C678      1.0  0.99511  0.02692  0.57351  1.0000
  C   C679      1.0  0.99750  0.38113  0.69824  1.0000
  C   C680      1.0  0.57274  0.22910  0.47287  1.0000
  H   H1168     1.0  0.51646  0.34062  0.70286  1.0000
  H   H1169     1.0  0.61202  0.27793  0.71298  1.0000
  C   C681      1.0  0.58904  0.26809  0.70338  1.0000
  H   H1170     1.0  0.69994  0.30720  0.68326  1.0000
  C   C682      1.0  0.52031  0.34109  0.68947  1.0000
  H   H1171     1.0  0.68853  0.31435  0.47437  1.0000
  H   H1172     1.0  0.98755  0.01553  0.62098  1.0000
  C   C683      1.0  0.61689  0.31738  0.47066  1.0000
  H   H1173     1.0  0.63370  0.26154  0.47671  1.0000
  H   H1174     1.0  0.91522  0.49552  0.46644  1.0000
  Fe  Fe105     1.0  0.58936  0.10598  0.94047  1.0000
  S   S208      1.0  0.56918  0.10042  0.91382  1.0000
  H   H1175     1.0  0.66447  0.39787  0.93898  1.0000
  Fe  Fe106     1.0  0.65705  0.18658  0.93408  1.0000
  S   S209      1.0  0.64277  0.18663  0.90689  1.0000
  S   S210      1.0  0.70424  0.23761  0.94740  1.0000
  Fe  Fe107     1.0  0.58142  0.16112  0.91576  1.0000
  S   S211      1.0  0.54598  0.18421  0.90268  1.0000
  Fe  Fe108     1.0  0.63213  0.12609  0.90717  1.0000
  S   S212      1.0  0.64883  0.10364  0.88476  1.0000
  S   S213      1.0  0.59620  0.16453  0.94306  1.0000
  S   S214      1.0  0.65180  0.12829  0.93372  1.0000
  C   C684      1.0  0.81647  0.15177  0.87335  1.0000
  H   H1176     1.0  0.90285  0.19593  0.83833  1.0000
  C   C685      1.0  0.65609  0.31256  0.88961  1.0000
  S   S215      1.0  0.86573  0.07021  0.82644  1.0000
  H   H1177     1.0  0.52648  0.18270  0.93778  1.0000
  S   S216      1.0  0.57797  0.43371  0.89708  1.0000
  H   H1178     1.0  0.90040  0.01397  0.81249  1.0000
  C   C686      1.0  0.86673  0.40977  0.94425  1.0000
  H   H1179     1.0  0.88621  0.38571  0.92439  1.0000
  H   H1180     1.0  0.86705  0.34039  0.94363  1.0000
  Fe  Fe109     1.0  0.81321  0.45149  0.91614  1.0000
  S   S217      1.0  0.79391  0.39356  0.90548  1.0000
  S   S218      1.0  0.80005  0.46218  0.94187  1.0000
  H   H1181     1.0  0.85933  0.19660  0.84144  1.0000
  C   C687      1.0  0.89339  0.41351  0.92971  1.0000
  C   C688      1.0  0.62112  0.45299  0.90868  1.0000
  C   C689      1.0  0.62240  0.46364  0.92524  1.0000
  C   C690      1.0  0.65775  0.48100  0.93387  1.0000
  C   C691      1.0  0.69173  0.48678  0.92619  1.0000
  C   C692      1.0  0.69016  0.47485  0.90984  1.0000
  C   C693      1.0  0.65506  0.45855  0.90103  1.0000
  H   H1182     1.0  0.59637  0.45949  0.93122  1.0000
  Fe  Fe110     1.0  0.52099  0.39964  0.91071  1.0000
  H   H1183     1.0  0.68341  0.33998  0.88765  1.0000
  H   H1184     1.0  0.65414  0.45020  0.88824  1.0000
  C   C694      1.0  0.91052  0.08744  0.83678  1.0000
  C   C695      1.0  0.94466  0.11383  0.82841  1.0000
  C   C696      1.0  0.99784  0.40738  0.72503  1.0000
  C   C697      1.0  0.94871  0.09066  0.86126  1.0000
  C   C698      1.0  0.91269  0.07580  0.85323  1.0000
  H   H1185     1.0  0.94322  0.12302  0.81569  1.0000
  H   H1186     1.0  0.95009  0.08181  0.87405  1.0000
  H   H1187     1.0  0.88666  0.05574  0.85985  1.0000
  C   C699      1.0  0.72759  0.28082  0.93560  1.0000
  C   C700      1.0  0.73436  0.28092  0.91851  1.0000
  C   C701      1.0  0.75449  0.31576  0.90943  1.0000
  C   C702      1.0  0.76721  0.35067  0.91726  1.0000
  C   C703      1.0  0.75917  0.35058  0.93423  1.0000
  C   C704      1.0  0.74007  0.31572  0.94346  1.0000
  H   H1188     1.0  0.72496  0.25415  0.91237  1.0000
  H   H1189     1.0  0.76042  0.31563  0.89627  1.0000
  H   H1190     1.0  0.76800  0.37728  0.94027  1.0000
  H   H1191     1.0  0.61129  0.38394  0.92150  1.0000
  H   H1192     1.0  0.57799  0.34555  0.90838  1.0000
  H   H1193     1.0  0.70547  0.02911  0.91015  1.0000
  H   H1194     1.0  0.69762  0.37961  0.94196  1.0000
  H   H1195     1.0  0.91645  0.35131  0.96401  1.0000
  H   H1196     1.0  0.80431  0.36954  0.96470  1.0000
  C   C705      1.0  0.66995  0.07392  0.88468  1.0000
  C   C706      1.0  0.67559  0.06149  0.86928  1.0000
  H   H1197     1.0  0.63076  0.04479  0.93879  1.0000
  N   N47       1.0  0.86249  0.38242  0.95850  1.0000
  H   H1198     1.0  0.82088  0.33595  0.94348  1.0000
  C   C707      1.0  0.68120  0.06247  0.89940  1.0000
  H   H1199     1.0  0.66707  0.07033  0.85783  1.0000
  C   C708      1.0  0.97986  0.31050  0.73976  1.0000
  H   H1200     1.0  0.81332  0.05296  0.88489  1.0000
  H   H1201     1.0  0.67760  0.07235  0.91130  1.0000
  H   H1202     1.0  0.71175  0.42286  0.93020  1.0000
  H   H1203     1.0  0.89401  0.21076  0.85812  1.0000
  H   H1204     1.0  0.61473  0.33459  0.94108  1.0000
  C   C709      1.0  0.57151  0.01299  0.91504  1.0000
  C   C710      1.0  0.52120  0.20337  0.93101  1.0000
  H   H1205     1.0  0.99057  0.48683  0.94455  1.0000
  H   H1206     1.0  0.66474  0.38954  0.90793  1.0000
  H   H1207     1.0  0.83799  0.40163  0.93871  1.0000
  C   C711      1.0  0.98288  0.11676  0.85284  1.0000
  H   H1208     1.0  0.52748  0.24153  0.89190  1.0000
  H   H1209     1.0  0.99492  0.04887  0.85549  1.0000
  H   H1210     1.0  0.69573  0.02789  0.85664  1.0000
  H   H1211     1.0  0.58257  0.29813  0.92786  1.0000
  H   H1212     1.0  0.94175  0.39389  0.73436  1.0000
  C   C712      1.0  0.95017  0.50358  0.95316  1.0000
  H   H1213     1.0  0.95731  0.33112  0.76743  1.0000
  H   H1214     1.0  0.64311  0.30293  0.87708  1.0000
  C   C713      1.0  0.60698  0.32806  0.92770  1.0000
  C   C714      1.0  0.70239  0.02538  0.88331  1.0000
  C   C715      1.0  0.84607  0.34272  0.95177  1.0000
  C   C716      1.0  0.67296  0.37231  0.91644  1.0000
  C   C717      1.0  0.98080  0.12812  0.83633  1.0000
  H   H1215     1.0  0.77627  0.07196  0.86721  1.0000
  H   H1216     1.0  0.99401  0.37189  0.75647  1.0000
  Fe  Fe111     1.0  0.78635  0.50435  0.92892  1.0000
  C   C718      1.0  0.93540  0.29129  0.74071  1.0000
  H   H1217     1.0  0.60189  0.25724  0.93615  1.0000
  H   H1218     1.0  0.98987  0.33558  0.73097  1.0000
  H   H1219     1.0  0.66259  0.29043  0.89474  1.0000
  H   H1220     1.0  0.60219  0.03609  0.91379  1.0000
  H   H1221     1.0  0.64643  0.01027  0.93539  1.0000
  H   H1222     1.0  0.92299  0.27914  0.72837  1.0000
  C   C719      1.0  0.82711  0.08394  0.88146  1.0000
  H   H1223     1.0  0.93397  0.38783  0.94762  1.0000
  C   C720      1.0  0.88044  0.19035  0.84784  1.0000
  C   C721      1.0  0.77586  0.13388  0.88124  1.0000
  S   S219      1.0  0.51314  0.38332  0.93809  1.0000
  H   H1224     1.0  0.78122  0.11264  0.81911  1.0000
  H   H1225     1.0  0.83203  0.13828  0.82299  1.0000
  N   N48       1.0  0.64058  0.33133  0.91792  1.0000
  H   H1226     1.0  0.61777  0.25122  0.91589  1.0000
  H   H1227     1.0  0.64235  0.25039  0.93444  1.0000
  H   H1228     1.0  0.75361  0.13051  0.87191  1.0000
  H   H1229     1.0  0.83762  0.15694  0.88355  1.0000
  H   H1230     1.0  0.88081  0.14959  0.86543  1.0000
  H   H1231     1.0  0.79630  0.15594  0.84294  1.0000
  C   C722      1.0  0.58997  0.35304  0.92116  1.0000
  H   H1232     1.0  0.93649  0.50047  0.94112  1.0000
  C   C723      1.0  0.95729  0.39037  0.72422  1.0000
  C   C724      1.0  0.62701  0.31696  0.90057  1.0000
  H   H1233     1.0  0.80341  0.08851  0.82939  1.0000
  H   H1234     1.0  0.50352  0.27854  0.90698  1.0000
  S   S220      1.0  0.79477  0.48998  0.90311  1.0000
  C   C725      1.0  0.86261  0.14858  0.85459  1.0000
  H   H1235     1.0  0.66371  0.31718  0.93999  1.0000
  H   H1236     1.0  0.92604  0.31254  0.74306  1.0000
  H   H1237     1.0  0.76425  0.10747  0.84802  1.0000
  H   H1238     1.0  0.61955  0.33658  0.89341  1.0000
  C   C726      1.0  0.69189  0.03749  0.86857  1.0000
  H   H1239     1.0  0.96306  0.27554  0.77290  1.0000
  H   H1240     1.0  0.81414  0.07357  0.85546  1.0000
  H   H1241     1.0  0.55805  0.02478  0.92335  1.0000
  N   N49       1.0  0.82065  0.12936  0.85960  1.0000
  H   H1242     1.0  0.92420  0.42974  0.93340  1.0000
  C   C727      1.0  0.69710  0.03809  0.89870  1.0000
  H   H1243     1.0  0.82370  0.18093  0.86863  1.0000
  C   C728      1.0  0.79524  0.12799  0.84513  1.0000
  C   C729      1.0  0.52147  0.23636  0.90517  1.0000
  S   S221      1.0  0.87604  0.49673  0.91673  1.0000
  H   H1244     1.0  0.82263  0.09768  0.89231  1.0000
  C   C730      1.0  0.94850  0.01938  0.82762  1.0000
  H   H1245     1.0  0.76723  0.10593  0.88760  1.0000
  H   H1246     1.0  0.92278  0.26760  0.75021  1.0000
  C   C731      1.0  0.68701  0.39379  0.93297  1.0000
  H   H1247     1.0  0.95065  0.04544  0.83303  1.0000
  H   H1248     1.0  0.77592  0.15311  0.89090  1.0000
  C   C732      1.0  0.52862  0.20965  0.91384  1.0000
  H   H1249     1.0  0.55826  0.03737  0.89297  1.0000
  H   H1250     1.0  0.68238  0.31229  0.92093  1.0000
  H   H1251     1.0  0.85834  0.09429  0.87967  1.0000
  H   H1252     1.0  0.59983  0.28885  0.90106  1.0000
  C   C733      1.0  0.80384  0.11616  0.82829  1.0000
  H   H1253     1.0  0.86809  0.13159  0.84541  1.0000
  C   C734      1.0  0.80809  0.08876  0.86531  1.0000
  C   C735      1.0  0.65550  0.30786  0.92693  1.0000
  H   H1254     1.0  0.65876  0.49010  0.94653  1.0000
  H   H1255     1.0  0.87803  0.43926  0.94872  1.0000
  H   H1256     1.0  0.69897  0.37391  0.91063  1.0000
  H   H1257     1.0  0.88973  0.43041  0.91933  1.0000
  C   C736      1.0  0.62731  0.26435  0.92825  1.0000
  C   C737      1.0  0.50755  0.25712  0.91364  1.0000
  H   H1258     1.0  0.56556  0.34797  0.92940  1.0000
  C   C738      1.0  0.98085  0.49598  0.95511  1.0000
  Fe  Fe112     1.0  0.81341  0.01581  0.83598  1.0000
  H   H1259     1.0  0.96748  0.02945  0.81634  1.0000
  H   H1260     1.0  0.63415  0.01732  0.95587  1.0000
  H   H1261     1.0  0.99813  0.38315  0.78586  1.0000
  C   C739      1.0  0.92779  0.38220  0.96114  1.0000
  H   H1262     1.0  0.99829  0.34013  0.79154  1.0000
  H   H1263     1.0  0.73436  0.31566  0.95664  1.0000
  C   C740      1.0  0.62624  0.01604  0.94244  1.0000
  H   H1264     1.0  0.98604  0.29003  0.73330  1.0000
  H   H1265     1.0  0.82852  0.28366  0.95910  1.0000
  H   H1266     1.0  0.71608  0.47900  0.90381  1.0000
  C   C741      1.0  0.99152  0.28650  0.76660  1.0000
  H   H1267     1.0  0.98810  0.26320  0.75837  1.0000
  C   C742      1.0  0.98886  0.34707  0.76478  1.0000
  S   S222      1.0  0.56676  0.05905  0.96070  1.0000
  C   C743      1.0  0.55399  0.00908  0.89739  1.0000
  C   C744      1.0  0.51730  0.02605  0.96407  1.0000
  C   C745      1.0  0.50602  0.22324  0.93937  1.0000
  S   S223      1.0  0.75272  0.00613  0.83435  1.0000
  H   H1268     1.0  0.96105  0.00531  0.87775  1.0000
  C   C746      1.0  0.83233  0.30989  0.96504  1.0000
  H   H1269     1.0  0.49972  0.21782  0.95261  1.0000
  H   H1270     1.0  0.86777  0.73540  0.06885  1.0000
  H   H1271     1.0  0.94504  0.80722  0.10222  1.0000
  S   S224      1.0  0.54497  0.64909  0.05007  1.0000
  Fe  Fe113     1.0  0.50346  0.63933  0.02847  1.0000
  Fe  Fe114     1.0  0.80607  0.85496  0.10228  1.0000
  S   S225      1.0  0.81707  0.85092  0.07529  1.0000
  S   S226      1.0  0.81884  0.90877  0.11563  1.0000
  Fe  Fe115     1.0  0.78641  0.77221  0.11033  1.0000
  S   S227      1.0  0.79656  0.76211  0.08385  1.0000
  S   S228      1.0  0.77222  0.73308  0.13340  1.0000
  Fe  Fe116     1.0  0.84891  0.82120  0.08472  1.0000
  S   S229      1.0  0.90769  0.83686  0.07423  1.0000
  Fe  Fe117     1.0  0.76336  0.79254  0.07675  1.0000
  S   S230      1.0  0.72253  0.77774  0.05442  1.0000
  S   S231      1.0  0.84113  0.82866  0.11161  1.0000
  S   S232      1.0  0.74994  0.79906  0.10333  1.0000
  Fe  Fe118     1.0  0.81386  0.56734  0.15973  1.0000
  S   S233      1.0  0.80061  0.57428  0.18620  1.0000
  S   S234      1.0  0.82592  0.60870  0.13763  1.0000
  C   C747      1.0  0.75932  0.80995  0.18872  1.0000
  Fe  Fe119     1.0  0.83856  0.54915  0.19347  1.0000
  C   C748      1.0  0.53638  0.73866  0.04586  1.0000
  S   S235      1.0  0.85524  0.54635  0.16704  1.0000
  C   C749      1.0  0.99125  0.00225  0.10043  1.0000
  H   H1272     1.0  0.54800  0.53909  0.03524  1.0000
  C   C750      1.0  0.67883  0.53142  0.13310  1.0000
  H   H1273     1.0  0.53584  0.86042  0.16575  1.0000
  H   H1274     1.0  0.85693  0.71643  0.09813  1.0000
  H   H1275     1.0  0.56256  0.96437  0.18903  1.0000
  C   C751      1.0  0.89329  0.73990  0.07636  1.0000
  C   C752      1.0  0.57536  0.98044  0.20016  1.0000
  H   H1276     1.0  0.53624  0.57620  0.03310  1.0000
  H   H1277     1.0  0.82061  0.85081  0.18853  1.0000
  H   H1278     1.0  0.93372  0.61622  0.19170  1.0000
  C   C753      1.0  0.78545  0.69724  0.13438  1.0000
  C   C754      1.0  0.78828  0.68195  0.15002  1.0000
  C   C755      1.0  0.79994  0.65420  0.15121  1.0000
  C   C756      1.0  0.80833  0.64119  0.13672  1.0000
  C   C757      1.0  0.80441  0.65568  0.12106  1.0000
  C   C758      1.0  0.79304  0.68365  0.11989  1.0000
  H   H1279     1.0  0.78197  0.69194  0.16129  1.0000
  H   H1280     1.0  0.80301  0.64330  0.16333  1.0000
  H   H1281     1.0  0.81059  0.64549  0.10980  1.0000
  H   H1282     1.0  0.79007  0.69464  0.10778  1.0000
  C   C759      1.0  0.59400  0.68570  0.05111  1.0000
  C   C760      1.0  0.61366  0.70861  0.03714  1.0000
  C   C761      1.0  0.65295  0.73675  0.03840  1.0000
  C   C762      1.0  0.67304  0.74209  0.05359  1.0000
  C   C763      1.0  0.65337  0.71906  0.06754  1.0000
  C   C764      1.0  0.61406  0.69097  0.06627  1.0000
  H   H1283     1.0  0.59878  0.70425  0.02533  1.0000
  H   H1284     1.0  0.66807  0.75426  0.02752  1.0000
  H   H1285     1.0  0.66848  0.72284  0.07927  1.0000
  H   H1286     1.0  0.59911  0.67317  0.07711  1.0000
  H   H1287     1.0  0.58806  0.75409  0.01446  1.0000
  C   C765      1.0  0.95054  0.86868  0.08476  1.0000
  C   C766      1.0  0.92904  0.52090  0.17932  1.0000
  C   C767      1.0  0.94980  0.87816  0.10137  1.0000
  C   C768      1.0  0.92254  0.71268  0.10503  1.0000
  H   H1288     1.0  0.92261  0.86727  0.10779  1.0000
  H   H1289     1.0  0.90603  0.93649  0.09384  1.0000
  C   C769      1.0  0.83982  0.98556  0.07739  1.0000
  C   C770      1.0  0.82780  0.95104  0.08651  1.0000
  C   C771      1.0  0.83554  0.95159  0.10362  1.0000
  C   C772      1.0  0.85599  0.98686  0.11148  1.0000
  H   H1290     1.0  0.83313  0.98489  0.06420  1.0000
  H   H1291     1.0  0.81179  0.92400  0.08036  1.0000
  H   H1292     1.0  0.86214  0.98747  0.12471  1.0000
  H   H1293     1.0  0.79116  0.86772  0.17906  1.0000
  C   C773      1.0  0.86986  0.89963  0.16163  1.0000
  H   H1294     1.0  0.91012  0.68205  0.12947  1.0000
  H   H1295     1.0  0.91475  0.50828  0.16731  1.0000
  H   H1296     1.0  0.73531  0.81649  0.18834  1.0000
  N   N50       1.0  0.67631  0.55659  0.14608  1.0000
  H   H1297     1.0  0.86197  0.76878  0.12152  1.0000
  H   H1298     1.0  0.52877  0.99924  0.98546  1.0000
  C   C774      1.0  0.70609  0.56302  0.15935  1.0000
  C   C775      1.0  0.68473  0.59387  0.13745  1.0000
  H   H1299     1.0  0.88235  0.77349  0.14175  1.0000
  H   H1300     1.0  0.63251  0.55001  0.16406  1.0000
  C   C776      1.0  0.70146  0.57732  0.17635  1.0000
  C   C777      1.0  0.67704  0.62185  0.14725  1.0000
  H   H1301     1.0  0.88244  0.92793  0.15492  1.0000
  C   C778      1.0  0.88499  0.74235  0.09496  1.0000
  H   H1302     1.0  0.61345  0.67067  0.99409  1.0000
  H   H1303     1.0  0.87984  0.76704  0.09551  1.0000
  H   H1304     1.0  0.89815  0.71563  0.07400  1.0000
  H   H1305     1.0  0.73563  0.58366  0.15477  1.0000
  H   H1306     1.0  0.71571  0.61056  0.13369  1.0000
  H   H1307     1.0  0.66912  0.58883  0.12531  1.0000
  H   H1308     1.0  0.91249  0.52018  0.20465  1.0000
  H   H1309     1.0  0.53371  0.73097  0.05943  1.0000
  H   H1310     1.0  0.75824  0.85457  0.13946  1.0000
  H   H1311     1.0  0.94435  0.71926  0.09504  1.0000
  H   H1312     1.0  0.89561  0.68709  0.10071  1.0000
  H   H1313     1.0  0.64560  0.60446  0.99310  1.0000
  H   H1314     1.0  0.67591  0.55493  0.18333  1.0000
  H   H1315     1.0  0.75229  0.96712  0.11539  1.0000
  C   C779      1.0  0.71866  0.54673  0.12466  1.0000
  H   H1316     1.0  0.70390  0.64364  0.15334  1.0000
  H   H1317     1.0  0.65382  0.60815  0.15668  1.0000
  H   H1318     1.0  0.66744  0.63729  0.13838  1.0000
  C   C780      1.0  0.94910  0.61444  0.20263  1.0000
  H   H1319     1.0  0.62498  0.64014  0.01766  1.0000
  H   H1320     1.0  0.97798  0.80086  0.12829  1.0000
  C   C781      1.0  0.56071  0.57026  0.03241  1.0000
  C   C782      1.0  0.93475  0.69759  0.12063  1.0000
  H   H1321     1.0  0.63136  0.50727  0.15947  1.0000
  H   H1322     1.0  0.74878  0.78097  0.18401  1.0000
  H   H1323     1.0  0.74040  0.99944  0.10547  1.0000
  H   H1324     1.0  0.53883  0.74250  0.01351  1.0000
  N   N51       1.0  0.91582  0.74621  0.10722  1.0000
  C   C783      1.0  0.52427  0.86843  0.17638  1.0000
  C   C784      1.0  0.95588  0.96269  0.07618  1.0000
  H   H1325     1.0  0.94312  0.67646  0.11671  1.0000
  H   H1326     1.0  0.87546  0.71644  0.12740  1.0000
  N   N52       1.0  0.80543  0.83461  0.16282  1.0000
  C   C785      1.0  0.83043  0.87239  0.15366  1.0000
  C   C786      1.0  0.77029  0.81212  0.15205  1.0000
  C   C787      1.0  0.82811  0.81375  0.16413  1.0000
  H   H1327     1.0  0.59972  0.54099  0.01969  1.0000
  C   C788      1.0  0.74466  0.83040  0.14873  1.0000
  C   C789      1.0  0.80885  0.77486  0.17369  1.0000
  H   H1328     1.0  0.83650  0.86757  0.14070  1.0000
  H   H1329     1.0  0.81520  0.88920  0.15232  1.0000
  H   H1330     1.0  0.75125  0.78275  0.15711  1.0000
  H   H1331     1.0  0.77923  0.80755  0.13960  1.0000
  H   H1332     1.0  0.83569  0.80894  0.15140  1.0000
  H   H1333     1.0  0.85594  0.83106  0.17070  1.0000
  H   H1334     1.0  0.74158  0.55099  0.13372  1.0000
  H   H1335     1.0  0.95747  0.96347  0.06225  1.0000
  C   C790      1.0  0.88894  0.77504  0.12821  1.0000
  H   H1336     1.0  0.96378  0.78330  0.09081  1.0000
  H   H1337     1.0  0.55824  0.56661  0.98964  1.0000
  H   H1338     1.0  0.94594  0.52843  0.99294  1.0000
  H   H1339     1.0  0.93606  0.55132  0.17875  1.0000
  H   H1340     1.0  0.78038  0.75414  0.16851  1.0000
  N   N53       1.0  0.57658  0.79589  0.02565  1.0000
  C   C791      1.0  0.56899  0.76680  0.01253  1.0000
  C   C792      1.0  0.57393  0.77693  0.04255  1.0000
  C   C793      1.0  0.61737  0.82836  0.02305  1.0000
  C   C794      1.0  0.54763  0.80963  0.02345  1.0000
  C   C795      1.0  0.57379  0.78140  0.99416  1.0000
  H   H1341     1.0  0.93580  0.98921  0.11262  1.0000
  C   C796      1.0  0.63229  0.86099  0.03553  1.0000
  C   C797      1.0  0.58819  0.59046  0.04713  1.0000
  C   C798      1.0  0.53603  0.82295  0.03916  1.0000
  H   H1342     1.0  0.60466  0.79949  0.99064  1.0000
  H   H1343     1.0  0.57701  0.79590  0.05289  1.0000
  H   H1344     1.0  0.91803  0.76703  0.07149  1.0000
  H   H1345     1.0  0.63803  0.81718  0.02331  1.0000
  H   H1346     1.0  0.62073  0.84255  0.01054  1.0000
  H   H1347     1.0  0.95665  0.52067  0.18039  1.0000
  H   H1348     1.0  0.92256  0.74824  0.13429  1.0000
  H   H1349     1.0  0.55780  0.79697  0.99141  1.0000
  H   H1350     1.0  0.82751  0.76173  0.17256  1.0000
  H   H1351     1.0  0.56153  0.75637  0.98588  1.0000
  C   C799      1.0  0.54455  0.81376  0.20371  1.0000
  C   C800      1.0  0.52321  0.79742  0.18713  1.0000
  H   H1352     1.0  0.54771  0.88405  0.18554  1.0000
  H   H1353     1.0  0.63003  0.85088  0.04872  1.0000
  H   H1354     1.0  0.61783  0.87828  0.03364  1.0000
  H   H1355     1.0  0.66354  0.88078  0.03307  1.0000
  C   C801      1.0  0.52731  0.51492  0.00432  1.0000
  H   H1356     1.0  0.96979  0.94592  0.08053  1.0000
  H   H1357     1.0  0.51938  0.76813  0.18622  1.0000
  C   C802      1.0  0.59667  0.63887  0.99435  1.0000
  H   H1358     1.0  0.99719  0.77651  0.11609  1.0000
  H   H1359     1.0  0.72693  0.58336  0.18423  1.0000
  H   H1360     1.0  0.57523  0.51299  0.14875  1.0000
  H   H1361     1.0  0.71694  0.80880  0.14313  1.0000
  H   H1362     1.0  0.90208  0.90859  0.07634  1.0000
  H   H1363     1.0  0.73774  0.84029  0.16025  1.0000
  C   C803      1.0  0.95570  0.51946  0.98233  1.0000
  C   C804      1.0  0.95192  0.78373  0.10325  1.0000
  H   H1364     1.0  0.86732  0.90457  0.17498  1.0000
  C   C805      1.0  0.98659  0.51213  0.98426  1.0000
  N   N54       1.0  0.57892  0.58099  0.01522  1.0000
  H   H1365     1.0  0.70025  0.60408  0.17529  1.0000
  H   H1366     1.0  0.89533  0.94885  0.07327  1.0000
  H   H1367     1.0  0.70638  0.53593  0.16231  1.0000
  C   C806      1.0  0.61058  0.57082  0.01482  1.0000
  H   H1368     1.0  0.89089  0.88949  0.16008  1.0000
  C   C807      1.0  0.98963  0.63703  0.20341  1.0000
  C   C808      1.0  0.79572  0.84252  0.17988  1.0000
  S   S236      1.0  0.76324  0.50797  0.15756  1.0000
  C   C809      1.0  0.93718  0.51488  0.96683  1.0000
  H   H1369     1.0  0.80635  0.77833  0.18723  1.0000
  H   H1370     1.0  0.94936  0.95265  0.11555  1.0000
  H   H1371     1.0  0.60496  0.62198  0.04528  1.0000
  C   C810      1.0  0.63630  0.53484  0.15360  1.0000
  H   H1372     1.0  0.57519  0.82095  0.20256  1.0000
  C   C811      1.0  0.54743  0.55903  0.00270  1.0000
  H   H1373     1.0  0.56097  0.84499  0.04604  1.0000
  H   H1374     1.0  0.60810  0.55620  0.98822  1.0000
  H   H1375     1.0  0.65066  0.56426  0.99908  1.0000
  C   C812      1.0  0.59523  0.62374  0.01247  1.0000
  C   C813      1.0  0.98454  0.90071  0.10992  1.0000
  H   H1376     1.0  0.52001  0.78677  0.01831  1.0000
  H   H1377     1.0  0.57789  0.63368  0.01939  1.0000
  H   H1378     1.0  0.61025  0.62887  0.98538  1.0000
  H   H1379     1.0  0.76578  0.80859  0.20221  1.0000
  H   H1380     1.0  0.55795  0.83346  0.01391  1.0000
  H   H1381     1.0  0.98719  0.87599  0.06378  1.0000
  H   H1382     1.0  0.63463  0.58922  0.02332  1.0000
  H   H1383     1.0  0.72762  0.57366  0.11730  1.0000
  H   H1384     1.0  0.91211  0.80467  0.12517  1.0000
  C   C814      1.0  0.90101  0.74501  0.12462  1.0000
  H   H1385     1.0  0.59834  0.77103  0.04428  1.0000
  C   C815      1.0  0.91247  0.93826  0.08036  1.0000
  H   H1386     1.0  0.53721  0.71520  0.03934  1.0000
  N   N55       1.0  0.97731  0.00271  0.08284  1.0000
  H   H1387     1.0  0.78578  0.00197  0.10050  1.0000
  H   H1388     1.0  0.51023  0.73978  0.04185  1.0000
  H   H1389     1.0  0.51657  0.88994  0.17148  1.0000
  H   H1390     1.0  0.57070  0.58463  0.05867  1.0000
  H   H1391     1.0  0.52446  0.56701  0.00354  1.0000
  H   H1392     1.0  0.60829  0.57925  0.04950  1.0000
  H   H1393     1.0  0.65821  0.52642  0.12270  1.0000
  S   S237      1.0  0.51898  0.66366  0.00235  1.0000
  H   H1394     1.0  0.60580  0.55114  0.13457  1.0000
  C   C816      1.0  0.96034  0.98395  0.11430  1.0000
  C   C817      1.0  0.76506  0.99726  0.11067  1.0000
  Fe  Fe120     1.0  0.75251  0.51311  0.18443  1.0000
  H   H1395     1.0  0.95958  0.72022  0.12734  1.0000
  H   H1396     1.0  0.71684  0.52527  0.11576  1.0000
  C   C818      1.0  0.50667  0.99902  0.97737  1.0000
  H   H1397     1.0  0.53179  0.79217  0.21412  1.0000
  C   C819      1.0  0.62933  0.57433  0.99770  1.0000
  H   H1398     1.0  0.56723  0.63076  0.98984  1.0000
  H   H1399     1.0  0.51805  0.79859  0.04783  1.0000
  C   C820      1.0  0.50336  0.00289  0.21264  1.0000
  H   H1400     1.0  0.54446  0.84019  0.20712  1.0000
  H   H1401     1.0  0.51775  0.83556  0.03523  1.0000
  H   H1402     1.0  0.54365  0.81439  0.17695  1.0000
  H   H1403     1.0  0.97357  0.99717  0.12637  1.0000
  C   C821      1.0  0.60255  0.52534  0.14144  1.0000
  H   H1404     1.0  0.92471  0.00443  0.08822  1.0000
  H   H1405     1.0  0.98519  0.52123  0.20722  1.0000
  H   H1406     1.0  0.51609  0.79718  0.15248  1.0000
  H   H1407     1.0  0.98378  0.90700  0.12291  1.0000
  C   C822      1.0  0.98568  0.79649  0.11562  1.0000
  C   C823      1.0  0.98632  0.88319  0.07662  1.0000
  C   C824      1.0  0.56740  0.96112  0.21584  1.0000
  C   C825      1.0  0.92855  0.59052  0.21620  1.0000
  Fe  Fe121     1.0  0.74374  0.82168  0.32782  1.0000
  S   S238      1.0  0.73684  0.83207  0.35480  1.0000
  S   S239      1.0  0.70117  0.80622  0.30620  1.0000
  Fe  Fe122     1.0  0.82419  0.83203  0.33359  1.0000
  S   S240      1.0  0.82292  0.84230  0.36066  1.0000
  S   S241      1.0  0.87812  0.83843  0.32143  1.0000
  Fe  Fe123     1.0  0.76159  0.79337  0.36084  1.0000
  S   S242      1.0  0.74307  0.75417  0.38431  1.0000
  Fe  Fe124     1.0  0.79872  0.88005  0.35261  1.0000
  S   S243      1.0  0.82602  0.93581  0.36660  1.0000
  S   S244      1.0  0.76482  0.77990  0.33404  1.0000
  S   S245      1.0  0.80368  0.87275  0.32527  1.0000
  Fe  Fe125     1.0  0.62597  0.52754  0.40714  1.0000
  S   S246      1.0  0.64283  0.53865  0.43412  1.0000
  S   S247      1.0  0.64190  0.57141  0.38568  1.0000
  H   H1408     1.0  0.51800  0.61926  0.40552  1.0000
  Fe  Fe126     1.0  0.53548  0.84633  0.27422  1.0000
  S   S248      1.0  0.54534  0.83652  0.24765  1.0000
  S   S249      1.0  0.57465  0.85768  0.29673  1.0000
  H   H1409     1.0  0.66977  0.83903  0.32907  1.0000
  C   C826      1.0  0.97309  0.79059  0.32739  1.0000
  C   C827      1.0  0.50402  0.71409  0.30210  1.0000
  H   H1410     1.0  0.85479  0.55319  0.42961  1.0000
  H   H1411     1.0  0.93323  0.56973  0.24082  1.0000
  H   H1412     1.0  0.56194  0.87915  0.43736  1.0000
  H   H1413     1.0  0.91623  0.57069  0.43900  1.0000
  C   C828      1.0  0.92033  0.85641  0.33365  1.0000
  C   C829      1.0  0.91872  0.84774  0.35079  1.0000
  C   C830      1.0  0.95307  0.86064  0.36001  1.0000
  C   C831      1.0  0.57016  0.72581  0.29535  1.0000
  H   H1414     1.0  0.93140  0.71408  0.23461  1.0000
  C   C832      1.0  0.95638  0.87871  0.32588  1.0000
  H   H1415     1.0  0.89105  0.83010  0.35683  1.0000
  H   H1416     1.0  0.95167  0.85308  0.37319  1.0000
  H   H1417     1.0  0.54033  0.79268  0.43943  1.0000
  H   H1418     1.0  0.95777  0.88559  0.31263  1.0000
  C   C833      1.0  0.84845  0.98086  0.35589  1.0000
  C   C834      1.0  0.84134  0.98462  0.33897  1.0000
  H   H1419     1.0  0.83974  0.56096  0.44973  1.0000
  H   H1420     1.0  0.82175  0.95956  0.33210  1.0000
  C   C835      1.0  0.71567  0.70330  0.38439  1.0000
  C   C836      1.0  0.71002  0.68244  0.39958  1.0000
  C   C837      1.0  0.68815  0.64205  0.40019  1.0000
  C   C838      1.0  0.67125  0.62211  0.38562  1.0000
  C   C839      1.0  0.67676  0.64298  0.37048  1.0000
  C   C840      1.0  0.69896  0.68330  0.36984  1.0000
  H   H1421     1.0  0.72292  0.69763  0.41090  1.0000
  H   H1422     1.0  0.68444  0.62639  0.41188  1.0000
  H   H1423     1.0  0.66384  0.62786  0.35914  1.0000
  H   H1424     1.0  0.70299  0.69890  0.35807  1.0000
  C   C841      1.0  0.66832  0.82348  0.30350  1.0000
  C   C842      1.0  0.65153  0.82132  0.28771  1.0000
  C   C843      1.0  0.62347  0.83258  0.28531  1.0000
  C   C844      1.0  0.61148  0.84544  0.29879  1.0000
  C   C845      1.0  0.62865  0.84806  0.31451  1.0000
  C   C846      1.0  0.65705  0.83726  0.31687  1.0000
  H   H1425     1.0  0.66036  0.81093  0.27729  1.0000
  H   H1426     1.0  0.61115  0.83133  0.27306  1.0000
  H   H1427     1.0  0.61977  0.85832  0.32496  1.0000
  H   H1428     1.0  0.50586  0.73841  0.27105  1.0000
  N   N56       1.0  0.53044  0.71447  0.28866  1.0000
  C   C847      1.0  0.90775  0.52112  0.42595  1.0000
  N   N57       1.0  0.88309  0.52160  0.45574  1.0000
  H   H1429     1.0  0.60284  0.71390  0.31405  1.0000
  H   H1430     1.0  0.53771  0.54409  0.39554  1.0000
  C   C848      1.0  0.99063  0.89222  0.33517  1.0000
  C   C849      1.0  0.94896  0.58835  0.23030  1.0000
  S   S250      1.0  0.53560  0.91087  0.21694  1.0000
  H   H1431     1.0  0.97662  0.94607  0.35453  1.0000
  N   N58       1.0  0.97697  0.99752  0.34527  1.0000
  H   H1432     1.0  0.94248  0.54942  0.44722  1.0000
  C   C850      1.0  0.98916  0.88269  0.35221  1.0000
  H   H1433     1.0  0.97233  0.79260  0.31357  1.0000
  N   N59       1.0  0.82125  0.86626  0.41370  1.0000
  C   C851      1.0  0.84781  0.90011  0.40263  1.0000
  C   C852      1.0  0.78342  0.84354  0.40464  1.0000
  C   C853      1.0  0.83811  0.84066  0.41760  1.0000
  C   C854      1.0  0.81566  0.88099  0.42989  1.0000
  C   C855      1.0  0.89018  0.92371  0.40843  1.0000
  C   C856      1.0  0.75781  0.86221  0.40298  1.0000
  C   C857      1.0  0.84880  0.82538  0.40231  1.0000
  C   C858      1.0  0.78793  0.85031  0.44270  1.0000
  H   H1434     1.0  0.84842  0.89115  0.38970  1.0000
  H   H1435     1.0  0.83683  0.92064  0.40128  1.0000
  H   H1436     1.0  0.76564  0.81439  0.41038  1.0000
  H   H1437     1.0  0.78854  0.83795  0.39170  1.0000
  H   H1438     1.0  0.86423  0.85529  0.42561  1.0000
  H   H1439     1.0  0.81734  0.81495  0.42512  1.0000
  H   H1440     1.0  0.84367  0.89701  0.43655  1.0000
  H   H1441     1.0  0.80654  0.90285  0.42774  1.0000
  C   C859      1.0  0.97132  0.00115  0.31280  1.0000
  H   H1442     1.0  0.56227  0.67174  0.30651  1.0000
  H   H1443     1.0  0.89272  0.93714  0.42059  1.0000
  H   H1444     1.0  0.77311  0.89083  0.39663  1.0000
  H   H1445     1.0  0.50187  0.82109  0.46401  1.0000
  H   H1446     1.0  0.57839  0.96776  0.24226  1.0000
  H   H1447     1.0  0.86182  0.80785  0.40672  1.0000
  H   H1448     1.0  0.55868  0.83905  0.41955  1.0000
  H   H1449     1.0  0.82287  0.80629  0.39495  1.0000
  H   H1450     1.0  0.56147  0.93555  0.42873  1.0000
  H   H1451     1.0  0.76404  0.82487  0.43687  1.0000
  C   C860      1.0  0.55937  0.59726  0.38130  1.0000
  C   C861      1.0  0.58862  0.59825  0.41602  1.0000
  H   H1452     1.0  0.53452  0.66091  0.42993  1.0000
  H   H1453     1.0  0.96643  0.81280  0.33160  1.0000
  S   S251      1.0  0.55486  0.51719  0.45970  1.0000
  H   H1454     1.0  0.89484  0.57689  0.46437  1.0000
  H   H1455     1.0  0.99078  0.76950  0.35797  1.0000
  H   H1456     1.0  0.87035  0.84858  0.39403  1.0000
  C   C862      1.0  0.98857  0.97643  0.35796  1.0000
  S   S252      1.0  0.51230  0.88602  0.26719  1.0000
  H   H1457     1.0  0.54698  0.71941  0.25346  1.0000
  C   C863      1.0  0.99913  0.75041  0.25425  1.0000
  C   C864      1.0  0.51800  0.75188  0.31130  1.0000
  H   H1458     1.0  0.58947  0.75866  0.26277  1.0000
  H   H1459     1.0  0.54666  0.76230  0.31724  1.0000
  H   H1460     1.0  0.92075  0.92972  0.33040  1.0000
  H   H1461     1.0  0.74652  0.86424  0.41526  1.0000
  C   C865      1.0  0.57213  0.70149  0.31013  1.0000
  C   C866      1.0  0.51257  0.67595  0.28043  1.0000
  C   C867      1.0  0.99087  0.51958  0.45106  1.0000
  C   C868      1.0  0.53473  0.74405  0.27548  1.0000
  C   C869      1.0  0.93872  0.75129  0.33266  1.0000
  C   C870      1.0  0.58415  0.98222  0.23013  1.0000
  H   H1462     1.0  0.91198  0.91819  0.35257  1.0000
  H   H1463     1.0  0.52057  0.00128  0.22332  1.0000
  N   N60       1.0  0.54694  0.58755  0.41329  1.0000
  H   H1464     1.0  0.80575  0.52560  0.43623  1.0000
  H   H1465     1.0  0.87986  0.92755  0.34034  1.0000
  H   H1466     1.0  0.90614  0.94746  0.39912  1.0000
  H   H1467     1.0  0.92421  0.98199  0.35871  1.0000
  H   H1468     1.0  0.53663  0.88750  0.45279  1.0000
  H   H1469     1.0  0.97884  0.73700  0.26500  1.0000
  H   H1470     1.0  0.56115  0.62562  0.38141  1.0000
  H   H1471     1.0  0.56822  0.64822  0.40883  1.0000
  H   H1472     1.0  0.80394  0.84060  0.45115  1.0000
  C   C871      1.0  0.91079  0.93622  0.34205  1.0000
  H   H1473     1.0  0.61161  0.64460  0.43395  1.0000
  H   H1474     1.0  0.91222  0.74782  0.32630  1.0000
  C   C872      1.0  0.53571  0.57072  0.39613  1.0000
  H   H1475     1.0  0.58892  0.72487  0.28543  1.0000
  H   H1476     1.0  0.94958  0.67578  0.25485  1.0000
  C   C873      1.0  0.60650  0.61502  0.43301  1.0000
  H   H1477     1.0  0.73237  0.84396  0.39512  1.0000
  H   H1478     1.0  0.56694  0.83522  0.45204  1.0000
  C   C874      1.0  0.53313  0.90872  0.42806  1.0000
  S   S253      1.0  0.87744  0.56403  0.21640  1.0000
  C   C875      1.0  0.91349  0.54241  0.44241  1.0000
  H   H1479     1.0  0.96831  0.66247  0.23802  1.0000
  H   H1480     1.0  0.99795  0.81657  0.35682  1.0000
  H   H1481     1.0  0.97625  0.97549  0.37050  1.0000
  H   H1482     1.0  0.55678  0.76741  0.25061  1.0000
  H   H1483     1.0  0.59243  0.57296  0.41429  1.0000
  H   H1484     1.0  0.58886  0.60111  0.38082  1.0000
  H   H1485     1.0  0.94284  0.72728  0.32891  1.0000
  H   H1486     1.0  0.70075  0.56543  0.46547  1.0000
  H   H1487     1.0  0.60775  0.62015  0.40657  1.0000
  H   H1488     1.0  0.54881  0.77321  0.28063  1.0000
  H   H1489     1.0  0.93286  0.74920  0.34627  1.0000
  C   C876      1.0  0.83609  0.53913  0.44069  1.0000
  H   H1490     1.0  0.50508  0.56204  0.39329  1.0000
  C   C877      1.0  0.55843  0.74703  0.25982  1.0000
  C   C878      1.0  0.93351  0.97909  0.34603  1.0000
  H   H1491     1.0  0.58500  0.75601  0.29933  1.0000
  H   H1492     1.0  0.55592  0.70190  0.32118  1.0000
  H   H1493     1.0  0.52235  0.98782  0.44278  1.0000
  H   H1494     1.0  0.52762  0.56718  0.43885  1.0000
  H   H1495     1.0  0.63537  0.61722  0.43391  1.0000
  H   H1496     1.0  0.90510  0.90667  0.40898  1.0000
  H   H1497     1.0  0.93248  0.53913  0.41748  1.0000
  H   H1498     1.0  0.53532  0.67129  0.27486  1.0000
  H   H1499     1.0  0.77381  0.86258  0.45029  1.0000
  Fe  Fe127     1.0  0.51827  0.87275  0.24062  1.0000
  C   C879      1.0  0.54198  0.62238  0.41386  1.0000
  C   C880      1.0  0.50344  0.81169  0.45123  1.0000
  H   H1500     1.0  0.58951  0.59679  0.44381  1.0000
  H   H1501     1.0  0.98416  0.76177  0.24604  1.0000
  H   H1502     1.0  0.99584  0.75938  0.30387  1.0000
  H   H1503     1.0  0.88121  0.51607  0.41919  1.0000
  H   H1504     1.0  0.54520  0.58367  0.36941  1.0000
  H   H1505     1.0  0.52906  0.53311  0.42617  1.0000
  C   C881      1.0  0.53307  0.83108  0.41162  1.0000
  H   H1506     1.0  0.95157  0.97318  0.30714  1.0000
  H   H1507     1.0  0.55385  0.63498  0.44092  1.0000
  H   H1508     1.0  0.94857  0.51186  0.22262  1.0000
  H   H1509     1.0  0.54034  0.85379  0.40179  1.0000
  C   C882      1.0  0.96540  0.68650  0.24277  1.0000
  C   C883      1.0  0.52195  0.55661  0.42591  1.0000
  C   C884      1.0  0.53312  0.63266  0.43109  1.0000
  H   H1510     1.0  0.51855  0.77474  0.30302  1.0000
  C   C885      1.0  0.53980  0.80763  0.45072  1.0000
  H   H1511     1.0  0.52785  0.80525  0.40485  1.0000
  C   C886      1.0  0.84316  0.50788  0.44884  1.0000
  H   H1512     1.0  0.52800  0.90028  0.41484  1.0000
  C   C887      1.0  0.53404  0.87782  0.43970  1.0000
  H   H1513     1.0  0.53867  0.78915  0.46159  1.0000
  H   H1514     1.0  0.98670  0.66346  0.27233  1.0000
  H   H1515     1.0  0.49989  0.63763  0.30302  1.0000
  H   H1516     1.0  0.51117  0.91605  0.43215  1.0000
  H   H1517     1.0  0.92227  0.99352  0.33755  1.0000
  N   N61       1.0  0.50006  0.83787  0.43824  1.0000
  C   C888      1.0  0.98957  0.61065  0.23101  1.0000
  H   H1518     1.0  0.90980  0.66431  0.23039  1.0000
  H   H1519     1.0  0.98957  0.96690  0.32695  1.0000
  C   C889      1.0  0.93777  0.69169  0.23062  1.0000
  C   C890      1.0  0.99186  0.99544  0.32830  1.0000
  C   C891      1.0  0.50177  0.98820  0.45132  1.0000
  H   H1520     1.0  0.50349  0.61175  0.43545  1.0000
  H   H1521     1.0  0.99824  0.53896  0.44030  1.0000
  H   H1522     1.0  0.94881  0.69771  0.21758  1.0000
  Fe  Fe128     1.0  0.67834  0.55294  0.65475  1.0000
  S   S254      1.0  0.70224  0.56170  0.68075  1.0000
  S   S255      1.0  0.70262  0.59549  0.63291  1.0000
  H   H1523     1.0  0.67434  0.69554  0.69156  1.0000
  Fe  Fe129     1.0  0.64026  0.53699  0.68897  1.0000
  H   H1524     1.0  0.63956  0.66069  0.67849  1.0000
  H   H1525     1.0  0.69306  0.65933  0.70523  1.0000
  S   S256      1.0  0.61694  0.53175  0.66288  1.0000
  Fe  Fe130     1.0  0.90520  0.76360  0.60350  1.0000
  S   S257      1.0  0.88309  0.75400  0.57703  1.0000
  S   S258      1.0  0.87845  0.72605  0.62685  1.0000
  H   H1526     1.0  0.80602  0.50887  0.66402  1.0000
  S   S259      1.0  0.96220  0.83412  0.56679  1.0000
  Fe  Fe131     1.0  0.90285  0.81722  0.57634  1.0000
  S   S260      1.0  0.87149  0.84501  0.56333  1.0000
  Fe  Fe132     1.0  0.94446  0.77155  0.56980  1.0000
  H   H1527     1.0  0.66792  0.56120  0.51229  1.0000
  S   S261      1.0  0.92069  0.82556  0.60325  1.0000
  S   S262      1.0  0.96522  0.77692  0.59633  1.0000
  S   S263      1.0  0.52366  0.86069  0.49652  1.0000
  H   H1528     1.0  0.63230  0.54464  0.47039  1.0000
  S   S264      1.0  0.54983  0.88280  0.54611  1.0000
  H   H1529     1.0  0.70964  0.62641  0.70201  1.0000
  C   C892      1.0  0.97258  0.94203  0.56672  1.0000
  Fe  Fe133     1.0  0.80750  0.98746  0.59474  1.0000
  H   H1530     1.0  0.73723  0.74315  0.66511  1.0000
  S   S265      1.0  0.80987  0.93563  0.60512  1.0000
  H   H1531     1.0  0.74238  0.67615  0.69862  1.0000
  C   C893      1.0  0.99834  0.50877  0.48043  1.0000
  H   H1532     1.0  0.64384  0.57351  0.48816  1.0000
  C   C894      1.0  0.59982  0.91712  0.54631  1.0000
  C   C895      1.0  0.62038  0.93465  0.53160  1.0000
  C   C896      1.0  0.66027  0.96119  0.53228  1.0000
  C   C897      1.0  0.68001  0.97054  0.54763  1.0000
  C   C898      1.0  0.65940  0.95312  0.56236  1.0000
  C   C899      1.0  0.61952  0.92649  0.56168  1.0000
  H   H1533     1.0  0.60562  0.92776  0.51969  1.0000
  H   H1534     1.0  0.67416  0.96031  0.57426  1.0000
  H   H1535     1.0  0.60385  0.91312  0.57313  1.0000
  C   C900      1.0  0.85387  0.86957  0.57508  1.0000
  C   C901      1.0  0.84231  0.89349  0.56673  1.0000
  C   C902      1.0  0.82903  0.91415  0.57577  1.0000
  C   C903      1.0  0.82692  0.91078  0.59323  1.0000
  C   C904      1.0  0.83794  0.88646  0.60154  1.0000
  C   C905      1.0  0.85162  0.86614  0.59252  1.0000
  H   H1536     1.0  0.84407  0.89635  0.55324  1.0000
  H   H1537     1.0  0.82073  0.93283  0.56922  1.0000
  H   H1538     1.0  0.83610  0.88344  0.61503  1.0000
  H   H1539     1.0  0.86003  0.84752  0.59908  1.0000
  Fe  Fe134     1.0  0.97866  0.83820  0.59378  1.0000
  H   H1540     1.0  0.67542  0.80113  0.58275  1.0000
  C   C906      1.0  0.75144  0.63201  0.63156  1.0000
  C   C907      1.0  0.77628  0.64118  0.64528  1.0000
  C   C908      1.0  0.81489  0.67083  0.64375  1.0000
  C   C909      1.0  0.82907  0.69111  0.62847  1.0000
  C   C910      1.0  0.80409  0.68220  0.61483  1.0000
  C   C911      1.0  0.76534  0.65288  0.61642  1.0000
  H   H1541     1.0  0.76580  0.62552  0.65704  1.0000
  H   H1542     1.0  0.83409  0.67790  0.65438  1.0000
  H   H1543     1.0  0.81470  0.69768  0.60303  1.0000
  H   H1544     1.0  0.74618  0.64609  0.60579  1.0000
  S   S266      1.0  0.54839  0.66760  0.71317  1.0000
  C   C912      1.0  0.57079  0.62149  0.69791  1.0000
  C   C913      1.0  0.58777  0.59805  0.69714  1.0000
  N   N62       1.0  0.64423  0.52009  0.49266  1.0000
  H   H1545     1.0  0.65179  0.71389  0.65680  1.0000
  H   H1546     1.0  0.55776  0.62631  0.68681  1.0000
  H   H1547     1.0  0.58774  0.58493  0.68555  1.0000
  C   C914      1.0  0.60493  0.59185  0.71137  1.0000
  H   H1548     1.0  0.74185  0.72759  0.68548  1.0000
  H   H1549     1.0  0.69020  0.87595  0.60922  1.0000
  C   C915      1.0  0.69873  0.64872  0.67868  1.0000
  C   C916      1.0  0.66753  0.68796  0.67822  1.0000
  H   H1550     1.0  0.66226  0.79164  0.56083  1.0000
  H   H1551     1.0  0.60866  0.83287  0.54420  1.0000
  H   H1552     1.0  0.71208  0.66798  0.64644  1.0000
  H   H1553     1.0  0.82739  0.59811  0.68802  1.0000
  H   H1554     1.0  0.79909  0.74479  0.66877  1.0000
  H   H1555     1.0  0.69832  0.54306  0.50621  1.0000
  H   H1556     1.0  0.69576  0.70140  0.64471  1.0000
  C   C917      1.0  0.73691  0.71877  0.67222  1.0000
  H   H1557     1.0  0.86487  0.53842  0.47795  1.0000
  C   C918      1.0  0.81516  0.57431  0.67912  1.0000
  H   H1558     1.0  0.70235  0.78878  0.56924  1.0000
  H   H1559     1.0  0.66913  0.89261  0.58228  1.0000
  H   H1560     1.0  0.72117  0.86333  0.59862  1.0000
  C   C919      1.0  0.71182  0.65358  0.69713  1.0000
  C   C920      1.0  0.69103  0.67522  0.65185  1.0000
  N   N63       1.0  0.69856  0.68271  0.67024  1.0000
  H   H1561     1.0  0.64526  0.61443  0.65286  1.0000
  H   H1562     1.0  0.66931  0.62304  0.67859  1.0000
  H   H1563     1.0  0.81930  0.55109  0.68481  1.0000
  H   H1564     1.0  0.69540  0.60594  0.46893  1.0000
  C   C921      1.0  0.66023  0.71911  0.67011  1.0000
  H   H1565     1.0  0.62708  0.64766  0.65076  1.0000
  H   H1566     1.0  0.64926  0.63893  0.63349  1.0000
  C   C922      1.0  0.77268  0.71721  0.66610  1.0000
  H   H1567     1.0  0.85666  0.53903  0.66244  1.0000
  H   H1568     1.0  0.78385  0.56449  0.67816  1.0000
  C   C923      1.0  0.66896  0.86592  0.55173  1.0000
  C   C924      1.0  0.83596  0.58923  0.66210  1.0000
  H   H1569     1.0  0.77229  0.95390  0.54418  1.0000
  H   H1570     1.0  0.72987  0.91200  0.59763  1.0000
  H   H1571     1.0  0.67608  0.85474  0.54058  1.0000
  H   H1572     1.0  0.98931  0.96075  0.55597  1.0000
  C   C925      1.0  0.65066  0.64218  0.64726  1.0000
  H   H1573     1.0  0.73062  0.91660  0.53490  1.0000
  H   H1574     1.0  0.72172  0.93536  0.56456  1.0000
  H   H1575     1.0  0.66987  0.89288  0.54720  1.0000
  C   C926      1.0  0.68052  0.87228  0.58235  1.0000
  N   N64       1.0  0.82346  0.56013  0.64855  1.0000
  H   H1576     1.0  0.95293  0.56977  0.47331  1.0000
  C   C927      1.0  0.84942  0.57981  0.63366  1.0000
  H   H1577     1.0  0.99140  0.93745  0.57567  1.0000
  H   H1578     1.0  0.76300  0.52801  0.65553  1.0000
  H   H1579     1.0  0.93098  0.96011  0.56461  1.0000
  C   C928      1.0  0.84715  0.61414  0.62581  1.0000
  C   C929      1.0  0.65135  0.55413  0.48157  1.0000
  S   S267      1.0  0.75471  0.99409  0.59616  1.0000
  H   H1580     1.0  0.65522  0.84361  0.58508  1.0000
  C   C930      1.0  0.52834  0.93512  0.57565  1.0000
  H   H1581     1.0  0.84396  0.55991  0.62342  1.0000
  H   H1582     1.0  0.88018  0.59028  0.63717  1.0000
  H   H1583     1.0  0.67938  0.51110  0.53128  1.0000
  H   H1584     1.0  0.77507  0.57025  0.64426  1.0000
  H   H1585     1.0  0.92175  0.53359  0.48853  1.0000
  C   C931      1.0  0.93890  0.99994  0.59238  1.0000
  H   H1586     1.0  0.55360  0.96019  0.56964  1.0000
  C   C932      1.0  0.66753  0.53459  0.50849  1.0000
  H   H1587     1.0  0.61461  0.85201  0.56443  1.0000
  H   H1588     1.0  0.86147  0.63946  0.63382  1.0000
  H   H1589     1.0  0.86314  0.62288  0.61374  1.0000
  H   H1590     1.0  0.81706  0.60724  0.62307  1.0000
  C   C933      1.0  0.69312  0.57978  0.47513  1.0000
  H   H1591     1.0  0.67596  0.97460  0.52083  1.0000
  C   C934      1.0  0.89043  0.54901  0.46958  1.0000
  H   H1592     1.0  0.63578  0.71884  0.67676  1.0000
  C   C935      1.0  0.70741  0.88140  0.59763  1.0000
  C   C936      1.0  0.78133  0.54618  0.64489  1.0000
  N   N65       1.0  0.69821  0.87394  0.56558  1.0000
  C   C937      1.0  0.73142  0.91414  0.56275  1.0000
  H   H1593     1.0  0.71728  0.64049  0.67167  1.0000
  H   H1594     1.0  0.77214  0.71380  0.65238  1.0000
  C   C938      1.0  0.71438  0.84712  0.56503  1.0000
  C   C939      1.0  0.75114  0.92285  0.54539  1.0000
  C   C940      1.0  0.94800  0.95675  0.57497  1.0000
  C   C941      1.0  0.68644  0.80490  0.56979  1.0000
  H   H1595     1.0  0.68552  0.74817  0.67140  1.0000
  H   H1596     1.0  0.75474  0.92107  0.57209  1.0000
  H   H1597     1.0  0.77620  0.69437  0.67256  1.0000
  H   H1598     1.0  0.93034  0.58140  0.48941  1.0000
  H   H1599     1.0  0.61998  0.81066  0.56138  1.0000
  H   H1600     1.0  0.72523  0.84721  0.55229  1.0000
  H   H1601     1.0  0.74012  0.85704  0.57332  1.0000
  H   H1602     1.0  0.76757  0.90755  0.54388  1.0000
  H   H1603     1.0  0.91917  0.97527  0.60074  1.0000
  H   H1604     1.0  0.51524  0.53836  0.48298  1.0000
  H   H1605     1.0  0.50704  0.93159  0.71348  1.0000
  C   C942      1.0  0.62584  0.83856  0.55589  1.0000
  H   H1606     1.0  0.52547  0.94379  0.58833  1.0000
  H   H1607     1.0  0.98367  0.71630  0.52151  1.0000
  Fe  Fe135     1.0  0.51070  0.86676  0.52317  1.0000
  C   C943      1.0  0.82934  0.52773  0.65510  1.0000
  H   H1608     1.0  0.83126  0.61336  0.65819  1.0000
  C   C944      1.0  0.92594  0.55864  0.48070  1.0000
  H   H1609     1.0  0.68837  0.51298  0.48030  1.0000
  H   H1610     1.0  0.86759  0.60231  0.66450  1.0000
  H   H1611     1.0  0.92667  0.93288  0.58320  1.0000
  H   H1612     1.0  0.95280  0.91356  0.56147  1.0000
  C   C945      1.0  0.57036  0.63855  0.71292  1.0000
  H   H1613     1.0  0.71465  0.58926  0.48537  1.0000
  C   C946      1.0  0.98939  0.72384  0.54815  1.0000
  H   H1614     1.0  0.89452  0.98265  0.57249  1.0000
  H   H1615     1.0  0.97153  0.95915  0.60592  1.0000
  H   H1616     1.0  0.58081  0.53884  0.49503  1.0000
  S   S268      1.0  0.95796  0.74333  0.54847  1.0000
  H   H1617     1.0  0.53569  0.91199  0.57646  1.0000
  S   S269      1.0  0.62737  0.56330  0.71113  1.0000
  N   N66       1.0  0.96923  0.99295  0.58474  1.0000
  C   C947      1.0  0.65368  0.50736  0.52412  1.0000
  H   H1618     1.0  0.74029  0.52752  0.62437  1.0000
  H   H1619     1.0  0.78382  0.53023  0.61855  1.0000
  H   H1620     1.0  0.85892  0.51648  0.63479  1.0000
  C   C948      1.0  0.76368  0.52235  0.62916  1.0000
  C   C949      1.0  0.58304  0.51846  0.50404  1.0000
  C   C950      1.0  0.99093  0.98631  0.59885  1.0000
  H   H1621     1.0  0.59911  0.53388  0.51525  1.0000
  H   H1622     1.0  0.63763  0.51558  0.53277  1.0000
  C   C951      1.0  0.99716  0.71294  0.53278  1.0000
  S   S270      1.0  0.73045  0.00327  0.54766  1.0000
  S   S271      1.0  0.50394  0.92827  0.46763  1.0000
  H   H1623     1.0  0.49976  0.92344  0.55177  1.0000
  Fe  Fe136     1.0  0.74531  0.97996  0.86023  1.0000
  Fe  Fe137     1.0  0.78734  0.93649  0.85097  1.0000
  S   S272      1.0  0.79790  0.95984  0.82467  1.0000
  S   S273      1.0  0.81001  0.89873  0.86165  1.0000
  Fe  Fe138     1.0  0.73632  0.94729  0.82543  1.0000
  S   S274      1.0  0.70098  0.92308  0.80182  1.0000
  H   H1624     1.0  0.92910  0.62271  0.93028  1.0000
  S   S275      1.0  0.72444  0.92008  0.85126  1.0000
  H   H1625     1.0  0.81896  0.58613  0.86367  1.0000
  C   C952      1.0  0.74131  0.59289  0.87937  1.0000
  H   H1626     1.0  0.83834  0.64714  0.88706  1.0000
  Fe  Fe139     1.0  0.85640  0.53662  0.90602  1.0000
  S   S276      1.0  0.88738  0.57605  0.88380  1.0000
  S   S277      1.0  0.84680  0.55394  0.93103  1.0000
  Fe  Fe140     1.0  0.95299  0.83746  0.83066  1.0000
  S   S278      1.0  0.96891  0.84782  0.85763  1.0000
  S   S279      1.0  0.90887  0.84965  0.81798  1.0000
  H   H1627     1.0  0.92633  0.61077  0.95198  1.0000
  S   S280      1.0  0.95068  0.75560  0.88028  1.0000
  S   S281      1.0  0.95398  0.78201  0.83057  1.0000
  Fe  Fe141     1.0  0.53724  0.72307  0.76939  1.0000
  S   S282      1.0  0.54750  0.74607  0.74281  1.0000
  S   S283      1.0  0.57255  0.74911  0.79280  1.0000
  C   C953      1.0  0.97737  0.94418  0.84195  1.0000
  H   H1628     1.0  0.61556  0.92702  0.91059  1.0000
  H   H1629     1.0  0.53513  0.84642  0.81025  1.0000
  H   H1630     1.0  0.74652  0.59443  0.86566  1.0000
  C   C954      1.0  0.59939  0.93378  0.91983  1.0000
  H   H1631     1.0  0.56887  0.00095  0.88813  1.0000
  H   H1632     1.0  0.58749  0.64531  0.73876  1.0000
  C   C955      1.0  0.90418  0.62581  0.88298  1.0000
  C   C956      1.0  0.90312  0.64508  0.89700  1.0000
  C   C957      1.0  0.91770  0.68490  0.89598  1.0000
  C   C958      1.0  0.93302  0.70570  0.88090  1.0000
  C   C959      1.0  0.93381  0.68636  0.86684  1.0000
  C   C960      1.0  0.91960  0.64658  0.86792  1.0000
  H   H1633     1.0  0.89103  0.62936  0.90860  1.0000
  H   H1634     1.0  0.91696  0.69973  0.90689  1.0000
  H   H1635     1.0  0.94558  0.70211  0.85518  1.0000
  H   H1636     1.0  0.92059  0.63187  0.85702  1.0000
  C   C961      1.0  0.83803  0.88600  0.84938  1.0000
  C   C962      1.0  0.84393  0.89553  0.83230  1.0000
  C   C963      1.0  0.86527  0.88375  0.82276  1.0000
  C   C964      1.0  0.88210  0.86366  0.83034  1.0000
  C   C965      1.0  0.87694  0.85485  0.84748  1.0000
  C   C966      1.0  0.85467  0.86570  0.85693  1.0000
  H   H1637     1.0  0.83199  0.91177  0.82638  1.0000
  H   H1638     1.0  0.86932  0.89075  0.80950  1.0000
  H   H1639     1.0  0.88952  0.83907  0.85341  1.0000
  H   H1640     1.0  0.85039  0.85836  0.87016  1.0000
  C   C967      1.0  0.60866  0.79740  0.79493  1.0000
  C   C968      1.0  0.61943  0.81179  0.81107  1.0000
  C   C969      1.0  0.64790  0.85015  0.81338  1.0000
  C   C970      1.0  0.66621  0.87432  0.79954  1.0000
  C   C971      1.0  0.65585  0.85979  0.78340  1.0000
  C   C972      1.0  0.62706  0.82150  0.78108  1.0000
  H   H1641     1.0  0.60529  0.79326  0.82184  1.0000
  H   H1642     1.0  0.65543  0.86114  0.82586  1.0000
  H   H1643     1.0  0.66999  0.87835  0.77263  1.0000
  H   H1644     1.0  0.61932  0.81058  0.76859  1.0000
  H   H1645     1.0  0.71182  0.52956  0.88021  1.0000
  H   H1646     1.0  0.83178  0.70137  0.87772  1.0000
  H   H1647     1.0  0.75701  0.62569  0.90832  1.0000
  H   H1648     1.0  0.51594  0.60001  0.74482  1.0000
  S   S284      1.0  0.80717  0.99340  0.86232  1.0000
  H   H1649     1.0  0.80292  0.68254  0.89611  1.0000
  H   H1650     1.0  0.57916  0.95824  0.94704  1.0000
  H   H1651     1.0  0.57426  0.91591  0.80452  1.0000
  H   H1652     1.0  0.61755  0.60414  0.73746  1.0000
  H   H1653     1.0  0.52498  0.85174  0.74668  1.0000
  H   H1654     1.0  0.98491  0.67629  0.91723  1.0000
  C   C973      1.0  0.78912  0.57303  0.88808  1.0000
  C   C974      1.0  0.59261  0.96575  0.91230  1.0000
  H   H1655     1.0  0.53061  0.56947  0.75504  1.0000
  H   H1656     1.0  0.50429  0.87701  0.80585  1.0000
  C   C975      1.0  0.52762  0.94455  0.92308  1.0000
  C   C976      1.0  0.94599  0.97730  0.87155  1.0000
  H   H1657     1.0  0.94923  0.57349  0.90876  1.0000
  H   H1658     1.0  0.82893  0.65438  0.91463  1.0000
  Fe  Fe142     1.0  0.97478  0.79496  0.85715  1.0000
  H   H1659     1.0  0.57196  0.90699  0.92258  1.0000
  H   H1660     1.0  0.57581  0.86780  0.75061  1.0000
  H   H1661     1.0  0.95391  0.92547  0.85080  1.0000
  H   H1662     1.0  0.52022  0.54846  0.94859  1.0000
  H   H1663     1.0  0.90847  0.95294  0.85030  1.0000
  C   C977      1.0  0.81003  0.64040  0.88154  1.0000
  N   N67       1.0  0.72645  0.81077  0.81801  1.0000
  C   C978      1.0  0.74419  0.85368  0.81587  1.0000
  C   C979      1.0  0.70107  0.79852  0.83337  1.0000
  C   C980      1.0  0.70238  0.79266  0.80266  1.0000
  C   C981      1.0  0.75905  0.80204  0.81971  1.0000
  C   C982      1.0  0.76687  0.87177  0.79944  1.0000
  C   C983      1.0  0.72158  0.81588  0.84994  1.0000
  C   C984      1.0  0.66879  0.75106  0.80457  1.0000
  C   C985      1.0  0.74808  0.76005  0.82341  1.0000
  H   H1664     1.0  0.72165  0.86217  0.81661  1.0000
  H   H1665     1.0  0.76444  0.86862  0.82625  1.0000
  H   H1666     1.0  0.68558  0.76706  0.83551  1.0000
  H   H1667     1.0  0.67772  0.80590  0.83164  1.0000
  H   H1668     1.0  0.68854  0.80934  0.79794  1.0000
  H   H1669     1.0  0.72096  0.79339  0.79222  1.0000
  H   H1670     1.0  0.77642  0.81037  0.80800  1.0000
  H   H1671     1.0  0.78061  0.82006  0.82919  1.0000
  H   H1672     1.0  0.77688  0.90290  0.79910  1.0000
  H   H1673     1.0  0.79305  0.86891  0.79861  1.0000
  H   H1674     1.0  0.74872  0.86022  0.78817  1.0000
  H   H1675     1.0  0.74617  0.81094  0.85257  1.0000
  H   H1676     1.0  0.73145  0.84689  0.85021  1.0000
  H   H1677     1.0  0.70071  0.80219  0.86042  1.0000
  H   H1678     1.0  0.64502  0.74944  0.81228  1.0000
  H   H1679     1.0  0.67795  0.73110  0.80981  1.0000
  H   H1680     1.0  0.65617  0.74074  0.79204  1.0000
  H   H1681     1.0  0.74173  0.74402  0.81167  1.0000
  H   H1682     1.0  0.72374  0.74479  0.83225  1.0000
  H   H1683     1.0  0.77284  0.75949  0.82973  1.0000
  C   C986      1.0  0.93186  0.98167  0.85394  1.0000
  Fe  Fe143     1.0  0.86161  0.51040  0.94164  1.0000
  C   C987      1.0  0.70653  0.55301  0.88367  1.0000
  H   H1684     1.0  0.76756  0.55182  0.86265  1.0000
  H   H1685     1.0  0.88480  0.98529  0.83115  1.0000
  H   H1686     1.0  0.57894  0.95570  0.89989  1.0000
  H   H1687     1.0  0.59959  0.87730  0.77884  1.0000
  H   H1688     1.0  0.78053  0.67348  0.87563  1.0000
  C   C988      1.0  0.80546  0.67609  0.88299  1.0000
  C   C989      1.0  0.94675  0.62419  0.94130  1.0000
  C   C990      1.0  0.58724  0.63208  0.72717  1.0000
  H   H1689     1.0  0.75030  0.57955  0.91300  1.0000
  H   H1690     1.0  0.79799  0.62587  0.93143  1.0000
  C   C991      1.0  0.80703  0.62476  0.91848  1.0000
  H   H1691     1.0  0.81716  0.58205  0.89447  1.0000
  H   H1692     1.0  0.76795  0.54641  0.89495  1.0000
  C   C992      1.0  0.57796  0.88550  0.78255  1.0000
  C   C993      1.0  0.53077  0.82858  0.79930  1.0000
  H   H1693     1.0  0.81330  0.63759  0.86796  1.0000
  H   H1694     1.0  0.73132  0.61381  0.88145  1.0000
  H   H1695     1.0  0.58012  0.90691  0.77282  1.0000
  H   H1696     1.0  0.99288  0.55860  0.92405  1.0000
  H   H1697     1.0  0.98133  0.92480  0.83364  1.0000
  N   N68       1.0  0.77789  0.60359  0.88903  1.0000
  H   H1698     1.0  0.55428  0.81230  0.77209  1.0000
  C   C994      1.0  0.54595  0.84321  0.75145  1.0000
  H   H1699     1.0  0.52556  0.91908  0.92989  1.0000
  H   H1700     1.0  0.61744  0.94291  0.93125  1.0000
  H   H1701     1.0  0.54450  0.82154  0.74277  1.0000
  S   S285      1.0  0.52058  0.66290  0.76244  1.0000
  C   C995      1.0  0.77101  0.60786  0.90713  1.0000
  H   H1702     1.0  0.97639  0.61054  0.88133  1.0000
  H   H1703     1.0  0.62176  0.93361  0.79628  1.0000
  Fe  Fe144     1.0  0.52654  0.68482  0.73577  1.0000
  C   C996      1.0  0.50775  0.86260  0.77949  1.0000
  C   C997      1.0  0.97215  0.60424  0.90845  1.0000
  H   H1704     1.0  0.90276  0.97090  0.81372  1.0000
  C   C998      1.0  0.60437  0.60881  0.72638  1.0000
  H   H1705     1.0  0.93922  0.94963  0.82487  1.0000
  H   H1706     1.0  0.68096  0.54918  0.87639  1.0000
  H   H1707     1.0  0.96529  0.96492  0.87157  1.0000
  H   H1708     1.0  0.82055  0.60652  0.91912  1.0000
  N   N69       1.0  0.56884  0.97706  0.92272  1.0000
  H   H1709     1.0  0.60019  0.88996  0.80822  1.0000
  C   C999      1.0  0.79404  0.56214  0.87032  1.0000
  H   H1710     1.0  0.51707  0.93475  0.91023  1.0000
  C   C1000     1.0  0.59376  0.90715  0.79893  1.0000
  H   H1711     1.0  0.98434  0.60565  0.95108  1.0000
  C   C1001     1.0  0.58353  0.98486  0.94042  1.0000
  C   C1002     1.0  0.96646  0.96976  0.83120  1.0000
  H   H1712     1.0  0.69837  0.54956  0.89707  1.0000
  H   H1713     1.0  0.92045  0.95798  0.87941  1.0000
  H   H1714     1.0  0.80061  0.53836  0.87135  1.0000
  S   S286      1.0  0.72189  0.99426  0.88313  1.0000
  H   H1715     1.0  0.55238  0.81885  0.80095  1.0000
  N   N70       1.0  0.53777  0.85089  0.78295  1.0000
  H   H1716     1.0  0.95591  0.61980  0.90713  1.0000
  C   C1003     1.0  0.53534  0.82484  0.76923  1.0000
  H   H1717     1.0  0.52246  0.98882  0.89724  1.0000
  N   N71       1.0  0.99570  0.61391  0.92431  1.0000
  H   H1718     1.0  0.94674  0.57127  0.93852  1.0000
  C   C1004     1.0  0.96871  0.60221  0.93910  1.0000
  H   H1719     1.0  0.96661  0.65435  0.94457  1.0000
  H   H1720     1.0  0.56662  0.99437  0.94781  1.0000
  H   H1721     1.0  0.91740  0.99891  0.85593  1.0000
  H   H1722     1.0  0.51469  0.55260  0.72590  1.0000
  H   H1723     1.0  0.62141  0.99085  0.90942  1.0000
  C   C1005     1.0  0.90673  0.99546  0.82105  1.0000
  N   N72       1.0  0.96191  0.99967  0.84021  1.0000
  C   C1006     1.0  0.99497  0.61161  0.89204  1.0000
  H   H1724     1.0  0.98833  0.98317  0.82106  1.0000
  H   H1725     1.0  0.51485  0.88049  0.76779  1.0000
  H   H1726     1.0  0.50350  0.95765  0.94505  1.0000
  C   C1007     1.0  0.50537  0.57021  0.74935  1.0000
  H   H1727     1.0  0.52241  0.91704  0.79099  1.0000
  S   S287      1.0  0.73588  0.51064  0.93706  1.0000
  H   H1728     1.0  0.50571  0.80000  0.76822  1.0000
  S   S288      1.0  0.89788  0.52336  0.96509  1.0000
  C   C1008     1.0  0.50192  0.88593  0.79290  1.0000
