data_image0
_chemical_formula_structural       SHSHFeS2CH3SHSHCSHC2SHSH2CH7FeHC6H3C2HNCSC4H4C2H5C2H2CHCHCH4CH4CFeHC2HFeH2CHSCFeH9CH2CH5SFeC2HCHCHC2H3SHFeCH2CSHSCH3CHC2HN2HC2HCH4C4HCH3CH3C2H3CH4CNHCNH2FeH2CHCH2CH2CHFeCH2CFeS2H2CH2CSHCH2SHSCHSC6SCFeHFeCHC5HC4HCHCH2CH2CH2C2SHC3H7C2SH2CHSNSHCHCH7C2H7CHC2SCH6CH5CH7C2H2CHFeNH2CH3CHCHFeSC2H6CH2SHC2H3CH2SH2C7H6SH5CH6C2HNCH3CH7C2HFeC3H7C2HCSCH2CHC2NC2HCH2CH2NCHC2H2CNCH4CH2CFeH4S2HSHFeSFeSHCSCH2SCHSFeCSHCHCHC2HCH4CHCH3FeHC3H4C3H4C2H2SH2SCHCH2CHSCH2FeC2SH2C2H2CH2CHCH2FeSHCNH5CFeSH12CH4C2SHCHCFeSFeS3FeS2FeS2FeSFeS3FeS2FeS2FeSFeS3HCFeSHSC3H9C8H4CHCHC3H2C2H3CHC2H2C2HCHCHCHC3H5CHCH4CH5CH3CH5C2H2C2H5C2H3CHCHC2NH4CH3CHSH4CH6CH6CHC2HCHNH2NH2C2NHC3HC2H2SH3FeH2C2H3NH5FeHCHCH2C3HCSH4CFeNHSHCNH3CH2C2HCHC2H3SFeS2FeHSFeCSH2CS2H2FeCH5SNC3HCH4CSHCH5C2H4C4H3CH2NCSH3CHC2H4CH2CHSHC3H2C3SHCH4C2HFeC5HC3HCNHSC2H3CH2CHCH3CH2FeH3SCH2NHCHFeC3HSHC3H2NH3SCSH2CSH2CFeH2FeS2HCFeS3HCH2C5H2C4H2C2H2C2S2HFeHC3H5CHFeH2C2SC3HCFeHCHCSHCH4FeCHCH4CH2CFeSHFeHC2H2S3H2C2H2C2NHCH4C2H3FeSCHSHSC2HCH3CH3CFeCFeNHCHSH2CH3C3H3C2HCH2CNHCH2CNC2HCSH3C3H6CHCHSHCSNH4CH2SHC2H3CH2CH3C2HSH15CH4C2NCHCH4CH5CH6FeCFeHSH2SFeHSFeHFeNHS2FeSHFeS2HSHCHSHCH3C2H2CHS2HC6H5Fe2C3SH2CHC6H4CHSH3CH2CHSH3SHCH4CFeH2C2HSH4FeCSC4HNC8H6NHCFeHFeCSH2S2CH2CH4CHSHSH4CH3CHC2H2NH2FeHS2HC2SCH2FeCNH4SH2CSHSH2SHCSCH2FeSH2C2HCH3CHCHC3H3SH3FeHC3HFeHCFeCHSC3H2CH3CHCHCH2CHSH4SFeHCHC2NCH4CHNH4C2HCHSHSC2H2CH6C2HCH3NHCH2SHC2HCH9C2FeCH2CHFeH4SCH2CHSH2CFeSH3CH3CH3SHCHFeC3HCH2CH3C2H5SC3H2CH4NH3CHCFeC3NHNHCSCHC2SHCH2C3HCFeH3SH2CH2CHC2H4C2HSH7CH2CH2FeS2FeS2FeSFeS5FeS2FeS2FeSFeS3HC5H3SCH5C2H4C3H3C3H3CHC6H4C6H7NC7H16C2NHNC6H8CHCH3CHCH3CH4C3SH2CH5SH2SH2CH2C2H3C2H13C2HCH3CHC2HCH2CH2FeHC3HCH4CNCHC2H6CHCH2FeHCH3C2HC3H2CH8CHC2H5C2H2SCH2SCHSH2S2H2CSCFeH2CHSH2C2HFeHCNC4H4C2HC3NCH2CH3C2H6CH3CH4CHCHC2H4CH2CHFeHCH2NH3CHFeSH6CHC3H7C2H2C2H
_chemical_formula_sum              "S192 H1152 Fe96 C672 N48"
_cell_length_a       42.2299
_cell_length_b       42.3148
_cell_length_c       42.2657
_cell_angle_alpha    90.8083
_cell_angle_beta     89.3312
_cell_angle_gamma    90.0008

_space_group_name_H-M_alt    "P 1"
_space_group_IT_number       1

loop_
  _space_group_symop_operation_xyz
  'x, y, z'

loop_
  _atom_site_type_symbol
  _atom_site_label
  _atom_site_symmetry_multiplicity
  _atom_site_fract_x
  _atom_site_fract_y
  _atom_site_fract_z
  _atom_site_occupancy
  S   S1        1.0  0.37125  0.05893  0.08687  1.0000
  H   H1        1.0  0.37346  0.20864  0.14655  1.0000
  S   S2        1.0  0.08861  0.38595  0.17659  1.0000
  H   H2        1.0  0.47322  0.43586  0.02647  1.0000
  Fe  Fe1       1.0  0.43864  0.37167  0.07019  1.0000
  S   S3        1.0  0.11727  0.29694  0.06491  1.0000
  S   S4        1.0  0.46655  0.39761  0.10758  1.0000
  C   C1        1.0  0.10101  0.50293  0.33228  1.0000
  H   H3        1.0  0.36917  0.25928  0.09478  1.0000
  H   H4        1.0  0.14759  0.40329  0.03896  1.0000
  H   H5        1.0  0.05635  0.40305  0.24656  1.0000
  S   S5        1.0  0.40028  0.33638  0.08045  1.0000
  H   H6        1.0  0.37869  0.07512  0.16105  1.0000
  S   S6        1.0  0.40841  0.40049  0.03839  1.0000
  H   H7        1.0  0.03179  0.28078  0.18982  1.0000
  C   C2        1.0  0.49761  0.19350  0.04088  1.0000
  S   S7        1.0  0.09001  0.37088  0.01812  1.0000
  H   H8        1.0  0.06764  0.34953  0.22996  1.0000
  C   C3        1.0  0.39962  0.02005  0.23334  1.0000
  C   C4        1.0  0.49888  0.47401  0.05158  1.0000
  S   S8        1.0  0.20316  0.29606  0.09051  1.0000
  H   H9        1.0  0.44880  0.19495  0.05661  1.0000
  S   S9        1.0  0.05837  0.24701  0.11815  1.0000
  H   H10       1.0  0.39325  0.24582  0.14533  1.0000
  H   H11       1.0  0.35953  0.07160  0.19947  1.0000
  C   C5        1.0  0.31291  0.22923  0.09646  1.0000
  H   H12       1.0  0.03643  0.32184  0.18165  1.0000
  H   H13       1.0  0.21281  0.42464  0.01430  1.0000
  H   H14       1.0  0.31168  0.31311  0.05182  1.0000
  H   H15       1.0  0.01921  0.28971  0.08198  1.0000
  H   H16       1.0  0.39403  0.22587  0.09180  1.0000
  H   H17       1.0  0.02290  0.29420  0.24829  1.0000
  H   H18       1.0  0.05841  0.48620  0.03716  1.0000
  Fe  Fe2       1.0  0.37151  0.36272  0.04507  1.0000
  H   H19       1.0  0.08053  0.45998  0.25542  1.0000
  C   C6        1.0  0.08732  0.42643  0.16833  1.0000
  C   C7        1.0  0.11002  0.43997  0.14840  1.0000
  C   C8        1.0  0.10916  0.47247  0.14249  1.0000
  C   C9        1.0  0.08539  0.49151  0.15612  1.0000
  C   C10       1.0  0.06250  0.47795  0.17590  1.0000
  C   C11       1.0  0.06367  0.44549  0.18225  1.0000
  H   H20       1.0  0.12856  0.42547  0.13792  1.0000
  H   H21       1.0  0.12700  0.48292  0.12730  1.0000
  H   H22       1.0  0.03168  0.10499  0.20198  1.0000
  C   C12       1.0  0.37839  0.02661  0.17913  1.0000
  C   C13       1.0  0.29011  0.35676  0.06697  1.0000
  H   H23       1.0  0.04941  0.02568  0.04074  1.0000
  N   N1        1.0  0.34417  0.21531  0.08572  1.0000
  C   C14       1.0  0.46264  0.23911  0.03566  1.0000
  S   S10       1.0  0.46085  0.34327  0.03075  1.0000
  C   C15       1.0  0.47179  0.46177  0.03059  1.0000
  C   C16       1.0  0.46444  0.08060  0.07928  1.0000
  C   C17       1.0  0.43123  0.08198  0.07784  1.0000
  C   C18       1.0  0.41275  0.05673  0.08871  1.0000
  H   H24       1.0  0.06368  0.30184  0.20740  1.0000
  H   H25       1.0  0.41991  0.10252  0.06804  1.0000
  H   H26       1.0  0.01333  0.15459  0.15568  1.0000
  H   H27       1.0  0.03917  0.19926  0.04341  1.0000
  C   C19       1.0  0.05161  0.35172  0.25090  1.0000
  C   C20       1.0  0.34142  0.24954  0.03545  1.0000
  H   H28       1.0  0.20702  0.40001  0.04696  1.0000
  H   H29       1.0  0.39141  0.04719  0.27669  1.0000
  H   H30       1.0  0.04413  0.49247  0.18654  1.0000
  H   H31       1.0  0.04606  0.43512  0.19768  1.0000
  H   H32       1.0  0.13960  0.50075  0.20671  1.0000
  C   C21       1.0  0.23661  0.31989  0.08266  1.0000
  C   C22       1.0  0.03850  0.30397  0.20047  1.0000
  H   H33       1.0  0.04347  0.39050  0.28587  1.0000
  H   H34       1.0  0.24125  0.35172  0.01882  1.0000
  C   C23       1.0  0.04459  0.45447  0.08877  1.0000
  H   H35       1.0  0.03343  0.44998  0.11227  1.0000
  C   C24       1.0  0.28316  0.21424  0.08155  1.0000
  H   H36       1.0  0.43576  0.05213  0.16677  1.0000
  C   C25       1.0  0.12829  0.49120  0.22846  1.0000
  H   H37       1.0  0.41858  0.07398  0.19814  1.0000
  H   H38       1.0  0.37459  0.13882  0.09628  1.0000
  H   H39       1.0  0.04657  0.44755  0.02518  1.0000
  H   H40       1.0  0.37288  0.21078  0.04305  1.0000
  C   C26       1.0  0.26408  0.30570  0.06990  1.0000
  H   H41       1.0  0.03842  0.48283  0.31096  1.0000
  H   H42       1.0  0.31228  0.25518  0.09235  1.0000
  H   H43       1.0  0.01396  0.07085  0.18424  1.0000
  H   H44       1.0  0.44880  0.46627  0.04289  1.0000
  C   C27       1.0  0.26277  0.37093  0.08005  1.0000
  Fe  Fe3       1.0  0.15364  0.31593  0.09865  1.0000
  H   H45       1.0  0.39600  0.17397  0.10561  1.0000
  C   C28       1.0  0.37171  0.23298  0.13744  1.0000
  C   C29       1.0  0.34821  0.21709  0.05026  1.0000
  H   H46       1.0  0.11698  0.46874  0.22105  1.0000
  Fe  Fe4       1.0  0.09930  0.34668  0.06424  1.0000
  H   H47       1.0  0.18895  0.34851  0.04380  1.0000
  H   H48       1.0  0.30962  0.22673  0.12244  1.0000
  C   C30       1.0  0.37054  0.23386  0.10099  1.0000
  H   H49       1.0  0.01381  0.49689  0.12963  1.0000
  S   S11       1.0  0.42514  0.25670  0.04196  1.0000
  C   C31       1.0  0.02346  0.16566  0.17706  1.0000
  Fe  Fe5       1.0  0.08579  0.29148  0.10756  1.0000
  H   H50       1.0  0.27983  0.18943  0.08903  1.0000
  H   H51       1.0  0.33789  0.17814  0.12023  1.0000
  H   H52       1.0  0.47863  0.10011  0.07083  1.0000
  H   H53       1.0  0.31597  0.25579  0.03677  1.0000
  H   H54       1.0  0.07411  0.41403  0.09995  1.0000
  H   H55       1.0  0.02721  0.19106  0.17168  1.0000
  H   H56       1.0  0.01973  0.15526  0.22655  1.0000
  H   H57       1.0  0.30431  0.02545  0.25122  1.0000
  H   H58       1.0  0.07977  0.42737  0.06062  1.0000
  C   C32       1.0  0.46143  0.05064  0.21055  1.0000
  H   H59       1.0  0.38295  0.01863  0.15432  1.0000
  H   H60       1.0  0.28336  0.21529  0.05539  1.0000
  C   C33       1.0  0.46780  0.20792  0.04534  1.0000
  H   H61       1.0  0.50730  0.35076  0.07685  1.0000
  H   H62       1.0  0.34050  0.05770  0.16452  1.0000
  H   H63       1.0  0.06018  0.33405  0.26818  1.0000
  H   H64       1.0  0.47737  0.03148  0.20189  1.0000
  H   H65       1.0  0.06331  0.47256  0.09309  1.0000
  S   S12       1.0  0.13766  0.36644  0.09521  1.0000
  Fe  Fe6       1.0  0.10404  0.35522  0.13516  1.0000
  C   C34       1.0  0.23617  0.35256  0.08809  1.0000
  C   C35       1.0  0.37735  0.16414  0.09008  1.0000
  H   H66       1.0  0.04476  0.40481  0.07145  1.0000
  C   C36       1.0  0.05497  0.21465  0.02930  1.0000
  H   H67       1.0  0.38554  0.16470  0.06508  1.0000
  C   C37       1.0  0.03736  0.47055  0.03430  1.0000
  H   H68       1.0  0.14763  0.48650  0.24526  1.0000
  C   C38       1.0  0.47912  0.05430  0.09241  1.0000
  C   C39       1.0  0.36378  0.05984  0.17635  1.0000
  H   H69       1.0  0.07945  0.21007  0.03745  1.0000
  H   H70       1.0  0.04746  0.15564  0.18056  1.0000
  H   H71       1.0  0.26216  0.39627  0.08385  1.0000
  S   S13       1.0  0.06432  0.33966  0.10388  1.0000
  H   H72       1.0  0.26437  0.28055  0.06530  1.0000
  Fe  Fe7       1.0  0.42032  0.30990  0.03813  1.0000
  C   C40       1.0  0.34521  0.18104  0.09505  1.0000
  H   H73       1.0  0.47413  0.07320  0.20616  1.0000
  H   H74       1.0  0.12292  0.47825  0.29286  1.0000
  C   C41       1.0  0.42989  0.05093  0.19253  1.0000
  S   S14       1.0  0.32157  0.38100  0.05413  1.0000
  H   H75       1.0  0.21529  0.36367  0.09831  1.0000
  S   S15       1.0  0.12339  0.30632  0.14172  1.0000
  C   C42       1.0  0.48726  0.25556  0.02089  1.0000
  H   H76       1.0  0.32776  0.16693  0.08126  1.0000
  H   H77       1.0  0.49195  0.49801  0.05958  1.0000
  H   H78       1.0  0.04987  0.23986  0.03472  1.0000
  C   C43       1.0  0.29083  0.32402  0.06223  1.0000
  H   H79       1.0  0.35121  0.24539  0.14856  1.0000
  C   C44       1.0  0.06684  0.47977  0.26625  1.0000
  C   C45       1.0  0.05029  0.46529  0.29534  1.0000
  H   H80       1.0  0.45773  0.04893  0.23649  1.0000
  N   N2        1.0  0.40793  0.02352  0.19872  1.0000
  N   N3        1.0  0.02053  0.46660  0.06568  1.0000
  H   H81       1.0  0.35998  0.05048  0.24877  1.0000
  C   C46       1.0  0.02150  0.24237  0.09987  1.0000
  C   C47       1.0  0.38609  0.04923  0.25109  1.0000
  H   H82       1.0  0.50156  0.16969  0.04895  1.0000
  C   C48       1.0  0.16435  0.41972  0.02752  1.0000
  H   H83       1.0  0.26191  0.22752  0.09006  1.0000
  H   H84       1.0  0.33301  0.19939  0.03797  1.0000
  H   H85       1.0  0.49838  0.45980  0.07362  1.0000
  H   H86       1.0  0.16600  0.44079  0.04339  1.0000
  C   C49       1.0  0.42760  0.03025  0.10117  1.0000
  C   C50       1.0  0.05842  0.38473  0.26489  1.0000
  C   C51       1.0  0.06150  0.42341  0.07923  1.0000
  C   C52       1.0  0.19764  0.40521  0.02305  1.0000
  H   H87       1.0  0.44877  0.02997  0.03256  1.0000
  C   C53       1.0  0.02703  0.35559  0.02430  1.0000
  H   H88       1.0  0.02642  0.37320  0.20060  1.0000
  H   H89       1.0  0.39684  0.07185  0.24401  1.0000
  H   H90       1.0  0.01733  0.19372  0.11340  1.0000
  C   C54       1.0  0.11202  0.50192  0.29712  1.0000
  H   H91       1.0  0.03152  0.44881  0.28716  1.0000
  H   H92       1.0  0.03417  0.33880  0.04186  1.0000
  H   H93       1.0  0.48337  0.27929  0.01270  1.0000
  C   C55       1.0  0.46064  0.02927  0.10353  1.0000
  C   C56       1.0  0.00964  0.49850  0.07789  1.0000
  H   H94       1.0  0.35557  0.26887  0.04615  1.0000
  H   H95       1.0  0.08339  0.38544  0.27284  1.0000
  H   H96       1.0  0.06714  0.45118  0.30930  1.0000
  C   C57       1.0  0.05009  0.01656  0.01619  1.0000
  H   H97       1.0  0.15586  0.35509  0.01957  1.0000
  H   H98       1.0  0.26268  0.40469  0.01663  1.0000
  H   H99       1.0  0.04810  0.48560  0.24885  1.0000
  H   H100      1.0  0.39970  0.04142  0.01276  1.0000
  C   C58       1.0  0.18167  0.35008  0.01868  1.0000
  N   N4        1.0  0.08754  0.50826  0.27226  1.0000
  H   H101      1.0  0.10202  0.47900  0.34273  1.0000
  C   C59       1.0  0.01677  0.31125  0.22941  1.0000
  N   N5        1.0  0.01774  0.34479  0.24214  1.0000
  H   H102      1.0  0.17091  0.29986  0.01864  1.0000
  H   H103      1.0  0.26291  0.01229  0.01365  1.0000
  Fe  Fe8       1.0  0.34417  0.01307  0.09057  1.0000
  H   H104      1.0  0.41376  0.01055  0.10919  1.0000
  H   H105      1.0  0.42000  0.01105  0.24709  1.0000
  C   C60       1.0  0.50781  0.39353  0.10494  1.0000
  H   H106      1.0  0.35947  0.01076  0.18802  1.0000
  C   C61       1.0  0.00959  0.09097  0.20090  1.0000
  H   H107      1.0  0.47201  0.00892  0.11366  1.0000
  H   H108      1.0  0.34813  0.24849  0.00995  1.0000
  C   C62       1.0  0.48433  0.21241  0.65741  1.0000
  H   H109      1.0  0.14932  0.05823  0.48295  1.0000
  H   H110      1.0  0.49112  0.18254  0.55932  1.0000
  C   C63       1.0  0.48003  0.17195  0.53792  1.0000
  H   H111      1.0  0.03227  0.13769  0.51421  1.0000
  Fe  Fe9       1.0  0.46192  0.04510  0.61093  1.0000
  C   C64       1.0  0.33810  0.48143  0.49511  1.0000
  H   H112      1.0  0.39532  0.14245  0.58120  1.0000
  H   H113      1.0  0.02594  0.46998  0.38599  1.0000
  C   C65       1.0  0.34797  0.47268  0.52880  1.0000
  Fe  Fe10      1.0  0.48225  0.38539  0.62742  1.0000
  S   S16       1.0  0.40091  0.03614  0.44416  1.0000
  S   S17       1.0  0.44678  0.40235  0.59213  1.0000
  H   H114      1.0  0.34089  0.44752  0.53130  1.0000
  H   H115      1.0  0.02533  0.16784  0.37362  1.0000
  C   C66       1.0  0.43288  0.48894  0.55631  1.0000
  H   H116      1.0  0.46506  0.21385  0.67448  1.0000
  H   H117      1.0  0.25978  0.03723  0.54690  1.0000
  C   C67       1.0  0.30930  0.04956  0.54540  1.0000
  S   S18       1.0  0.05052  0.41909  0.42449  1.0000
  H   H118      1.0  0.07165  0.49095  0.52129  1.0000
  C   C68       1.0  0.04023  0.15465  0.46567  1.0000
  H   H119      1.0  0.49850  0.13955  0.50057  1.0000
  H   H120      1.0  0.46377  0.14902  0.59163  1.0000
  S   S19       1.0  0.19184  0.03055  0.53319  1.0000
  H   H121      1.0  0.03465  0.21328  0.45653  1.0000
  S   S20       1.0  0.03884  0.04790  0.56198  1.0000
  C   C69       1.0  0.50130  0.23990  0.64973  1.0000
  H   H122      1.0  0.44128  0.06854  0.48687  1.0000
  S   S21       1.0  0.03781  0.07172  0.41456  1.0000
  C   C70       1.0  0.03878  0.05666  0.52147  1.0000
  C   C71       1.0  0.49230  0.18309  0.64338  1.0000
  C   C72       1.0  0.04382  0.47946  0.40159  1.0000
  C   C73       1.0  0.03747  0.06574  0.45567  1.0000
  C   C74       1.0  0.42698  0.18977  0.55177  1.0000
  C   C75       1.0  0.44790  0.49649  0.61090  1.0000
  S   S22       1.0  0.47050  0.36103  0.67287  1.0000
  C   C76       1.0  0.06705  0.05771  0.50397  1.0000
  Fe  Fe11      1.0  0.50726  0.32543  0.65708  1.0000
  H   H123      1.0  0.42774  0.20572  0.53099  1.0000
  Fe  Fe12      1.0  0.08170  0.01986  0.57635  1.0000
  C   C77       1.0  0.05942  0.45952  0.42247  1.0000
  H   H124      1.0  0.45977  0.11633  0.56626  1.0000
  C   C78       1.0  0.40417  0.03380  0.48536  1.0000
  C   C79       1.0  0.12070  0.01081  0.40677  1.0000
  C   C80       1.0  0.08275  0.47188  0.44238  1.0000
  C   C81       1.0  0.01125  0.50390  0.50580  1.0000
  C   C82       1.0  0.00994  0.06142  0.50618  1.0000
  H   H125      1.0  0.09511  0.45646  0.45829  1.0000
  C   C83       1.0  0.44455  0.44347  0.58857  1.0000
  C   C84       1.0  0.45131  0.46366  0.61407  1.0000
  C   C85       1.0  0.06635  0.06278  0.47125  1.0000
  C   C86       1.0  0.43522  0.45615  0.55976  1.0000
  H   H126      1.0  0.45821  0.45396  0.63651  1.0000
  C   C87       1.0  0.03257  0.17135  0.39859  1.0000
  H   H127      1.0  0.43005  0.44054  0.53998  1.0000
  C   C88       1.0  0.48397  0.46701  0.47059  1.0000
  H   H128      1.0  0.35140  0.46624  0.47791  1.0000
  H   H129      1.0  0.46771  0.44820  0.46204  1.0000
  C   C89       1.0  0.15455  0.04591  0.46007  1.0000
  H   H130      1.0  0.41939  0.22929  0.58458  1.0000
  H   H131      1.0  0.47904  0.16212  0.64932  1.0000
  C   C90       1.0  0.28023  0.03611  0.56321  1.0000
  H   H132      1.0  0.36274  0.43132  0.57690  1.0000
  H   H133      1.0  0.08723  0.45185  0.52216  1.0000
  C   C91       1.0  0.41059  0.03168  0.55139  1.0000
  C   C92       1.0  0.29917  0.48933  0.55818  1.0000
  S   S23       1.0  0.46885  0.08268  0.64849  1.0000
  H   H134      1.0  0.37430  0.47296  0.52917  1.0000
  C   C93       1.0  0.42968  0.05183  0.53355  1.0000
  C   C94       1.0  0.42642  0.05297  0.50065  1.0000
  C   C95       1.0  0.43652  0.20956  0.58115  1.0000
  H   H135      1.0  0.24038  0.04241  0.48693  1.0000
  H   H136      1.0  0.44665  0.06685  0.54507  1.0000
  H   H137      1.0  0.49875  0.47416  0.45004  1.0000
  H   H138      1.0  0.25291  0.02555  0.63050  1.0000
  H   H139      1.0  0.13209  0.03323  0.39956  1.0000
  H   H140      1.0  0.34407  0.50607  0.48910  1.0000
  H   H141      1.0  0.04272  0.17937  0.51215  1.0000
  C   C96       1.0  0.23608  0.01616  0.61278  1.0000
  C   C97       1.0  0.34620  0.44523  0.59226  1.0000
  S   S24       1.0  0.41394  0.03068  0.59277  1.0000
  H   H142      1.0  0.27472  0.05342  0.58257  1.0000
  H   H143      1.0  0.03817  0.19674  0.40195  1.0000
  C   C98       1.0  0.50369  0.14678  0.52531  1.0000
  H   H144      1.0  0.37486  0.48677  0.58691  1.0000
  S   S25       1.0  0.12608  0.04057  0.59632  1.0000
  N   N6        1.0  0.44675  0.16064  0.54520  1.0000
  S   S26       1.0  0.49186  0.27550  0.66989  1.0000
  H   H145      1.0  0.41226  0.10453  0.58788  1.0000
  C   C99       1.0  0.50367  0.45401  0.49818  1.0000
  H   H146      1.0  0.08821  0.06453  0.45792  1.0000
  C   C100      1.0  0.41656  0.13041  0.58995  1.0000
  H   H147      1.0  0.43583  0.19552  0.60308  1.0000
  H   H148      1.0  0.31265  0.47659  0.49110  1.0000
  H   H149      1.0  0.08947  0.05517  0.51579  1.0000
  H   H150      1.0  0.06073  0.16668  0.45424  1.0000
  H   H151      1.0  0.31230  0.03835  0.52163  1.0000
  H   H152      1.0  0.32163  0.43654  0.58938  1.0000
  H   H153      1.0  0.47978  0.19117  0.52013  1.0000
  C   C101      1.0  0.18946  0.01122  0.39754  1.0000
  C   C102      1.0  0.23623  0.01718  0.48741  1.0000
  H   H154      1.0  0.18070  0.04478  0.45805  1.0000
  H   H155      1.0  0.44890  0.12162  0.51151  1.0000
  H   H156      1.0  0.31011  0.02716  0.61344  1.0000
  H   H157      1.0  0.35329  0.44058  0.61701  1.0000
  H   H158      1.0  0.40157  0.18430  0.55488  1.0000
  H   H159      1.0  0.03320  0.42840  0.52534  1.0000
  H   H160      1.0  0.14461  0.06084  0.44136  1.0000
  C   C103      1.0  0.43491  0.14351  0.51608  1.0000
  H   H161      1.0  0.05424  0.15691  0.40166  1.0000
  C   C104      1.0  0.06678  0.46673  0.52979  1.0000
  C   C105      1.0  0.44813  0.13893  0.57314  1.0000
  S   S27       1.0  0.50216  0.06164  0.58034  1.0000
  C   C106      1.0  0.09030  0.50408  0.44179  1.0000
  H   H162      1.0  0.39500  0.12157  0.49272  1.0000
  H   H163      1.0  0.41815  0.13608  0.61565  1.0000
  H   H164      1.0  0.46885  0.48719  0.47832  1.0000
  H   H165      1.0  0.30550  0.07516  0.54135  1.0000
  H   H166      1.0  0.07186  0.14915  0.50552  1.0000
  H   H167      1.0  0.04201  0.12949  0.45790  1.0000
  C   C107      1.0  0.34917  0.48096  0.58601  1.0000
  H   H168      1.0  0.17888  0.01091  0.37366  1.0000
  H   H169      1.0  0.04147  0.44895  0.48999  1.0000
  H   H170      1.0  0.39543  0.11404  0.53368  1.0000
  H   H171      1.0  0.50468  0.12569  0.54049  1.0000
  H   H172      1.0  0.43831  0.15853  0.49483  1.0000
  C   C108      1.0  0.04671  0.15558  0.50154  1.0000
  H   H173      1.0  0.11547  0.01496  0.47072  1.0000
  H   H174      1.0  0.29198  0.46441  0.55340  1.0000
  H   H175      1.0  0.33143  0.04720  0.55904  1.0000
  H   H176      1.0  0.48628  0.44875  0.51729  1.0000
  H   H177      1.0  0.06634  0.46669  0.55603  1.0000
  H   H178      1.0  0.38304  0.15245  0.51904  1.0000
  H   H179      1.0  0.01996  0.48823  0.56717  1.0000
  C   C109      1.0  0.38520  0.01334  0.50309  1.0000
  C   C110      1.0  0.40005  0.13269  0.51613  1.0000
  H   H180      1.0  0.46019  0.22062  0.57834  1.0000
  H   H181      1.0  0.42616  0.49840  0.53393  1.0000
  C   C111      1.0  0.03624  0.45259  0.51560  1.0000
  H   H182      1.0  0.29103  0.49476  0.58284  1.0000
  Fe  Fe13      1.0  0.50098  0.04672  0.67048  1.0000
  N   N7        1.0  0.33474  0.49265  0.55572  1.0000
  H   H183      1.0  0.25765  0.49762  0.52917  1.0000
  H   H184      1.0  0.02587  0.50140  0.48374  1.0000
  C   C112      1.0  0.14008  0.01255  0.46125  1.0000
  H   H185      1.0  0.22494  0.03618  0.60030  1.0000
  H   H186      1.0  0.09740  0.01812  0.41730  1.0000
  H   H187      1.0  0.49576  0.49953  0.54047  1.0000
  C   C113      1.0  0.01033  0.20415  0.46131  1.0000
  H   H188      1.0  0.18880  0.03559  0.40717  1.0000
  C   C114      1.0  0.38842  0.01232  0.53610  1.0000
  H   H189      1.0  0.33843  0.49314  0.60704  1.0000
  Fe  Fe14      1.0  0.15162  0.00923  0.56135  1.0000
  S   S28       1.0  0.05854  0.08246  0.91980  1.0000
  C   C115      1.0  0.06961  0.05152  0.80054  1.0000
  C   C116      1.0  0.03202  0.07475  0.83824  1.0000
  H   H190      1.0  0.02679  0.10720  0.78892  1.0000
  H   H191      1.0  0.06174  0.08725  0.74631  1.0000
  H   H192      1.0  0.46736  0.42366  0.80019  1.0000
  H   H193      1.0  0.42499  0.48724  0.85500  1.0000
  H   H194      1.0  0.05902  0.18160  0.99011  1.0000
  H   H195      1.0  0.20986  0.30772  0.00489  1.0000
  C   C117      1.0  0.49925  0.50147  0.74464  1.0000
  H   H196      1.0  0.24862  0.01567  0.95706  1.0000
  H   H197      1.0  0.25426  0.40783  0.97483  1.0000
  S   S29       1.0  0.44923  0.38991  0.95506  1.0000
  H   H198      1.0  0.46786  0.37601  0.86579  1.0000
  C   C118      1.0  0.44792  0.41361  0.81500  1.0000
  C   C119      1.0  0.46633  0.45543  0.85116  1.0000
  H   H199      1.0  0.40433  0.43817  0.85594  1.0000
  H   H200      1.0  0.03161  0.28133  0.94927  1.0000
  H   H201      1.0  0.07701  0.03299  0.81734  1.0000
  C   C120      1.0  0.49466  0.13365  0.71835  1.0000
  H   H202      1.0  0.05788  0.40881  0.97290  1.0000
  H   H203      1.0  0.07294  0.21991  0.98236  1.0000
  S   S30       1.0  0.12041  0.02741  0.87353  1.0000
  H   H204      1.0  0.47244  0.46189  0.87595  1.0000
  H   H205      1.0  0.40102  0.02091  0.83298  1.0000
  C   C121      1.0  0.44951  0.43145  0.95379  1.0000
  C   C122      1.0  0.47689  0.44705  0.94336  1.0000
  C   C123      1.0  0.47647  0.47974  0.93823  1.0000
  C   C124      1.0  0.44849  0.49698  0.94274  1.0000
  C   C125      1.0  0.42143  0.48161  0.95441  1.0000
  C   C126      1.0  0.42197  0.44892  0.96011  1.0000
  C   C127      1.0  0.48462  0.04048  0.98022  1.0000
  H   H206      1.0  0.01131  0.03078  0.98666  1.0000
  H   H207      1.0  0.39981  0.49487  0.95842  1.0000
  H   H208      1.0  0.40073  0.43706  0.96821  1.0000
  H   H209      1.0  0.06052  0.23959  0.92833  1.0000
  H   H210      1.0  0.45730  0.02603  0.82015  1.0000
  H   H211      1.0  0.15805  0.38305  0.97281  1.0000
  S   S31       1.0  0.38846  0.33361  0.00314  1.0000
  H   H212      1.0  0.04561  0.09724  0.83964  1.0000
  H   H213      1.0  0.04240  0.05915  0.85647  1.0000
  H   H214      1.0  0.44011  0.36203  0.82563  1.0000
  H   H215      1.0  0.38381  0.39500  0.88743  1.0000
  H   H216      1.0  0.45335  0.01485  0.86052  1.0000
  C   C128      1.0  0.47599  0.40084  0.86551  1.0000
  H   H217      1.0  0.50400  0.04207  0.99762  1.0000
  H   H218      1.0  0.46998  0.37023  0.79581  1.0000
  H   H219      1.0  0.04967  0.21056  0.89948  1.0000
  H   H220      1.0  0.42575  0.42450  0.80620  1.0000
  H   H221      1.0  0.07355  0.19901  0.93178  1.0000
  H   H222      1.0  0.17723  0.41687  0.93502  1.0000
  C   C129      1.0  0.01739  0.01016  0.00147  1.0000
  C   C130      1.0  0.00955  0.10514  0.95671  1.0000
  H   H223      1.0  0.21692  0.40107  0.93523  1.0000
  N   N8        1.0  0.45289  0.42236  0.84938  1.0000
  C   C131      1.0  0.01622  0.02937  0.80620  1.0000
  H   H224      1.0  0.03337  0.48672  0.98603  1.0000
  H   H225      1.0  0.06002  0.26852  0.97824  1.0000
  H   H226      1.0  0.06240  0.03517  0.00240  1.0000
  C   C132      1.0  0.25918  0.39130  0.99414  1.0000
  H   H227      1.0  0.42943  0.37418  0.78715  1.0000
  H   H228      1.0  0.17597  0.31493  0.97977  1.0000
  H   H229      1.0  0.18736  0.35946  0.95516  1.0000
  H   H230      1.0  0.45921  0.50422  0.83718  1.0000
  H   H231      1.0  0.08483  0.10119  0.79361  1.0000
  H   H232      1.0  0.49844  0.43378  0.93900  1.0000
  H   H233      1.0  0.49376  0.14036  0.74370  1.0000
  C   C133      1.0  0.40517  0.39094  0.87231  1.0000
  C   C134      1.0  0.42196  0.42283  0.86762  1.0000
  H   H234      1.0  0.41181  0.02055  0.97810  1.0000
  Fe  Fe15      1.0  0.07990  0.03467  0.90797  1.0000
  C   C135      1.0  0.02307  0.20596  0.94352  1.0000
  C   C136      1.0  0.50064  0.46959  0.73462  1.0000
  C   C137      1.0  0.04978  0.37372  0.00856  1.0000
  H   H235      1.0  0.02550  0.01321  0.82457  1.0000
  H   H236      1.0  0.16065  0.02283  0.74220  1.0000
  H   H237      1.0  0.02597  0.12334  0.96401  1.0000
  H   H238      1.0  0.09776  0.08386  0.83009  1.0000
  H   H239      1.0  0.02031  0.17992  0.93986  1.0000
  H   H240      1.0  0.11622  0.07249  0.79346  1.0000
  H   H241      1.0  0.47786  0.40742  0.89098  1.0000
  C   C138      1.0  0.05300  0.20710  0.99360  1.0000
  C   C139      1.0  0.05359  0.21460  0.92517  1.0000
  H   H242      1.0  0.15438  0.42779  0.00486  1.0000
  C   C140      1.0  0.01144  0.24817  0.98369  1.0000
  S   S32       1.0  0.50414  0.04041  0.72350  1.0000
  C   C141      1.0  0.01980  0.08129  0.93561  1.0000
  H   H243      1.0  0.07395  0.04096  0.77673  1.0000
  H   H244      1.0  0.02324  0.09503  0.73165  1.0000
  C   C142      1.0  0.01772  0.48380  0.00709  1.0000
  H   H245      1.0  0.20329  0.42964  0.96460  1.0000
  C   C143      1.0  0.18513  0.31649  0.00419  1.0000
  C   C144      1.0  0.03493  0.27440  0.97426  1.0000
  N   N9        1.0  0.19961  0.37608  0.00206  1.0000
  C   C145      1.0  0.44511  0.48209  0.83859  1.0000
  C   C146      1.0  0.02274  0.08218  0.78140  1.0000
  H   H246      1.0  0.42548  0.43335  0.89166  1.0000
  C   C147      1.0  0.18431  0.38086  0.97044  1.0000
  H   H247      1.0  0.41984  0.37371  0.88514  1.0000
  H   H248      1.0  0.39666  0.38091  0.84961  1.0000
  C   C148      1.0  0.19658  0.40859  0.95045  1.0000
  H   H249      1.0  0.03533  0.05522  0.73721  1.0000
  H   H250      1.0  0.49784  0.49152  0.93069  1.0000
  N   N10       1.0  0.03516  0.05963  0.80575  1.0000
  C   C149      1.0  0.23366  0.36550  0.99798  1.0000
  H   H251      1.0  0.48886  0.45700  0.83755  1.0000
  C   C150      1.0  0.09315  0.07915  0.80462  1.0000
  C   C151      1.0  0.44693  0.37796  0.80628  1.0000
  H   H252      1.0  0.23623  0.34902  0.97733  1.0000
  H   H253      1.0  0.46471  0.05603  0.98776  1.0000
  C   C152      1.0  0.04034  0.39489  0.98530  1.0000
  N   N11       1.0  0.02170  0.21431  0.97840  1.0000
  C   C153      1.0  0.01470  0.01035  0.77497  1.0000
  H   H254      1.0  0.48203  0.11066  0.71669  1.0000
  H   H255      1.0  0.48138  0.15165  0.70504  1.0000
  H   H256      1.0  0.49408  0.04999  0.95763  1.0000
  H   H257      1.0  0.28229  0.37978  0.98858  1.0000
  C   C154      1.0  0.40801  0.01797  0.00383  1.0000
  H   H258      1.0  0.47104  0.47410  0.00771  1.0000
  H   H259      1.0  0.49067  0.46243  0.71216  1.0000
  C   C155      1.0  0.03674  0.07933  0.74747  1.0000
  Fe  Fe16      1.0  0.42768  0.36958  0.99949  1.0000
  H   H260      1.0  0.41042  0.02358  0.77502  1.0000
  H   H261      1.0  0.03050  0.29557  0.98955  1.0000
  H   H262      1.0  0.43644  0.47697  0.81442  1.0000
  H   H263      1.0  0.22616  0.91371  0.14340  1.0000
  S   S33       1.0  0.22734  0.99072  0.06847  1.0000
  S   S34       1.0  0.36511  0.96654  0.10420  1.0000
  H   H264      1.0  0.12663  0.88282  0.15331  1.0000
  S   S35       1.0  0.29460  0.93678  0.09321  1.0000
  H   H265      1.0  0.03708  0.79370  0.16101  1.0000
  Fe  Fe17      1.0  0.32049  0.96051  0.13291  1.0000
  S   S36       1.0  0.32217  0.93463  0.17927  1.0000
  Fe  Fe18      1.0  0.33753  0.94681  0.06355  1.0000
  S   S37       1.0  0.35765  0.90706  0.03368  1.0000
  H   H266      1.0  0.38150  0.00125  0.23649  1.0000
  C   C156      1.0  0.42501  0.99381  0.18795  1.0000
  S   S38       1.0  0.08681  0.89633  0.09199  1.0000
  C   C157      1.0  0.08345  0.56700  0.29010  1.0000
  H   H267      1.0  0.18038  0.92049  0.06367  1.0000
  H   H268      1.0  0.17347  0.96243  0.09625  1.0000
  S   S39       1.0  0.05146  0.59509  0.20943  1.0000
  C   C158      1.0  0.02745  0.71509  0.17606  1.0000
  H   H269      1.0  0.22324  0.93923  0.11060  1.0000
  S   S40       1.0  0.04992  0.67999  0.17574  1.0000
  Fe  Fe19      1.0  0.04577  0.56255  0.16761  1.0000
  C   C159      1.0  0.03455  0.67302  0.08106  1.0000
  S   S41       1.0  0.02482  0.93820  0.14335  1.0000
  H   H270      1.0  0.50578  0.96017  0.06748  1.0000
  C   C160      1.0  0.04261  0.74368  0.16891  1.0000
  H   H271      1.0  0.16740  0.93621  0.18094  1.0000
  C   C161      1.0  0.01502  0.97695  0.27800  1.0000
  H   H272      1.0  0.06786  0.74388  0.16417  1.0000
  C   C162      1.0  0.07739  0.90446  0.05252  1.0000
  C   C163      1.0  0.09706  0.92409  0.03439  1.0000
  H   H273      1.0  0.16992  0.97696  0.03530  1.0000
  C   C164      1.0  0.04987  0.89200  0.03923  1.0000
  H   H274      1.0  0.11850  0.93365  0.04446  1.0000
  H   H275      1.0  0.03503  0.87624  0.05270  1.0000
  H   H276      1.0  0.49835  0.00597  0.03576  1.0000
  H   H277      1.0  0.18311  0.87851  0.06217  1.0000
  C   C165      1.0  0.31271  0.00137  0.24884  1.0000
  H   H278      1.0  0.01193  0.73200  0.07600  1.0000
  C   C166      1.0  0.18989  0.89979  0.07623  1.0000
  H   H279      1.0  0.01766  0.93987  0.07084  1.0000
  H   H280      1.0  0.08694  0.52048  0.22246  1.0000
  H   H281      1.0  0.48030  0.93590  0.04413  1.0000
  Fe  Fe20      1.0  0.04345  0.89238  0.12333  1.0000
  H   H282      1.0  0.21272  0.98536  0.14382  1.0000
  C   C167      1.0  0.33559  0.95488  0.27216  1.0000
  C   C168      1.0  0.33403  0.93919  0.24267  1.0000
  C   C169      1.0  0.32227  0.95468  0.21610  1.0000
  H   H283      1.0  0.12262  0.97904  0.14172  1.0000
  H   H284      1.0  0.50936  0.53389  0.02881  1.0000
  H   H285      1.0  0.34516  0.94294  0.29241  1.0000
  H   H286      1.0  0.34236  0.91507  0.24035  1.0000
  C   C170      1.0  0.18720  0.98534  0.01829  1.0000
  C   C171      1.0  0.01412  0.96566  0.24675  1.0000
  C   C172      1.0  0.21264  0.93417  0.13411  1.0000
  H   H287      1.0  0.11420  0.92370  0.15249  1.0000
  H   H288      1.0  0.21614  0.90057  0.07613  1.0000
  H   H289      1.0  0.02028  0.80001  0.23397  1.0000
  H   H290      1.0  0.44600  0.98925  0.20289  1.0000
  C   C173      1.0  0.48428  0.96048  0.05257  1.0000
  C   C174      1.0  0.40539  0.96301  0.18854  1.0000
  H   H291      1.0  0.17918  0.89716  0.17314  1.0000
  H   H292      1.0  0.24720  0.96504  0.15596  1.0000
  S   S42       1.0  0.32894  0.00747  0.31111  1.0000
  H   H293      1.0  0.42039  0.94312  0.17976  1.0000
  H   H294      1.0  0.04747  0.83202  0.23563  1.0000
  S   S43       1.0  0.04291  0.86737  0.16998  1.0000
  C   C175      1.0  0.22097  0.96319  0.15474  1.0000
  H   H295      1.0  0.47650  0.77624  0.05446  1.0000
  C   C176      1.0  0.49003  0.98332  0.02493  1.0000
  H   H296      1.0  0.12184  0.90496  0.18918  1.0000
  H   H297      1.0  0.03455  0.81464  0.27188  1.0000
  C   C177      1.0  0.31117  0.98569  0.21935  1.0000
  H   H298      1.0  0.39743  0.95686  0.21277  1.0000
  S   S44       1.0  0.32015  0.99379  0.04719  1.0000
  C   C178      1.0  0.26700  0.92720  0.01217  1.0000
  H   H299      1.0  0.09906  0.56383  0.31069  1.0000
  H   H300      1.0  0.15107  0.88938  0.10692  1.0000
  Fe  Fe21      1.0  0.27904  0.98542  0.08008  1.0000
  C   C179      1.0  0.32517  0.98613  0.27525  1.0000
  C   C180      1.0  0.17606  0.89677  0.11011  1.0000
  S   S45       1.0  0.02602  0.60013  0.13667  1.0000
  H   H301      1.0  0.13209  0.51891  0.29496  1.0000
  H   H302      1.0  0.06521  0.58475  0.29719  1.0000
  C   C181      1.0  0.21756  0.99406  0.02828  1.0000
  C   C182      1.0  0.01653  0.96530  0.06495  1.0000
  H   H303      1.0  0.18803  0.87631  0.12123  1.0000
  H   H304      1.0  0.13774  0.94251  0.10501  1.0000
  C   C183      1.0  0.14867  0.97999  0.13779  1.0000
  H   H305      1.0  0.15333  0.00258  0.12546  1.0000
  H   H306      1.0  0.46884  0.80887  0.33295  1.0000
  C   C184      1.0  0.15960  0.95216  0.11610  1.0000
  H   H307      1.0  0.48450  0.80991  0.01268  1.0000
  C   C185      1.0  0.16505  0.91689  0.16325  1.0000
  H   H308      1.0  0.02776  0.96389  0.29562  1.0000
  H   H309      1.0  0.04755  0.69469  0.08829  1.0000
  Fe  Fe22      1.0  0.01985  0.91169  0.18857  1.0000
  S   S46       1.0  0.30136  0.00870  0.12253  1.0000
  H   H310      1.0  0.03323  0.67115  0.05494  1.0000
  C   C186      1.0  0.12996  0.90661  0.16415  1.0000
  N   N12       1.0  0.17802  0.92587  0.13118  1.0000
  H   H311      1.0  0.43600  0.94605  0.01384  1.0000
  H   H312      1.0  0.38471  0.96399  0.17274  1.0000
  H   H313      1.0  0.21235  0.96137  0.17947  1.0000
  H   H314      1.0  0.50144  0.74528  0.03821  1.0000
  H   H315      1.0  0.46436  0.96800  0.06817  1.0000
  C   C187      1.0  0.06648  0.53617  0.28016  1.0000
  Fe  Fe23      1.0  0.02752  0.63159  0.17987  1.0000
  S   S47       1.0  0.08535  0.53210  0.14812  1.0000
  H   H316      1.0  0.04905  0.65279  0.08908  1.0000
  H   H317      1.0  0.16045  0.98189  0.16088  1.0000
  H   H318      1.0  0.25172  0.93198  0.03326  1.0000
  H   H319      1.0  0.30150  0.99760  0.19916  1.0000
  H   H320      1.0  0.07698  0.51233  0.33653  1.0000
  H   H321      1.0  0.42918  0.99517  0.04275  1.0000
  H   H322      1.0  0.06490  0.99489  0.01517  1.0000
  H   H323      1.0  0.04890  0.53095  0.29896  1.0000
  H   H324      1.0  0.05151  0.54182  0.25945  1.0000
  H   H325      1.0  0.01589  0.58466  0.33784  1.0000
  H   H326      1.0  0.28432  0.90897  0.01909  1.0000
  H   H327      1.0  0.46099  0.75063  0.02562  1.0000
  C   C188      1.0  0.48298  0.76294  0.03246  1.0000
  H   H328      1.0  0.43433  0.99637  0.16334  1.0000
  H   H329      1.0  0.02975  0.51561  0.07801  1.0000
  H   H330      1.0  0.09703  0.57750  0.27028  1.0000
  H   H331      1.0  0.11822  0.53815  0.24384  1.0000
  C   C189      1.0  0.02523  0.77192  0.16712  1.0000
  C   C190      1.0  0.02675  0.82141  0.24797  1.0000
  S   S48       1.0  0.03314  0.92998  0.23669  1.0000
  H   H332      1.0  0.04104  0.97300  0.05992  1.0000
  C   C191      1.0  0.10436  0.51595  0.24150  1.0000
  H   H333      1.0  0.01050  0.86865  0.25572  1.0000
  C   C192      1.0  0.43803  0.00836  0.02190  1.0000
  Fe  Fe24      1.0  0.37653  0.93153  0.39257  1.0000
  S   S49       1.0  0.40463  0.88621  0.39302  1.0000
  Fe  Fe25      1.0  0.31383  0.95672  0.41789  1.0000
  S   S50       1.0  0.27043  0.93835  0.44350  1.0000
  S   S51       1.0  0.32792  0.93379  0.37155  1.0000
  S   S52       1.0  0.36146  0.95081  0.44001  1.0000
  Fe  Fe26      1.0  0.41951  0.63052  0.49446  1.0000
  S   S53       1.0  0.40700  0.60588  0.44900  1.0000
  S   S54       1.0  0.42129  0.68364  0.49836  1.0000
  Fe  Fe27      1.0  0.42223  0.56932  0.53088  1.0000
  S   S55       1.0  0.40927  0.54001  0.48842  1.0000
  S   S56       1.0  0.43215  0.55006  0.57920  1.0000
  Fe  Fe28      1.0  0.44406  0.57067  0.46270  1.0000
  S   S57       1.0  0.47654  0.54608  0.42754  1.0000
  Fe  Fe29      1.0  0.37342  0.57776  0.47918  1.0000
  S   S58       1.0  0.32447  0.56518  0.46159  1.0000
  S   S59       1.0  0.45946  0.59769  0.50589  1.0000
  S   S60       1.0  0.38350  0.60480  0.52382  1.0000
  Fe  Fe30      1.0  0.14926  0.60741  0.51317  1.0000
  S   S61       1.0  0.12638  0.62963  0.47118  1.0000
  S   S62       1.0  0.19955  0.61566  0.53011  1.0000
  Fe  Fe31      1.0  0.08681  0.57954  0.53643  1.0000
  S   S63       1.0  0.05851  0.59966  0.49694  1.0000
  S   S64       1.0  0.06702  0.54646  0.57290  1.0000
  Fe  Fe32      1.0  0.09950  0.58405  0.46631  1.0000
  S   S65       1.0  0.08590  0.56397  0.41866  1.0000
  Fe  Fe33      1.0  0.08709  0.64365  0.50476  1.0000
  S   S66       1.0  0.06975  0.69397  0.50065  1.0000
  S   S67       1.0  0.12586  0.56027  0.50524  1.0000
  S   S68       1.0  0.11178  0.62506  0.54740  1.0000
  H   H334      1.0  0.03917  0.75016  0.48112  1.0000
  C   C193      1.0  0.45924  0.82182  0.35387  1.0000
  Fe  Fe34      1.0  0.10816  0.95345  0.57463  1.0000
  S   S69       1.0  0.09749  0.90539  0.55331  1.0000
  H   H335      1.0  0.04973  0.80501  0.51628  1.0000
  S   S70       1.0  0.15538  0.96838  0.59421  1.0000
  C   C194      1.0  0.05776  0.89375  0.55753  1.0000
  C   C195      1.0  0.04101  0.90007  0.58561  1.0000
  C   C196      1.0  0.04264  0.87798  0.53249  1.0000
  H   H336      1.0  0.05257  0.91205  0.60509  1.0000
  H   H337      1.0  0.05557  0.87306  0.51073  1.0000
  H   H338      1.0  0.02536  0.97873  0.56003  1.0000
  H   H339      1.0  0.42248  0.78926  0.36737  1.0000
  H   H340      1.0  0.28689  0.98421  0.64388  1.0000
  H   H341      1.0  0.31480  0.71722  0.51732  1.0000
  H   H342      1.0  0.01197  0.65698  0.50991  1.0000
  H   H343      1.0  0.42490  0.74348  0.40275  1.0000
  H   H344      1.0  0.04715  0.71053  0.56849  1.0000
  C   C197      1.0  0.44382  0.80001  0.37849  1.0000
  C   C198      1.0  0.49793  0.74020  0.48697  1.0000
  C   C199      1.0  0.28967  0.57797  0.48143  1.0000
  C   C200      1.0  0.29062  0.59082  0.51203  1.0000
  C   C201      1.0  0.26262  0.60149  0.52696  1.0000
  C   C202      1.0  0.23346  0.59940  0.51141  1.0000
  C   C203      1.0  0.23237  0.58587  0.48109  1.0000
  C   C204      1.0  0.26043  0.57513  0.46618  1.0000
  H   H345      1.0  0.31290  0.59266  0.52414  1.0000
  H   H346      1.0  0.26351  0.61172  0.55054  1.0000
  H   H347      1.0  0.20999  0.58410  0.46897  1.0000
  H   H348      1.0  0.25949  0.56493  0.44259  1.0000
  C   C205      1.0  0.30933  0.00379  0.60096  1.0000
  H   H349      1.0  0.50270  0.51832  0.50387  1.0000
  C   C206      1.0  0.25199  0.99301  0.58891  1.0000
  H   H350      1.0  0.47756  0.83716  0.36472  1.0000
  C   C207      1.0  0.03136  0.61967  0.37257  1.0000
  C   C208      1.0  0.47858  0.67967  0.46751  1.0000
  C   C209      1.0  0.25676  0.70059  0.49138  1.0000
  H   H351      1.0  0.47119  0.65634  0.45979  1.0000
  H   H352      1.0  0.44428  0.96693  0.55898  1.0000
  C   C210      1.0  0.46835  0.72831  0.49670  1.0000
  C   C211      1.0  0.45868  0.69801  0.48700  1.0000
  H   H353      1.0  0.02308  0.95438  0.46442  1.0000
  H   H354      1.0  0.45306  0.74250  0.51191  1.0000
  H   H355      1.0  0.09378  0.97517  0.37993  1.0000
  C   C212      1.0  0.24887  0.96435  0.46817  1.0000
  H   H356      1.0  0.06031  0.69207  0.40361  1.0000
  C   C213      1.0  0.20775  0.97228  0.50839  1.0000
  C   C214      1.0  0.22560  0.95209  0.48851  1.0000
  H   H357      1.0  0.18997  0.96263  0.52417  1.0000
  H   H358      1.0  0.22146  0.92685  0.48895  1.0000
  C   C215      1.0  0.44472  0.89096  0.40238  1.0000
  C   C216      1.0  0.45778  0.87222  0.42589  1.0000
  H   H359      1.0  0.05545  0.62459  0.43028  1.0000
  C   C217      1.0  0.46437  0.91097  0.38487  1.0000
  H   H360      1.0  0.44259  0.85708  0.43982  1.0000
  C   C218      1.0  0.50786  0.69171  0.45742  1.0000
  H   H361      1.0  0.23498  0.98937  0.56927  1.0000
  C   C219      1.0  0.03073  0.71835  0.58770  1.0000
  H   H362      1.0  0.08368  0.65787  0.39117  1.0000
  C   C220      1.0  0.50422  0.92517  0.50478  1.0000
  C   C221      1.0  0.33344  0.65620  0.46623  1.0000
  C   C222      1.0  0.44426  0.75621  0.41532  1.0000
  H   H363      1.0  0.36781  0.70228  0.43657  1.0000
  H   H364      1.0  0.40911  0.79050  0.43449  1.0000
  H   H365      1.0  0.41812  0.75866  0.45989  1.0000
  H   H366      1.0  0.02655  0.81172  0.61543  1.0000
  H   H367      1.0  0.07955  0.82131  0.54240  1.0000
  C   C223      1.0  0.29615  0.94627  0.55538  1.0000
  H   H368      1.0  0.35112  0.69727  0.51049  1.0000
  C   C224      1.0  0.12378  0.96258  0.43755  1.0000
  H   H369      1.0  0.23217  0.69140  0.48945  1.0000
  H   H370      1.0  0.04029  0.52694  0.38394  1.0000
  H   H371      1.0  0.07805  0.83655  0.62298  1.0000
  H   H372      1.0  0.27470  0.93615  0.56664  1.0000
  C   C225      1.0  0.49451  0.72336  0.37711  1.0000
  H   H373      1.0  0.32964  0.64755  0.53271  1.0000
  H   H374      1.0  0.48573  0.87764  0.51086  1.0000
  H   H375      1.0  0.05929  0.75137  0.53884  1.0000
  H   H376      1.0  0.48409  0.80982  0.42388  1.0000
  H   H377      1.0  0.13527  0.95202  0.48733  1.0000
  C   C226      1.0  0.43848  0.50917  0.58204  1.0000
  H   H378      1.0  0.25773  0.72326  0.47863  1.0000
  H   H379      1.0  0.30462  0.95456  0.61832  1.0000
  H   H380      1.0  0.08622  0.67349  0.43036  1.0000
  C   C227      1.0  0.07704  0.81271  0.61161  1.0000
  H   H381      1.0  0.47681  0.99462  0.55719  1.0000
  H   H382      1.0  0.26092  0.70501  0.51689  1.0000
  H   H383      1.0  0.45365  0.74227  0.35381  1.0000
  H   H384      1.0  0.46079  0.90188  0.48726  1.0000
  H   H385      1.0  0.21667  0.00384  0.62566  1.0000
  C   C228      1.0  0.31732  0.67034  0.53655  1.0000
  C   C229      1.0  0.49198  0.78885  0.40994  1.0000
  H   H386      1.0  0.29160  0.66612  0.53965  1.0000
  H   H387      1.0  0.35193  0.54495  0.60027  1.0000
  C   C230      1.0  0.04439  0.80866  0.59605  1.0000
  C   C231      1.0  0.04328  0.64645  0.42274  1.0000
  H   H388      1.0  0.32854  0.63559  0.48145  1.0000
  H   H389      1.0  0.03242  0.70061  0.60674  1.0000
  H   H390      1.0  0.46891  0.94220  0.45450  1.0000
  H   H391      1.0  0.16448  0.93778  0.45875  1.0000
  H   H392      1.0  0.45226  0.51203  0.63094  1.0000
  C   C232      1.0  0.05197  0.51164  0.40044  1.0000
  C   C233      1.0  0.32498  0.69393  0.51002  1.0000
  H   H393      1.0  0.35508  0.74230  0.43375  1.0000
  H   H394      1.0  0.01734  0.99566  0.50304  1.0000
  H   H395      1.0  0.11716  0.51823  0.34636  1.0000
  C   C234      1.0  0.27976  0.67579  0.47700  1.0000
  H   H396      1.0  0.44485  0.95703  0.50489  1.0000
  C   C235      1.0  0.13889  0.94194  0.46322  1.0000
  H   H397      1.0  0.21486  0.00482  0.39430  1.0000
  C   C236      1.0  0.46648  0.97021  0.51220  1.0000
  C   C237      1.0  0.35445  0.72127  0.44919  1.0000
  N   N13       1.0  0.46446  0.77466  0.39227  1.0000
  H   H398      1.0  0.06355  0.74857  0.61158  1.0000
  H   H399      1.0  0.48371  0.95280  0.55843  1.0000
  H   H400      1.0  0.03349  0.65705  0.44497  1.0000
  H   H401      1.0  0.37155  0.52750  0.54880  1.0000
  C   C238      1.0  0.33662  0.54908  0.57955  1.0000
  H   H402      1.0  0.31633  0.98867  0.53822  1.0000
  H   H403      1.0  0.32886  0.98006  0.64164  1.0000
  H   H404      1.0  0.50472  0.71103  0.35598  1.0000
  C   C239      1.0  0.46820  0.97121  0.54871  1.0000
  H   H405      1.0  0.01499  0.92383  0.49177  1.0000
  S   S71       1.0  0.10714  0.99188  0.53878  1.0000
  H   H406      1.0  0.31761  0.94135  0.56931  1.0000
  H   H407      1.0  0.08083  0.79525  0.63049  1.0000
  H   H408      1.0  0.29088  0.51888  0.51497  1.0000
  H   H409      1.0  0.48870  0.76361  0.34758  1.0000
  C   C240      1.0  0.34534  0.52645  0.55184  1.0000
  H   H410      1.0  0.01971  0.68070  0.37100  1.0000
  H   H411      1.0  0.50059  0.77200  0.42780  1.0000
  H   H412      1.0  0.36696  0.72787  0.47123  1.0000
  H   H413      1.0  0.31136  0.54726  0.58666  1.0000
  H   H414      1.0  0.33608  0.53715  0.53008  1.0000
  H   H415      1.0  0.29937  0.93344  0.53241  1.0000
  C   C241      1.0  0.42874  0.77539  0.44275  1.0000
  H   H416      1.0  0.34099  0.57383  0.57232  1.0000
  H   H417      1.0  0.33200  0.66316  0.41424  1.0000
  H   H418      1.0  0.30797  0.73374  0.46557  1.0000
  H   H419      1.0  0.35929  0.66052  0.46879  1.0000
  H   H420      1.0  0.12716  0.91843  0.46325  1.0000
  H   H421      1.0  0.08980  0.79209  0.51333  1.0000
  C   C242      1.0  0.01744  0.53667  0.61326  1.0000
  H   H422      1.0  0.04077  0.82916  0.58043  1.0000
  C   C243      1.0  0.48951  0.95764  0.46003  1.0000
  C   C244      1.0  0.01760  0.96246  0.54080  1.0000
  H   H423      1.0  0.27570  0.98401  0.52927  1.0000
  C   C245      1.0  0.07094  0.79955  0.53039  1.0000
  H   H424      1.0  0.02224  0.58380  0.43834  1.0000
  N   N14       1.0  0.03915  0.77805  0.57821  1.0000
  H   H425      1.0  0.30307  0.63514  0.42932  1.0000
  H   H426      1.0  0.45440  0.92544  0.36656  1.0000
  N   N15       1.0  0.01729  0.63860  0.39972  1.0000
  H   H427      1.0  0.26992  0.53162  0.55038  1.0000
  H   H428      1.0  0.25315  0.96971  0.60049  1.0000
  C   C246      1.0  0.30692  0.97904  0.62740  1.0000
  C   C247      1.0  0.01068  0.86905  0.53534  1.0000
  N   N16       1.0  0.49570  0.95831  0.49509  1.0000
  H   H429      1.0  0.32602  0.68021  0.55934  1.0000
  C   C248      1.0  0.49721  0.91113  0.39005  1.0000
  C   C249      1.0  0.06955  0.66877  0.41071  1.0000
  C   C250      1.0  0.47627  0.90196  0.50821  1.0000
  H   H430      1.0  0.08777  0.76659  0.56501  1.0000
  C   C251      1.0  0.02091  0.73302  0.48644  1.0000
  C   C252      1.0  0.06486  0.77241  0.55371  1.0000
  H   H431      1.0  0.47966  0.70577  0.38968  1.0000
  H   H432      1.0  0.45847  0.73759  0.42689  1.0000
  S   S72       1.0  0.39187  0.97843  0.37352  1.0000
  H   H433      1.0  0.27161  0.67129  0.45240  1.0000
  H   H434      1.0  0.47938  0.98578  0.41885  1.0000
  H   H435      1.0  0.02352  0.75632  0.62185  1.0000
  Fe  Fe35      1.0  0.12648  0.99847  0.62833  1.0000
  H   H436      1.0  0.43470  0.81633  0.39725  1.0000
  H   H437      1.0  0.17504  0.96380  0.40631  1.0000
  C   C253      1.0  0.47473  0.75189  0.36634  1.0000
  C   C254      1.0  0.02935  0.70266  0.49610  1.0000
  H   H438      1.0  0.33322  0.00118  0.58979  1.0000
  H   H439      1.0  0.50008  0.85865  0.44979  1.0000
  H   H440      1.0  0.50535  0.76353  0.49458  1.0000
  N   N17       1.0  0.31440  0.68449  0.47724  1.0000
  H   H441      1.0  0.27564  0.65320  0.48945  1.0000
  H   H442      1.0  0.18957  0.98384  0.43998  1.0000
  H   H443      1.0  0.34364  0.62478  0.42623  1.0000
  H   H444      1.0  0.03939  0.95172  0.53043  1.0000
  H   H445      1.0  0.30807  0.70798  0.43236  1.0000
  Fe  Fe36      1.0  0.34175  0.98270  0.35654  1.0000
  H   H446      1.0  0.09686  0.81163  0.59423  1.0000
  C   C255      1.0  0.31957  0.71212  0.45562  1.0000
  H   H447      1.0  0.44615  0.78984  0.45601  1.0000
  C   C256      1.0  0.49042  0.87285  0.43139  1.0000
  H   H448      1.0  0.12322  0.94726  0.41594  1.0000
  H   H449      1.0  0.44083  0.83817  0.34503  1.0000
  C   C257      1.0  0.03042  0.55653  0.59027  1.0000
  C   C258      1.0  0.32737  0.64469  0.43200  1.0000
  C   C259      1.0  0.03956  0.75124  0.60132  1.0000
  H   H450      1.0  0.04509  0.59907  0.38096  1.0000
  C   C260      1.0  0.29309  0.98175  0.54863  1.0000
  S   S73       1.0  0.07931  0.98018  0.61128  1.0000
  H   H451      1.0  0.09856  0.96670  0.44464  1.0000
  H   H452      1.0  0.46181  0.90736  0.52967  1.0000
  H   H453      1.0  0.02356  0.59867  0.56318  1.0000
  H   H454      1.0  0.27197  0.00656  0.45188  1.0000
  C   C261      1.0  0.07522  0.52395  0.42060  1.0000
  Fe  Fe37      1.0  0.37266  0.99807  0.41953  1.0000
  N   N18       1.0  0.28387  0.00318  0.57608  1.0000
  H   H455      1.0  0.10860  0.51327  0.45701  1.0000
  S   S74       1.0  0.32360  0.00600  0.40146  1.0000
  H   H456      1.0  0.13450  0.97906  0.36675  1.0000
  C   C262      1.0  0.17364  0.98679  0.41946  1.0000
  N   N19       1.0  0.14017  0.99356  0.43078  1.0000
  H   H457      1.0  0.02510  0.51957  0.52192  1.0000
  H   H458      1.0  0.03060  0.51624  0.62085  1.0000
  H   H459      1.0  0.36792  0.99856  0.49139  1.0000
  C   C263      1.0  0.25416  0.99695  0.46762  1.0000
  H   H460      1.0  0.37404  0.99624  0.54971  1.0000
  H   H461      1.0  0.04942  0.63379  0.35966  1.0000
  C   C264      1.0  0.01349  0.58310  0.58070  1.0000
  C   C265      1.0  0.21313  0.00485  0.50790  1.0000
  H   H462      1.0  0.15341  0.00022  0.47986  1.0000
  C   C266      1.0  0.27907  0.51080  0.53681  1.0000
  H   H463      1.0  0.46127  0.99488  0.50533  1.0000
  C   C267      1.0  0.48277  0.98974  0.44465  1.0000
  C   C268      1.0  0.11352  0.99208  0.37608  1.0000
  H   H464      1.0  0.10566  0.00870  0.35760  1.0000
  H   H465      1.0  0.50273  0.00654  0.44720  1.0000
  H   H466      1.0  0.46055  0.00058  0.45375  1.0000
  S   S75       1.0  0.49069  0.00813  0.63509  1.0000
  Fe  Fe38      1.0  0.44119  0.90079  0.87836  1.0000
  S   S76       1.0  0.39800  0.92971  0.89156  1.0000
  S   S77       1.0  0.44428  0.86654  0.83763  1.0000
  Fe  Fe39      1.0  0.09451  0.98367  0.85744  1.0000
  H   H467      1.0  0.44689  0.94927  0.79755  1.0000
  S   S78       1.0  0.08163  0.96700  0.80775  1.0000
  Fe  Fe40      1.0  0.07749  0.96546  0.92543  1.0000
  C   C269      1.0  0.49230  0.94542  0.72999  1.0000
  S   S79       1.0  0.04731  0.93159  0.95311  1.0000
  H   H468      1.0  0.42728  0.62361  0.80885  1.0000
  H   H469      1.0  0.45567  0.91257  0.97130  1.0000
  C   C270      1.0  0.41442  0.99822  0.83129  1.0000
  S   S80       1.0  0.05234  0.99365  0.88899  1.0000
  S   S81       1.0  0.11759  0.95184  0.89269  1.0000
  H   H470      1.0  0.49463  0.99344  0.96390  1.0000
  H   H471      1.0  0.27169  0.85896  0.99926  1.0000
  Fe  Fe41      1.0  0.48849  0.55573  0.90522  1.0000
  C   C271      1.0  0.50025  0.62924  0.73670  1.0000
  H   H472      1.0  0.48020  0.70990  0.95400  1.0000
  H   H473      1.0  0.29420  0.94937  0.95688  1.0000
  H   H474      1.0  0.44290  0.62336  0.76955  1.0000
  H   H475      1.0  0.42675  0.96322  0.97738  1.0000
  H   H476      1.0  0.29990  0.96080  0.90060  1.0000
  S   S82       1.0  0.48516  0.59206  0.86688  1.0000
  N   N20       1.0  0.40621  0.98021  0.80131  1.0000
  C   C272      1.0  0.10058  0.97799  0.77195  1.0000
  C   C273      1.0  0.08801  0.96716  0.74311  1.0000
  C   C274      1.0  0.10128  0.97659  0.71402  1.0000
  H   H477      1.0  0.31402  0.92209  0.90834  1.0000
  C   C275      1.0  0.27609  0.93936  0.94072  1.0000
  H   H478      1.0  0.35528  0.97560  0.84972  1.0000
  H   H479      1.0  0.06771  0.95156  0.74327  1.0000
  H   H480      1.0  0.09134  0.96814  0.69199  1.0000
  H   H481      1.0  0.41028  0.78818  0.96484  1.0000
  C   C276      1.0  0.23151  0.00695  0.97407  1.0000
  S   S83       1.0  0.48481  0.92734  0.86416  1.0000
  H   H482      1.0  0.30215  0.84013  0.97643  1.0000
  C   C277      1.0  0.04144  0.89986  0.00837  1.0000
  H   H483      1.0  0.44875  0.74899  0.97682  1.0000
  H   H484      1.0  0.39458  0.90374  0.79498  1.0000
  H   H485      1.0  0.44286  0.71928  0.88224  1.0000
  H   H486      1.0  0.22690  0.87413  0.94219  1.0000
  H   H487      1.0  0.47632  0.67162  0.88948  1.0000
  C   C278      1.0  0.36046  0.94241  0.97940  1.0000
  C   C279      1.0  0.35368  0.96203  0.82714  1.0000
  H   H488      1.0  0.22176  0.93622  0.90527  1.0000
  H   H489      1.0  0.42247  0.00269  0.72286  1.0000
  H   H490      1.0  0.49423  0.74801  0.79233  1.0000
  H   H491      1.0  0.46493  0.60613  0.80172  1.0000
  C   C280      1.0  0.23969  0.00492  0.00609  1.0000
  C   C281      1.0  0.36909  0.94698  0.94757  1.0000
  C   C282      1.0  0.38540  0.92323  0.93062  1.0000
  C   C283      1.0  0.39186  0.89453  0.94511  1.0000
  H   H492      1.0  0.36365  0.96910  0.93630  1.0000
  H   H493      1.0  0.40307  0.87560  0.93179  1.0000
  H   H494      1.0  0.26284  0.84113  0.96124  1.0000
  C   C284      1.0  0.49319  0.97629  0.71833  1.0000
  H   H495      1.0  0.48570  0.98064  0.69452  1.0000
  H   H496      1.0  0.49046  0.92926  0.98833  1.0000
  N   N21       1.0  0.26262  0.90910  0.95363  1.0000
  C   C285      1.0  0.49536  0.78636  0.00760  1.0000
  S   S84       1.0  0.46619  0.86875  0.91144  1.0000
  H   H497      1.0  0.43886  0.81725  0.95492  1.0000
  H   H498      1.0  0.40733  0.98468  0.85260  1.0000
  H   H499      1.0  0.30034  0.87912  0.93511  1.0000
  C   C286      1.0  0.46870  0.93504  0.97521  1.0000
  H   H500      1.0  0.47338  0.67257  0.74268  1.0000
  C   C287      1.0  0.50313  0.00137  0.73765  1.0000
  C   C288      1.0  0.38324  0.88996  0.97679  1.0000
  H   H501      1.0  0.39171  0.92968  0.76180  1.0000
  H   H502      1.0  0.46155  0.72488  0.80497  1.0000
  H   H503      1.0  0.44633  0.67569  0.79295  1.0000
  H   H504      1.0  0.25748  0.95786  0.93942  1.0000
  C   C289      1.0  0.44953  0.62593  0.79477  1.0000
  H   H505      1.0  0.46466  0.66193  0.82787  1.0000
  H   H506      1.0  0.19614  0.90288  0.90448  1.0000
  C   C290      1.0  0.41920  0.99874  0.77380  1.0000
  H   H507      1.0  0.27613  0.92780  0.88936  1.0000
  S   S85       1.0  0.45740  0.78454  0.87337  1.0000
  H   H508      1.0  0.19807  0.92633  0.93971  1.0000
  C   C291      1.0  0.44688  0.95847  0.99334  1.0000
  C   C292      1.0  0.08847  0.93217  0.00347  1.0000
  C   C293      1.0  0.23913  0.89453  0.93110  1.0000
  H   H509      1.0  0.32807  0.95978  0.82180  1.0000
  H   H510      1.0  0.36213  0.96777  0.77761  1.0000
  C   C294      1.0  0.45835  0.76987  0.96447  1.0000
  C   C295      1.0  0.29230  0.93680  0.90786  1.0000
  C   C296      1.0  0.17915  0.98703  0.98619  1.0000
  S   S86       1.0  0.50016  0.90013  0.77446  1.0000
  H   H511      1.0  0.36297  0.93784  0.83050  1.0000
  C   C297      1.0  0.43440  0.79689  0.97057  1.0000
  H   H512      1.0  0.48826  0.51883  0.72974  1.0000
  H   H513      1.0  0.49051  0.82639  0.96062  1.0000
  H   H514      1.0  0.25129  0.88452  0.90970  1.0000
  H   H515      1.0  0.44542  0.00023  0.77483  1.0000
  C   C298      1.0  0.48229  0.75117  0.87658  1.0000
  C   C299      1.0  0.42110  0.94781  0.80261  1.0000
  H   H516      1.0  0.46542  0.98584  0.83185  1.0000
  Fe  Fe42      1.0  0.49045  0.89029  0.82613  1.0000
  C   C300      1.0  0.41237  0.98592  0.74031  1.0000
  C   C301      1.0  0.40740  0.92163  0.78072  1.0000
  C   C302      1.0  0.48726  0.69437  0.88547  1.0000
  C   C303      1.0  0.14027  0.00735  0.74240  1.0000
  C   C304      1.0  0.28939  0.88610  0.95822  1.0000
  H   H517      1.0  0.34800  0.96076  0.99245  1.0000
  C   C305      1.0  0.48242  0.72477  0.78872  1.0000
  C   C306      1.0  0.47395  0.00604  0.97469  1.0000
  C   C307      1.0  0.21253  0.91658  0.91980  1.0000
  H   H518      1.0  0.38842  0.86770  0.98792  1.0000
  C   C308      1.0  0.06037  0.92035  0.99062  1.0000
  N   N22       1.0  0.46218  0.98901  0.00365  1.0000
  H   H519      1.0  0.02138  0.99083  0.98375  1.0000
  S   S87       1.0  0.44666  0.53738  0.93316  1.0000
  C   C309      1.0  0.49586  0.66257  0.75177  1.0000
  C   C310      1.0  0.46411  0.65862  0.80165  1.0000
  H   H520      1.0  0.38881  0.00048  0.00768  1.0000
  H   H521      1.0  0.41938  0.93850  0.82706  1.0000
  H   H522      1.0  0.49231  0.60931  0.75136  1.0000
  C   C311      1.0  0.44974  0.00648  0.83578  1.0000
  H   H523      1.0  0.42728  0.90870  0.76888  1.0000
  H   H524      1.0  0.48439  0.92620  0.71489  1.0000
  C   C312      1.0  0.28053  0.85497  0.97474  1.0000
  H   H525      1.0  0.49081  0.71204  0.99539  1.0000
  C   C313      1.0  0.46839  0.72139  0.88134  1.0000
  H   H526      1.0  0.45705  0.76331  0.93892  1.0000
  H   H527      1.0  0.01987  0.89041  0.99840  1.0000
  H   H528      1.0  0.10332  0.94779  0.98975  1.0000
  C   C314      1.0  0.37054  0.97912  0.79967  1.0000
  H   H529      1.0  0.30876  0.89735  0.97192  1.0000
  H   H530      1.0  0.47535  0.94401  0.95148  1.0000
  Fe  Fe43      1.0  0.47293  0.83591  0.86966  1.0000
  H   H531      1.0  0.42452  0.96309  0.73568  1.0000
  H   H532      1.0  0.15597  0.97951  0.97862  1.0000
  H   H533      1.0  0.49743  0.80010  0.92807  1.0000
  S   S88       1.0  0.10199  0.00731  0.94694  1.0000
  C   C315      1.0  0.36794  0.91400  0.99412  1.0000
  H   H534      1.0  0.13676  0.00656  0.79354  1.0000
  H   H535      1.0  0.49629  0.52309  0.98984  1.0000
  N   N23       1.0  0.49221  0.77681  0.97329  1.0000
  H   H536      1.0  0.38676  0.98412  0.73528  1.0000
  C   C316      1.0  0.50099  0.93937  0.76120  1.0000
  H   H537      1.0  0.43383  0.80476  0.99569  1.0000
  Fe  Fe44      1.0  0.14040  0.99631  0.91135  1.0000
  C   C317      1.0  0.49942  0.71546  0.97091  1.0000
  C   C318      1.0  0.50313  0.80431  0.95346  1.0000
  C   C319      1.0  0.20127  0.99791  0.96400  1.0000
  H   H538      1.0  0.45606  0.00586  0.95560  1.0000
  S   S89       1.0  0.19240  0.99890  0.92341  1.0000
  H   H539      1.0  0.47467  0.72341  0.76378  1.0000
  C   C320      1.0  0.12755  0.99668  0.71354  1.0000
  C   C321      1.0  0.24578  0.91649  0.98453  1.0000
  C   C322      1.0  0.12684  0.99812  0.77151  1.0000
  H   H540      1.0  0.22819  0.93573  0.98149  1.0000
  H   H541      1.0  0.23165  0.89589  0.99272  1.0000
  N   N24       1.0  0.49642  0.66494  0.78747  1.0000
  H   H542      1.0  0.48635  0.62779  0.71456  1.0000
  H   H543      1.0  0.03825  0.00586  0.76422  1.0000
  H   H544      1.0  0.36071  0.00356  0.79893  1.0000
  S   S90       1.0  0.50848  0.55045  0.78702  1.0000
  C   C323      1.0  0.50586  0.69820  0.79690  1.0000
  S   S91       1.0  0.14545  0.00882  0.67762  1.0000
  H   H545      1.0  0.27965  0.94947  0.00702  1.0000
  H   H546      1.0  0.95798  0.15026  0.14082  1.0000
  C   C324      1.0  0.77612  0.45425  0.05742  1.0000
  S   S92       1.0  0.58309  0.12037  0.07600  1.0000
  H   H547      1.0  0.94874  0.34274  0.28872  1.0000
  H   H548      1.0  0.95209  0.34196  0.24632  1.0000
  C   C325      1.0  0.95102  0.03420  0.13757  1.0000
  Fe  Fe45      1.0  0.54974  0.08114  0.06231  1.0000
  H   H549      1.0  0.83557  0.45954  0.31745  1.0000
  H   H550      1.0  0.64950  0.38665  0.20535  1.0000
  Fe  Fe46      1.0  0.90133  0.11558  0.08530  1.0000
  S   S93       1.0  0.92141  0.09106  0.12803  1.0000
  S   S94       1.0  0.87580  0.16229  0.08753  1.0000
  H   H551      1.0  0.00032  0.01362  0.31069  1.0000
  C   C326      1.0  0.80041  0.37281  0.04064  1.0000
  Fe  Fe47      1.0  0.64323  0.42983  0.10743  1.0000
  S   S95       1.0  0.61552  0.38503  0.09823  1.0000
  S   S96       1.0  0.67197  0.45104  0.06800  1.0000
  S   S97       1.0  0.68201  0.43260  0.14339  1.0000
  H   H552      1.0  0.93962  0.17848  0.20598  1.0000
  C   C327      1.0  0.80684  0.46588  0.05241  1.0000
  H   H553      1.0  0.84895  0.02564  0.14117  1.0000
  H   H554      1.0  0.56410  0.40511  0.26741  1.0000
  C   C328      1.0  0.68299  0.45945  0.24045  1.0000
  C   C329      1.0  0.69150  0.44636  0.26957  1.0000
  C   C330      1.0  0.68044  0.45972  0.29825  1.0000
  C   C331      1.0  0.62778  0.27055  0.03232  1.0000
  C   C332      1.0  0.00757  0.26703  0.08328  1.0000
  H   H555      1.0  0.69136  0.44881  0.21848  1.0000
  H   H556      1.0  0.70635  0.42554  0.26985  1.0000
  C   C333      1.0  0.99390  0.44287  0.06305  1.0000
  C   C334      1.0  0.56004  0.41373  0.11767  1.0000
  C   C335      1.0  0.57414  0.38889  0.10056  1.0000
  C   C336      1.0  0.55497  0.36633  0.08566  1.0000
  H   H557      1.0  0.57447  0.43097  0.12955  1.0000
  H   H558      1.0  0.56567  0.34735  0.07197  1.0000
  C   C337      1.0  0.84321  0.44527  0.33771  1.0000
  C   C338      1.0  0.61704  0.21724  0.12032  1.0000
  H   H559      1.0  0.94535  0.45983  0.07282  1.0000
  H   H560      1.0  0.73472  0.43484  0.03516  1.0000
  C   C339      1.0  0.54996  0.37762  0.19286  1.0000
  C   C340      1.0  0.59657  0.27382  0.05145  1.0000
  S   S98       1.0  0.68989  0.44119  0.33404  1.0000
  S   S99       1.0  0.76149  0.45081  0.09639  1.0000
  H   H561      1.0  0.61680  0.39272  0.29092  1.0000
  Fe  Fe48      1.0  0.84565  0.14243  0.04829  1.0000
  H   H562      1.0  0.80504  0.39187  0.05826  1.0000
  C   C341      1.0  0.96573  0.13268  0.24021  1.0000
  C   C342      1.0  0.52698  0.41601  0.11995  1.0000
  C   C343      1.0  0.94673  0.15714  0.19205  1.0000
  H   H563      1.0  0.98894  0.35494  0.20105  1.0000
  H   H564      1.0  0.94597  0.11529  0.24036  1.0000
  H   H565      1.0  0.97729  0.47999  0.11494  1.0000
  H   H566      1.0  0.64835  0.28101  0.04448  1.0000
  H   H567      1.0  0.63350  0.19674  0.11907  1.0000
  C   C344      1.0  0.81936  0.46832  0.02160  1.0000
  H   H568      1.0  0.75811  0.41707  0.30645  1.0000
  Fe  Fe49      1.0  0.66179  0.48038  0.15578  1.0000
  H   H569      1.0  0.86199  0.29376  0.03759  1.0000
  H   H570      1.0  0.61249  0.43376  0.28367  1.0000
  C   C345      1.0  0.76083  0.10441  0.05907  1.0000
  C   C346      1.0  0.61461  0.41029  0.27179  1.0000
  S   S100      1.0  0.93760  0.13160  0.04975  1.0000
  C   C347      1.0  0.88770  0.07297  0.22144  1.0000
  C   C348      1.0  0.88539  0.34071  0.03898  1.0000
  C   C349      1.0  0.88538  0.30467  0.03270  1.0000
  H   H571      1.0  0.90276  0.29338  0.04854  1.0000
  C   C350      1.0  0.53754  0.28011  0.08944  1.0000
  Fe  Fe50      1.0  0.90934  0.17645  0.04881  1.0000
  H   H572      1.0  0.97334  0.17960  0.26320  1.0000
  C   C351      1.0  0.97862  0.26215  0.06792  1.0000
  H   H573      1.0  0.54368  0.47746  0.20015  1.0000
  C   C352      1.0  0.52232  0.21014  0.02636  1.0000
  S   S101      1.0  0.95141  0.42732  0.29754  1.0000
  H   H574      1.0  0.92789  0.17825  0.14970  1.0000
  C   C353      1.0  0.73033  0.14914  0.04157  1.0000
  H   H575      1.0  0.62635  0.23386  0.13844  1.0000
  H   H576      1.0  0.63941  0.48206  0.01569  1.0000
  H   H577      1.0  0.82078  0.47355  0.07242  1.0000
  H   H578      1.0  0.62916  0.38261  0.16907  1.0000
  Fe  Fe51      1.0  0.95842  0.06694  0.32708  1.0000
  C   C354      1.0  0.95097  0.16905  0.15797  1.0000
  H   H579      1.0  0.63683  0.40929  0.25768  1.0000
  C   C355      1.0  0.55160  0.41185  0.20560  1.0000
  H   H580      1.0  0.92582  0.14102  0.19221  1.0000
  H   H581      1.0  0.97084  0.02473  0.21464  1.0000
  H   H582      1.0  0.76039  0.45538  0.32356  1.0000
  H   H583      1.0  0.96621  0.18514  0.08638  1.0000
  C   C356      1.0  0.96332  0.33394  0.26837  1.0000
  H   H584      1.0  0.54093  0.30016  0.10623  1.0000
  H   H585      1.0  0.78340  0.09368  0.06427  1.0000
  C   C357      1.0  0.98117  0.11034  0.18917  1.0000
  Fe  Fe52      1.0  0.65271  0.49732  0.08612  1.0000
  S   S102      1.0  0.64956  0.50150  0.20401  1.0000
  H   H586      1.0  0.67950  0.14284  0.04060  1.0000
  Fe  Fe53      1.0  0.61946  0.09403  0.04655  1.0000
  H   H587      1.0  0.65459  0.02349  0.02432  1.0000
  C   C358      1.0  0.95886  0.47991  0.26188  1.0000
  C   C359      1.0  0.60987  0.41971  0.20013  1.0000
  H   H588      1.0  0.95992  0.09471  0.19054  1.0000
  H   H589      1.0  0.55446  0.23283  0.08014  1.0000
  S   S103      1.0  0.69189  0.50613  0.12047  1.0000
  S   S104      1.0  0.52036  0.05189  0.09568  1.0000
  S   S105      1.0  0.79451  0.15830  0.04295  1.0000
  H   H590      1.0  0.86929  0.43001  0.06661  1.0000
  H   H591      1.0  0.72942  0.17315  0.03316  1.0000
  C   C360      1.0  0.58533  0.40234  0.25167  1.0000
  C   C361      1.0  0.98274  0.01125  0.23249  1.0000
  H   H592      1.0  0.77835  0.36085  0.04857  1.0000
  H   H593      1.0  0.79805  0.49269  0.32800  1.0000
  C   C362      1.0  0.56882  0.47964  0.20721  1.0000
  C   C363      1.0  0.86522  0.39376  0.02977  1.0000
  N   N25       1.0  0.53151  0.47307  0.03660  1.0000
  H   H594      1.0  0.86308  0.07631  0.22974  1.0000
  C   C364      1.0  0.75820  0.44439  0.03147  1.0000
  H   H595      1.0  0.83103  0.34089  0.06399  1.0000
  H   H596      1.0  0.53065  0.41565  0.22152  1.0000
  H   H597      1.0  0.88616  0.40126  0.01555  1.0000
  H   H598      1.0  0.00854  0.33241  0.29106  1.0000
  C   C365      1.0  0.92730  0.05034  0.12132  1.0000
  C   C366      1.0  0.52187  0.36855  0.08795  1.0000
  H   H599      1.0  0.65264  0.49705  0.31968  1.0000
  H   H600      1.0  0.64055  0.23581  0.07972  1.0000
  H   H601      1.0  0.84259  0.47838  0.01799  1.0000
  Fe  Fe54      1.0  0.90327  0.11314  0.01398  1.0000
  S   S106      1.0  0.56081  0.19403  0.02260  1.0000
  C   C367      1.0  0.98197  0.06024  0.04064  1.0000
  H   H602      1.0  0.60234  0.28158  0.13278  1.0000
  S   S107      1.0  0.62093  0.47571  0.12249  1.0000
  H   H603      1.0  0.98572  0.12088  0.25226  1.0000
  S   S108      1.0  0.86821  0.09427  0.04948  1.0000
  C   C368      1.0  0.87146  0.40390  0.06435  1.0000
  C   C369      1.0  0.61563  0.23228  0.08735  1.0000
  H   H604      1.0  0.70130  0.50229  0.02687  1.0000
  C   C370      1.0  0.84480  0.04373  0.16001  1.0000
  H   H605      1.0  0.96277  0.30772  0.26914  1.0000
  H   H606      1.0  0.60379  0.42889  0.17648  1.0000
  H   H607      1.0  0.90897  0.04192  0.18677  1.0000
  C   C371      1.0  0.98279  0.02204  0.26399  1.0000
  H   H608      1.0  0.57886  0.26068  0.03711  1.0000
  H   H609      1.0  0.57992  0.48332  0.05018  1.0000
  H   H610      1.0  0.90288  0.07978  0.24168  1.0000
  C   C372      1.0  0.97225  0.48618  0.31708  1.0000
  Fe  Fe55      1.0  0.56822  0.14161  0.02980  1.0000
  C   C373      1.0  0.75982  0.13546  0.04824  1.0000
  Fe  Fe56      1.0  0.70905  0.45798  0.10504  1.0000
  N   N26       1.0  0.85868  0.35906  0.02437  1.0000
  H   H611      1.0  0.59946  0.46484  0.24389  1.0000
  C   C374      1.0  0.97749  0.20804  0.08573  1.0000
  H   H612      1.0  0.00461  0.41176  0.24493  1.0000
  S   S109      1.0  0.66818  0.07872  0.06260  1.0000
  H   H613      1.0  0.96639  0.04699  0.15350  1.0000
  H   H614      1.0  0.56053  0.24713  0.11922  1.0000
  C   C375      1.0  0.99489  0.35882  0.01697  1.0000
  H   H615      1.0  0.99241  0.30489  0.22180  1.0000
  H   H616      1.0  0.59374  0.20771  0.12790  1.0000
  H   H617      1.0  0.54756  0.42673  0.18461  1.0000
  C   C376      1.0  0.70203  0.13205  0.04578  1.0000
  C   C377      1.0  0.89665  0.03916  0.20994  1.0000
  C   C378      1.0  0.55554  0.48444  0.06034  1.0000
  H   H618      1.0  0.64462  0.31693  0.08641  1.0000
  H   H619      1.0  0.82267  0.05630  0.15377  1.0000
  H   H620      1.0  0.61203  0.36651  0.20381  1.0000
  C   C379      1.0  0.64199  0.29846  0.10470  1.0000
  C   C380      1.0  0.00629  0.21299  0.10121  1.0000
  H   H621      1.0  0.85441  0.39317  0.08119  1.0000
  C   C381      1.0  0.57282  0.43110  0.01785  1.0000
  H   H622      1.0  0.58638  0.37669  0.24648  1.0000
  H   H623      1.0  0.89262  0.09024  0.20242  1.0000
  C   C382      1.0  0.98639  0.02560  0.05035  1.0000
  N   N27       1.0  0.58153  0.42167  0.22221  1.0000
  H   H624      1.0  0.51365  0.27020  0.09446  1.0000
  C   C383      1.0  0.96135  0.45534  0.05220  1.0000
  H   H625      1.0  0.95002  0.46548  0.24257  1.0000
  H   H626      1.0  0.57190  0.50399  0.21694  1.0000
  C   C384      1.0  0.56252  0.25389  0.09395  1.0000
  N   N28       1.0  0.97484  0.14112  0.20665  1.0000
  C   C385      1.0  0.73250  0.08739  0.06353  1.0000
  C   C386      1.0  0.82769  0.34849  0.03910  1.0000
  H   H627      1.0  0.55879  0.45774  0.25185  1.0000
  C   C387      1.0  0.99750  0.34628  0.27181  1.0000
  S   S110      1.0  0.58714  0.05304  0.03672  1.0000
  H   H628      1.0  0.55547  0.46874  0.08125  1.0000
  H   H629      1.0  0.88881  0.04555  0.08874  1.0000
  H   H630      1.0  0.98938  0.43185  0.08646  1.0000
  C   C388      1.0  0.99513  0.49884  0.11152  1.0000
  C   C389      1.0  0.53869  0.43876  0.02896  1.0000
  C   C390      1.0  0.96376  0.23253  0.06881  1.0000
  H   H631      1.0  0.65877  0.27895  0.09976  1.0000
  H   H632      1.0  0.62899  0.43561  0.20870  1.0000
  H   H633      1.0  0.96811  0.28113  0.05473  1.0000
  H   H634      1.0  0.00521  0.22955  0.33627  1.0000
  H   H635      1.0  0.88518  0.34375  0.06519  1.0000
  H   H636      1.0  0.79177  0.44058  0.29717  1.0000
  C   C391      1.0  0.57740  0.45569  0.23299  1.0000
  H   H637      1.0  0.93199  0.16964  0.25662  1.0000
  C   C392      1.0  0.62549  0.38689  0.19486  1.0000
  H   H638      1.0  0.58448  0.47766  0.18609  1.0000
  S   S111      1.0  0.87810  0.15947  0.00954  1.0000
  H   H639      1.0  0.94957  0.43648  0.03806  1.0000
  C   C393      1.0  0.96148  0.46715  0.29208  1.0000
  S   S112      1.0  0.53191  0.10443  0.01858  1.0000
  N   N29       1.0  0.59628  0.26217  0.08512  1.0000
  H   H640      1.0  0.00082  0.42312  0.04672  1.0000
  H   H641      1.0  0.89597  0.39770  0.07121  1.0000
  H   H642      1.0  0.56738  0.37341  0.17343  1.0000
  H   H643      1.0  0.58942  0.29911  0.05062  1.0000
  C   C394      1.0  0.66332  0.48600  0.23990  1.0000
  H   H644      1.0  0.82831  0.03655  0.25841  1.0000
  H   H645      1.0  0.96560  0.01913  0.06519  1.0000
  S   S113      1.0  0.96170  0.05653  0.27455  1.0000
  H   H646      1.0  0.73342  0.06347  0.07217  1.0000
  C   C395      1.0  0.90752  0.03354  0.10086  1.0000
  C   C396      1.0  0.70304  0.10116  0.05697  1.0000
  H   H647      1.0  0.72817  0.50874  0.05838  1.0000
  H   H648      1.0  0.58983  0.43291  0.03764  1.0000
  H   H649      1.0  0.88846  0.46942  0.33166  1.0000
  C   C397      1.0  0.00320  0.16282  0.20771  1.0000
  H   H650      1.0  0.98207  0.07542  0.06231  1.0000
  H   H651      1.0  0.00137  0.06858  0.02498  1.0000
  C   C398      1.0  0.60724  0.28772  0.10768  1.0000
  H   H652      1.0  0.96781  0.18911  0.15691  1.0000
  H   H653      1.0  0.64960  0.30873  0.12773  1.0000
  H   H654      1.0  0.96204  0.47645  0.03715  1.0000
  C   C399      1.0  0.77498  0.43460  0.31648  1.0000
  C   C400      1.0  0.84056  0.02864  0.19285  1.0000
  H   H655      1.0  0.60636  0.21394  0.07064  1.0000
  S   S114      1.0  0.92951  0.22586  0.04658  1.0000
  H   H656      1.0  0.59309  0.30960  0.10460  1.0000
  H   H657      1.0  0.99283  0.20043  0.01877  1.0000
  H   H658      1.0  0.99573  0.37071  0.28150  1.0000
  H   H659      1.0  0.51617  0.43537  0.13313  1.0000
  H   H660      1.0  0.98478  0.11355  0.16346  1.0000
  H   H661      1.0  0.96665  0.39390  0.23776  1.0000
  H   H662      1.0  0.79541  0.38362  0.01762  1.0000
  H   H663      1.0  0.53372  0.42372  0.04982  1.0000
  H   H664      1.0  0.53690  0.28889  0.06488  1.0000
  H   H665      1.0  0.55244  0.35981  0.21159  1.0000
  H   H666      1.0  0.00646  0.02550  0.06690  1.0000
  H   H667      1.0  0.97736  0.34465  0.02913  1.0000
  H   H668      1.0  0.81853  0.32710  0.02656  1.0000
  H   H669      1.0  0.86881  0.04091  0.27240  1.0000
  H   H670      1.0  0.80086  0.39653  0.33747  1.0000
  C   C401      1.0  0.95568  0.16024  0.26253  1.0000
  H   H671      1.0  0.86416  0.06138  0.15949  1.0000
  H   H672      1.0  0.95352  0.15118  0.28704  1.0000
  H   H673      1.0  0.82902  0.04663  0.20826  1.0000
  H   H674      1.0  0.95874  0.06402  0.02935  1.0000
  C   C402      1.0  0.66126  0.48661  0.29771  1.0000
  C   C403      1.0  0.85021  0.02396  0.26493  1.0000
  N   N30       1.0  0.87026  0.01528  0.20708  1.0000
  C   C404      1.0  0.51688  0.24104  0.01606  1.0000
  H   H675      1.0  0.99567  0.18718  0.21476  1.0000
  C   C405      1.0  0.65273  0.49967  0.26860  1.0000
  H   H676      1.0  0.98732  0.41338  0.20678  1.0000
  H   H677      1.0  0.84563  0.40865  0.02125  1.0000
  H   H678      1.0  0.91516  0.03033  0.22614  1.0000
  H   H679      1.0  0.90879  0.34984  0.03082  1.0000
  C   C406      1.0  0.99058  0.39807  0.22763  1.0000
  H   H680      1.0  0.63271  0.24538  0.02617  1.0000
  H   H681      1.0  0.85138  0.42251  0.32674  1.0000
  H   H682      1.0  0.00472  0.08045  0.22432  1.0000
  H   H683      1.0  0.52627  0.37378  0.18224  1.0000
  H   H684      1.0  0.97427  0.47654  0.34048  1.0000
  C   C407      1.0  0.00648  0.36682  0.21671  1.0000
  H   H685      1.0  0.00781  0.50744  0.01271  1.0000
  H   H686      1.0  0.84421  0.01002  0.28627  1.0000
  H   H687      1.0  0.82222  0.00982  0.19044  1.0000
  H   H688      1.0  0.52300  0.42961  0.00991  1.0000
  H   H689      1.0  0.62524  0.28306  0.00955  1.0000
  H   H690      1.0  0.69487  0.44561  0.57202  1.0000
  Fe  Fe57      1.0  0.00629  0.40205  0.40051  1.0000
  C   C408      1.0  0.98302  0.15362  0.47413  1.0000
  Fe  Fe58      1.0  0.93744  0.11968  0.37220  1.0000
  H   H691      1.0  0.88698  0.44508  0.36565  1.0000
  S   S115      1.0  0.97968  0.36146  0.42194  1.0000
  H   H692      1.0  0.79994  0.38829  0.57951  1.0000
  H   H693      1.0  0.79055  0.42611  0.42151  1.0000
  S   S116      1.0  0.60005  0.39783  0.61957  1.0000
  Fe  Fe59      1.0  0.65528  0.44368  0.44845  1.0000
  H   H694      1.0  0.55184  0.46240  0.46482  1.0000
  S   S117      1.0  0.62934  0.40373  0.47248  1.0000
  Fe  Fe60      1.0  0.67815  0.46303  0.38210  1.0000
  H   H695      1.0  0.93515  0.02360  0.46202  1.0000
  Fe  Fe61      1.0  0.71620  0.48195  0.44002  1.0000
  N   N31       1.0  0.81659  0.43937  0.36107  1.0000
  H   H696      1.0  0.55407  0.49015  0.66994  1.0000
  S   S118      1.0  0.70018  0.43516  0.42091  1.0000
  S   S119      1.0  0.63143  0.46771  0.40806  1.0000
  Fe  Fe62      1.0  0.93645  0.38959  0.40953  1.0000
  S   S120      1.0  0.89383  0.40158  0.44030  1.0000
  H   H697      1.0  0.98565  0.15863  0.49985  1.0000
  Fe  Fe63      1.0  0.89559  0.46079  0.61323  1.0000
  S   S121      1.0  0.88673  0.50657  0.58903  1.0000
  S   S122      1.0  0.92027  0.42102  0.58675  1.0000
  H   H698      1.0  0.94268  0.15993  0.44167  1.0000
  S   S123      1.0  0.84683  0.45744  0.63511  1.0000
  H   H699      1.0  0.98810  0.06123  0.51980  1.0000
  C   C409      1.0  0.80637  0.49428  0.50265  1.0000
  H   H700      1.0  0.73264  0.41006  0.59121  1.0000
  S   S124      1.0  0.51880  0.41676  0.64947  1.0000
  H   H701      1.0  0.57307  0.46465  0.64173  1.0000
  C   C410      1.0  0.52774  0.44726  0.56439  1.0000
  H   H702      1.0  0.69794  0.47698  0.54437  1.0000
  H   H703      1.0  0.95653  0.46537  0.50859  1.0000
  H   H704      1.0  0.96727  0.48864  0.59253  1.0000
  C   C411      1.0  0.52600  0.23798  0.62751  1.0000
  C   C412      1.0  0.79989  0.49819  0.35350  1.0000
  H   H705      1.0  0.54401  0.43675  0.58184  1.0000
  H   H706      1.0  0.53919  0.25903  0.62146  1.0000
  C   C413      1.0  0.97966  0.45334  0.50591  1.0000
  H   H707      1.0  0.98682  0.06749  0.46154  1.0000
  S   S125      1.0  0.91793  0.48339  0.65624  1.0000
  S   S126      1.0  0.54438  0.06381  0.64479  1.0000
  H   H708      1.0  0.93225  0.14893  0.48071  1.0000
  C   C414      1.0  0.90078  0.40640  0.48114  1.0000
  C   C415      1.0  0.92361  0.38827  0.49624  1.0000
  C   C416      1.0  0.92849  0.39217  0.52890  1.0000
  C   C417      1.0  0.91149  0.41503  0.54642  1.0000
  C   C418      1.0  0.88858  0.43314  0.53134  1.0000
  C   C419      1.0  0.88293  0.42848  0.49886  1.0000
  H   H709      1.0  0.93719  0.37091  0.48285  1.0000
  H   H710      1.0  0.94608  0.37792  0.54049  1.0000
  H   H711      1.0  0.87513  0.45059  0.54469  1.0000
  H   H712      1.0  0.86507  0.44234  0.48729  1.0000
  H   H713      1.0  0.65837  0.48365  0.66715  1.0000
  Fe  Fe64      1.0  0.53157  0.02792  0.60767  1.0000
  Fe  Fe65      1.0  0.92337  0.05054  0.38756  1.0000
  C   C420      1.0  0.80284  0.46936  0.37542  1.0000
  C   C421      1.0  0.98344  0.44508  0.47054  1.0000
  C   C422      1.0  0.96973  0.49119  0.56651  1.0000
  S   S127      1.0  0.94571  0.09022  0.41508  1.0000
  H   H714      1.0  0.77140  0.41486  0.36208  1.0000
  H   H715      1.0  0.97664  0.43064  0.51854  1.0000
  C   C423      1.0  0.87280  0.46169  0.35142  1.0000
  H   H716      1.0  0.76923  0.37762  0.46771  1.0000
  C   C424      1.0  0.60646  0.40075  0.57851  1.0000
  C   C425      1.0  0.59265  0.37918  0.55750  1.0000
  C   C426      1.0  0.59991  0.38045  0.52503  1.0000
  C   C427      1.0  0.62035  0.40373  0.51328  1.0000
  C   C428      1.0  0.63326  0.42606  0.53416  1.0000
  C   C429      1.0  0.62660  0.42433  0.56677  1.0000
  H   H717      1.0  0.57715  0.36088  0.56636  1.0000
  H   H718      1.0  0.58976  0.36318  0.50897  1.0000
  H   H719      1.0  0.64860  0.44437  0.52518  1.0000
  H   H720      1.0  0.63701  0.44129  0.58295  1.0000
  C   C430      1.0  0.94213  0.26045  0.37665  1.0000
  H   H721      1.0  0.00368  0.13419  0.41765  1.0000
  S   S128      1.0  0.91602  0.16828  0.37943  1.0000
  H   H722      1.0  0.93280  0.28282  0.38527  1.0000
  H   H723      1.0  0.94437  0.18856  0.47420  1.0000
  H   H724      1.0  0.73041  0.46943  0.56986  1.0000
  C   C431      1.0  0.54734  0.45753  0.53523  1.0000
  H   H725      1.0  0.00054  0.45090  0.56657  1.0000
  H   H726      1.0  0.68569  0.38290  0.58762  1.0000
  C   C432      1.0  0.55162  0.48231  0.48244  1.0000
  H   H727      1.0  0.68721  0.38659  0.54590  1.0000
  S   S129      1.0  0.00760  0.38074  0.35186  1.0000
  H   H728      1.0  0.82645  0.41729  0.56470  1.0000
  H   H729      1.0  0.96669  0.21303  0.43248  1.0000
  H   H730      1.0  0.59874  0.46581  0.49584  1.0000
  S   S130      1.0  0.76795  0.48555  0.45199  1.0000
  H   H731      1.0  0.74969  0.37452  0.57791  1.0000
  C   C433      1.0  0.79116  0.41993  0.34524  1.0000
  H   H732      1.0  0.81259  0.38745  0.53825  1.0000
  H   H733      1.0  0.51356  0.43069  0.49032  1.0000
  H   H734      1.0  0.79143  0.40674  0.48884  1.0000
  H   H735      1.0  0.70318  0.35200  0.56338  1.0000
  C   C434      1.0  0.51468  0.50519  0.52299  1.0000
  Fe  Fe66      1.0  0.97736  0.34212  0.37205  1.0000
  H   H736      1.0  0.97524  0.17994  0.34563  1.0000
  H   H737      1.0  0.58499  0.17275  0.66176  1.0000
  C   C435      1.0  0.80630  0.40725  0.41199  1.0000
  C   C436      1.0  0.94892  0.16372  0.46676  1.0000
  H   H738      1.0  0.95048  0.02291  0.50075  1.0000
  S   S131      1.0  0.52961  0.14461  0.60498  1.0000
  H   H739      1.0  0.99340  0.46474  0.45656  1.0000
  H   H740      1.0  0.54297  0.50307  0.46933  1.0000
  H   H741      1.0  0.52788  0.15715  0.52511  1.0000
  H   H742      1.0  0.75266  0.41603  0.47360  1.0000
  Fe  Fe67      1.0  0.55265  0.37815  0.63530  1.0000
  C   C437      1.0  0.93726  0.20313  0.37107  1.0000
  S   S132      1.0  0.96897  0.03312  0.36617  1.0000
  C   C438      1.0  0.92524  0.23232  0.38192  1.0000
  C   C439      1.0  0.65086  0.45898  0.66248  1.0000
  C   C440      1.0  0.97104  0.25952  0.36022  1.0000
  C   C441      1.0  0.83018  0.41980  0.38731  1.0000
  H   H743      1.0  0.95987  0.43903  0.46079  1.0000
  N   N32       1.0  0.74694  0.40989  0.54158  1.0000
  C   C442      1.0  0.77796  0.42527  0.55028  1.0000
  C   C443      1.0  0.72493  0.43529  0.53012  1.0000
  C   C444      1.0  0.75146  0.38552  0.51561  1.0000
  C   C445      1.0  0.73359  0.39370  0.57032  1.0000
  C   C446      1.0  0.80537  0.40282  0.55854  1.0000
  C   C447      1.0  0.71150  0.45790  0.55589  1.0000
  C   C448      1.0  0.76716  0.39760  0.48494  1.0000
  C   C449      1.0  0.70069  0.37802  0.56632  1.0000
  H   H744      1.0  0.78668  0.44046  0.53086  1.0000
  H   H745      1.0  0.77485  0.44157  0.57098  1.0000
  H   H746      1.0  0.70460  0.42515  0.51688  1.0000
  H   H747      1.0  0.73711  0.45034  0.51241  1.0000
  H   H748      1.0  0.76549  0.36506  0.52398  1.0000
  H   H749      1.0  0.72825  0.37523  0.50856  1.0000
  N   N33       1.0  0.52976  0.47527  0.51012  1.0000
  H   H750      1.0  0.77887  0.46472  0.38567  1.0000
  C   C450      1.0  0.58918  0.14795  0.66869  1.0000
  Fe  Fe68      1.0  0.99056  0.07526  0.39043  1.0000
  H   H751      1.0  0.94820  0.48021  0.55658  1.0000
  Fe  Fe69      1.0  0.96207  0.40644  0.34475  1.0000
  C   C451      1.0  0.53418  0.20860  0.61373  1.0000
  S   S133      1.0  0.96333  0.43160  0.39160  1.0000
  H   H752      1.0  0.55816  0.43572  0.52470  1.0000
  H   H753      1.0  0.82442  0.48273  0.48828  1.0000
  S   S134      1.0  0.99316  0.29410  0.35322  1.0000
  S   S135      1.0  0.93154  0.36657  0.36142  1.0000
  C   C452      1.0  0.00059  0.47477  0.55565  1.0000
  H   H754      1.0  0.90291  0.23315  0.39473  1.0000
  H   H755      1.0  0.00120  0.23567  0.42134  1.0000
  C   C453      1.0  0.00555  0.16031  0.42070  1.0000
  H   H756      1.0  0.98416  0.12743  0.47122  1.0000
  H   H757      1.0  0.55369  0.20718  0.59694  1.0000
  H   H758      1.0  0.81966  0.39763  0.43221  1.0000
  H   H759      1.0  0.59102  0.50604  0.50830  1.0000
  C   C454      1.0  0.51768  0.18105  0.62197  1.0000
  H   H760      1.0  0.99845  0.42374  0.46731  1.0000
  S   S136      1.0  0.67335  0.48801  0.47150  1.0000
  H   H761      1.0  0.97966  0.24523  0.45620  1.0000
  S   S137      1.0  0.98422  0.10788  0.34935  1.0000
  H   H762      1.0  0.56748  0.47147  0.54463  1.0000
  H   H763      1.0  0.98324  0.16940  0.41089  1.0000
  H   H764      1.0  0.83508  0.49628  0.54441  1.0000
  H   H765      1.0  0.84776  0.43375  0.40110  1.0000
  C   C455      1.0  0.58690  0.48814  0.48955  1.0000
  H   H766      1.0  0.79198  0.38750  0.40221  1.0000
  H   H767      1.0  0.59546  0.49435  0.66121  1.0000
  H   H768      1.0  0.86666  0.48281  0.36602  1.0000
  C   C456      1.0  0.57638  0.47699  0.66485  1.0000
  H   H769      1.0  0.63277  0.45783  0.64375  1.0000
  C   C457      1.0  0.98808  0.22492  0.44143  1.0000
  C   C458      1.0  0.96605  0.20224  0.35444  1.0000
  H   H770      1.0  0.81753  0.47756  0.39571  1.0000
  H   H771      1.0  0.61393  0.14218  0.66155  1.0000
  N   N34       1.0  0.00640  0.47187  0.52045  1.0000
  H   H772      1.0  0.67195  0.44646  0.65255  1.0000
  H   H773      1.0  0.84345  0.39898  0.37752  1.0000
  Fe  Fe70      1.0  0.83977  0.50527  0.61400  1.0000
  H   H774      1.0  0.59892  0.49648  0.46776  1.0000
  S   S138      1.0  0.88842  0.01888  0.41241  1.0000
  S   S139      1.0  0.91083  0.08123  0.34675  1.0000
  H   H775      1.0  0.00533  0.20959  0.48674  1.0000
  C   C459      1.0  0.98289  0.23035  0.34907  1.0000
  C   C460      1.0  0.77640  0.49980  0.49002  1.0000
  S   S140      1.0  0.51652  0.34827  0.60992  1.0000
  C   C461      1.0  0.81243  0.50197  0.53438  1.0000
  H   H776      1.0  0.57383  0.13187  0.65480  1.0000
  H   H777      1.0  0.51569  0.46737  0.57650  1.0000
  Fe  Fe71      1.0  0.51161  0.09648  0.61967  1.0000
  C   C462      1.0  0.00921  0.06511  0.47322  1.0000
  N   N35       1.0  0.00927  0.16888  0.45523  1.0000
  H   H778      1.0  0.51036  0.42850  0.55843  1.0000
  H   H779      1.0  0.96953  0.50385  0.69637  1.0000
  H   H780      1.0  0.60461  0.15595  0.71656  1.0000
  H   H781      1.0  0.62764  0.44039  0.75646  1.0000
  S   S141      1.0  0.56566  0.05600  0.94592  1.0000
  H   H782      1.0  0.55969  0.11398  0.79235  1.0000
  H   H783      1.0  0.95625  0.02532  0.99398  1.0000
  C   C463      1.0  0.96728  0.05806  0.93769  1.0000
  S   S142      1.0  0.54693  0.35175  0.68079  1.0000
  H   H784      1.0  0.87176  0.47744  0.84111  1.0000
  S   S143      1.0  0.90337  0.46512  0.98912  1.0000
  H   H785      1.0  0.53331  0.10106  0.76220  1.0000
  H   H786      1.0  0.98945  0.25314  0.97043  1.0000
  S   S144      1.0  0.91768  0.08106  0.97308  1.0000
  H   H787      1.0  0.95059  0.45219  0.78091  1.0000
  C   C464      1.0  0.58522  0.14277  0.70459  1.0000
  S   S145      1.0  0.89304  0.42522  0.92234  1.0000
  C   C465      1.0  0.63942  0.04339  0.90663  1.0000
  H   H788      1.0  0.81122  0.36189  0.97283  1.0000
  H   H789      1.0  0.83838  0.48430  0.79363  1.0000
  Fe  Fe72      1.0  0.92944  0.42832  0.96048  1.0000
  S   S146      1.0  0.94488  0.38484  0.98650  1.0000
  H   H790      1.0  0.63495  0.41710  0.68451  1.0000
  H   H791      1.0  0.88353  0.35682  0.97930  1.0000
  C   C466      1.0  0.55942  0.01487  0.94320  1.0000
  C   C467      1.0  0.99805  0.08330  0.84932  1.0000
  H   H792      1.0  0.94809  0.17771  0.99232  1.0000
  C   C468      1.0  0.85946  0.35208  0.98923  1.0000
  H   H793      1.0  0.53564  0.10432  0.70649  1.0000
  H   H794      1.0  0.99885  0.46713  0.99973  1.0000
  H   H795      1.0  0.56067  0.45279  0.70656  1.0000
  C   C469      1.0  0.92612  0.45939  0.78368  1.0000
  H   H796      1.0  0.59060  0.11737  0.70839  1.0000
  C   C470      1.0  0.97834  0.10512  0.96872  1.0000
  H   H797      1.0  0.69603  0.04974  0.00285  1.0000
  C   C471      1.0  0.98537  0.38056  0.99424  1.0000
  C   C472      1.0  0.62099  0.49675  0.97081  1.0000
  C   C473      1.0  0.86292  0.47739  0.79076  1.0000
  H   H798      1.0  0.52412  0.47750  0.98629  1.0000
  H   H799      1.0  0.96103  0.50762  0.75619  1.0000
  H   H800      1.0  0.65671  0.03190  0.89021  1.0000
  S   S147      1.0  0.93858  0.46112  0.84715  1.0000
  H   H801      1.0  0.71142  0.47018  0.94320  1.0000
  H   H802      1.0  0.58941  0.49647  0.76371  1.0000
  H   H803      1.0  0.58594  0.44472  0.75361  1.0000
  Fe  Fe73      1.0  0.86907  0.46499  0.94910  1.0000
  H   H804      1.0  0.58061  0.44615  0.99799  1.0000
  C   C474      1.0  0.60322  0.40061  0.73596  1.0000
  C   C475      1.0  0.90736  0.46351  0.75673  1.0000
  C   C476      1.0  0.61854  0.48901  0.72049  1.0000
  H   H805      1.0  0.62590  0.06077  0.89267  1.0000
  Fe  Fe74      1.0  0.92093  0.46346  0.89821  1.0000
  H   H806      1.0  0.99109  0.03390  0.81279  1.0000
  C   C477      1.0  0.83579  0.37020  0.96881  1.0000
  Fe  Fe75      1.0  0.93044  0.50011  0.96015  1.0000
  C   C478      1.0  0.99709  0.19335  0.99368  1.0000
  H   H807      1.0  0.97059  0.12313  0.98538  1.0000
  S   S148      1.0  0.85123  0.47875  0.72717  1.0000
  C   C479      1.0  0.55538  0.14780  0.75428  1.0000
  C   C480      1.0  0.80157  0.45825  0.99566  1.0000
  C   C481      1.0  0.52707  0.45654  0.78316  1.0000
  H   H808      1.0  0.91729  0.45933  0.73334  1.0000
  H   H809      1.0  0.57710  0.15953  0.76346  1.0000
  C   C482      1.0  0.71346  0.08420  0.97061  1.0000
  H   H810      1.0  0.67315  0.07737  0.92242  1.0000
  H   H811      1.0  0.53825  0.43933  0.79804  1.0000
  H   H812      1.0  0.71101  0.03532  0.92386  1.0000
  C   C483      1.0  0.95704  0.08176  0.95893  1.0000
  H   H813      1.0  0.83743  0.39617  0.97184  1.0000
  C   C484      1.0  0.52869  0.12965  0.70493  1.0000
  H   H814      1.0  0.63799  0.07660  0.94585  1.0000
  C   C485      1.0  0.52581  0.48828  0.79305  1.0000
  H   H815      1.0  0.70472  0.10298  0.95492  1.0000
  H   H816      1.0  0.54029  0.18772  0.68594  1.0000
  C   C486      1.0  0.63987  0.44178  0.69257  1.0000
  H   H817      1.0  0.98469  0.06206  0.85687  1.0000
  S   S149      1.0  0.95947  0.46322  0.93462  1.0000
  H   H818      1.0  0.95308  0.21640  0.97742  1.0000
  H   H819      1.0  0.56863  0.50417  0.72737  1.0000
  H   H820      1.0  0.96499  0.18202  0.95389  1.0000
  H   H821      1.0  0.73291  0.07078  0.95885  1.0000
  S   S150      1.0  0.89402  0.50335  0.92187  1.0000
  Fe  Fe76      1.0  0.57203  0.07901  0.99397  1.0000
  H   H822      1.0  0.53561  0.16034  0.76676  1.0000
  C   C487      1.0  0.60731  0.43664  0.74021  1.0000
  H   H823      1.0  0.66768  0.07809  0.99303  1.0000
  C   C488      1.0  0.55606  0.11352  0.76635  1.0000
  C   C489      1.0  0.53391  0.49158  0.00637  1.0000
  N   N36       1.0  0.67230  0.04062  0.95794  1.0000
  C   C490      1.0  0.56833  0.21043  0.72175  1.0000
  H   H824      1.0  0.98459  0.09614  0.83119  1.0000
  H   H825      1.0  0.53618  0.49533  0.81530  1.0000
  H   H826      1.0  0.75734  0.43793  0.98074  1.0000
  H   H827      1.0  0.66070  0.44047  0.70849  1.0000
  C   C491      1.0  0.77106  0.44607  0.00071  1.0000
  H   H828      1.0  0.57569  0.09955  0.75559  1.0000
  N   N37       1.0  0.55337  0.15128  0.71886  1.0000
  H   H829      1.0  0.95091  0.03987  0.93010  1.0000
  H   H830      1.0  0.84137  0.36519  0.94347  1.0000
  H   H831      1.0  0.72412  0.09654  0.99124  1.0000
  H   H832      1.0  0.62539  0.47419  0.95919  1.0000
  C   C492      1.0  0.87569  0.47271  0.76021  1.0000
  C   C493      1.0  0.65609  0.06109  0.93399  1.0000
  H   H833      1.0  0.55916  0.49558  0.99988  1.0000
  C   C494      1.0  0.99868  0.05751  0.92648  1.0000
  H   H834      1.0  0.99656  0.07983  0.77941  1.0000
  S   S151      1.0  0.81602  0.46204  0.95665  1.0000
  H   H835      1.0  0.00294  0.21699  0.93092  1.0000
  S   S152      1.0  0.60731  0.11808  0.00128  1.0000
  C   C495      1.0  0.58202  0.45224  0.69091  1.0000
  C   C496      1.0  0.96420  0.19270  0.97800  1.0000
  H   H836      1.0  0.62204  0.02572  0.91503  1.0000
  H   H837      1.0  0.51930  0.01466  0.78418  1.0000
  C   C497      1.0  0.88174  0.47344  0.81770  1.0000
  H   H838      1.0  0.62488  0.03371  0.97688  1.0000
  H   H839      1.0  0.52135  0.19121  0.72314  1.0000
  H   H840      1.0  0.00622  0.03913  0.91015  1.0000
  H   H841      1.0  0.59136  0.20781  0.70914  1.0000
  H   H842      1.0  0.59667  0.39029  0.75917  1.0000
  H   H843      1.0  0.58381  0.39466  0.71960  1.0000
  C   C498      1.0  0.68644  0.06260  0.98242  1.0000
  C   C499      1.0  0.91347  0.46454  0.81423  1.0000
  H   H844      1.0  0.57195  0.21082  0.74769  1.0000
  C   C500      1.0  0.62889  0.50115  0.00278  1.0000
  H   H845      1.0  0.00100  0.41502  0.96050  1.0000
  H   H846      1.0  0.85475  0.32665  0.98425  1.0000
  H   H847      1.0  0.62548  0.38890  0.72801  1.0000
  N   N38       1.0  0.61167  0.45540  0.71027  1.0000
  H   H848      1.0  0.68511  0.49879  0.95968  1.0000
  C   C501      1.0  0.54438  0.18485  0.71161  1.0000
  H   H849      1.0  0.52677  0.13337  0.67902  1.0000
  H   H850      1.0  0.53552  0.25381  0.00406  1.0000
  S   S153      1.0  0.51471  0.40649  0.74412  1.0000
  H   H851      1.0  0.55874  0.23396  0.71538  1.0000
  C   C502      1.0  0.64715  0.02001  0.97290  1.0000
  C   C503      1.0  0.69689  0.02083  0.94073  1.0000
  H   H852      1.0  0.64020  0.48986  0.73534  1.0000
  C   C504      1.0  0.70882  0.48819  0.96245  1.0000
  H   H853      1.0  0.99899  0.02198  0.75781  1.0000
  H   H854      1.0  0.71046  0.47512  0.98480  1.0000
  H   H855      1.0  0.99941  0.09907  0.87052  1.0000
  H   H856      1.0  0.75797  0.49902  0.96015  1.0000
  H   H857      1.0  0.99959  0.48741  0.72025  1.0000
  H   H858      1.0  0.54682  0.01675  0.89403  1.0000
  H   H859      1.0  0.62443  0.50440  0.70038  1.0000
  H   H860      1.0  0.72573  0.01307  0.98408  1.0000
  H   H861      1.0  0.58118  0.42852  0.67927  1.0000
  C   C505      1.0  0.00813  0.39856  0.97838  1.0000
  C   C506      1.0  0.59176  0.50579  0.73939  1.0000
  Fe  Fe77      1.0  0.86840  0.48367  0.67645  1.0000
  C   C507      1.0  0.51415  0.44700  0.75419  1.0000
  H   H862      1.0  0.52298  0.42228  0.85790  1.0000
  H   H863      1.0  0.00554  0.16846  0.99447  1.0000
  C   C508      1.0  0.50989  0.40038  0.85153  1.0000
  H   H864      1.0  0.52321  0.38044  0.86184  1.0000
  Fe  Fe78      1.0  0.51080  0.38882  0.69344  1.0000
  H   H865      1.0  0.89320  0.29886  0.00813  1.0000
  H   H866      1.0  0.51013  0.39696  0.82549  1.0000
  H   H867      1.0  0.57377  0.40616  0.00931  1.0000
  H   H868      1.0  0.00407  0.25265  0.00870  1.0000
  S   S154      1.0  0.63411  0.53746  0.05719  1.0000
  C   C509      1.0  0.95946  0.65924  0.04014  1.0000
  H   H869      1.0  0.95143  0.70880  0.04527  1.0000
  H   H870      1.0  0.94967  0.70698  0.12890  1.0000
  C   C510      1.0  0.99154  0.72768  0.09230  1.0000
  H   H871      1.0  0.90622  0.52657  0.02478  1.0000
  S   S155      1.0  0.93800  0.94366  0.10748  1.0000
  H   H872      1.0  0.91725  0.95285  0.17671  1.0000
  H   H873      1.0  0.99743  0.97437  0.19974  1.0000
  C   C511      1.0  0.00164  0.67128  0.09714  1.0000
  Fe  Fe79      1.0  0.97889  0.58465  0.15555  1.0000
  S   S156      1.0  0.93587  0.57573  0.12572  1.0000
  H   H874      1.0  0.93710  0.86077  0.24154  1.0000
  H   H875      1.0  0.98732  0.58930  0.08187  1.0000
  H   H876      1.0  0.91420  0.66029  0.12920  1.0000
  C   C512      1.0  0.93835  0.65938  0.11852  1.0000
  H   H877      1.0  0.00316  0.95254  0.01770  1.0000
  H   H878      1.0  0.96441  0.52114  0.23333  1.0000
  H   H879      1.0  0.91023  0.81045  0.28031  1.0000
  C   C513      1.0  0.93044  0.79380  0.27947  1.0000
  H   H880      1.0  0.88382  0.99011  0.24915  1.0000
  H   H881      1.0  0.97731  0.64061  0.04420  1.0000
  H   H882      1.0  0.86149  0.97175  0.18054  1.0000
  S   S157      1.0  0.99165  0.56924  0.27420  1.0000
  H   H883      1.0  0.93729  0.78673  0.30361  1.0000
  C   C514      1.0  0.95483  0.00140  0.13334  1.0000
  H   H884      1.0  0.96973  0.90605  0.24854  1.0000
  Fe  Fe80      1.0  0.99356  0.85267  0.15714  1.0000
  C   C515      1.0  0.91949  0.54804  0.06932  1.0000
  C   C516      1.0  0.94233  0.56574  0.08561  1.0000
  C   C517      1.0  0.96964  0.57564  0.06958  1.0000
  H   H885      1.0  0.92183  0.77196  0.26743  1.0000
  C   C518      1.0  0.94684  0.86297  0.26592  1.0000
  H   H886      1.0  0.75742  0.54899  0.02771  1.0000
  H   H887      1.0  0.00132  0.72964  0.11652  1.0000
  C   C519      1.0  0.96746  0.51138  0.25647  1.0000
  H   H888      1.0  0.63549  0.98836  0.01133  1.0000
  H   H889      1.0  0.92692  0.70239  0.09412  1.0000
  H   H890      1.0  0.98939  0.53229  0.33096  1.0000
  C   C520      1.0  0.62348  0.53040  0.01770  1.0000
  C   C521      1.0  0.97035  0.69199  0.05200  1.0000
  H   H891      1.0  0.95611  0.66006  0.01412  1.0000
  H   H892      1.0  0.94877  0.75575  0.10543  1.0000
  H   H893      1.0  0.98213  0.77820  0.09320  1.0000
  H   H894      1.0  0.97304  0.98904  0.14599  1.0000
  H   H895      1.0  0.00697  0.62480  0.32716  1.0000
  S   S158      1.0  0.99599  0.87365  0.10863  1.0000
  C   C522      1.0  0.93476  0.98468  0.11299  1.0000
  C   C523      1.0  0.99482  0.71497  0.18211  1.0000
  C   C524      1.0  0.94765  0.69256  0.10674  1.0000
  H   H896      1.0  0.92616  0.85959  0.28192  1.0000
  H   H897      1.0  0.55708  0.53595  0.05404  1.0000
  C   C525      1.0  0.99796  0.98283  0.22396  1.0000
  H   H898      1.0  0.89548  0.98795  0.08114  1.0000
  H   H899      1.0  0.52069  0.79019  0.01346  1.0000
  H   H900      1.0  0.70363  0.54035  0.04609  1.0000
  H   H901      1.0  0.95451  0.65153  0.13739  1.0000
  N   N39       1.0  0.99045  0.00191  0.02361  1.0000
  H   H902      1.0  0.93806  0.64107  0.09968  1.0000
  H   H903      1.0  0.97747  0.78767  0.26253  1.0000
  H   H904      1.0  0.57030  0.52283  0.09120  1.0000
  C   C526      1.0  0.99443  0.96907  0.03654  1.0000
  H   H905      1.0  0.97416  0.90089  0.29039  1.0000
  C   C527      1.0  0.97747  0.74329  0.18059  1.0000
  Fe  Fe81      1.0  0.00214  0.57997  0.22283  1.0000
  C   C528      1.0  0.95778  0.89759  0.27031  1.0000
  C   C529      1.0  0.71758  0.51979  0.03730  1.0000
  C   C530      1.0  0.90963  0.96898  0.19633  1.0000
  N   N40       1.0  0.97755  0.69522  0.08679  1.0000
  H   H906      1.0  0.95218  0.74305  0.18504  1.0000
  N   N41       1.0  0.97195  0.83823  0.27089  1.0000
  H   H907      1.0  0.89825  0.54043  0.08160  1.0000
  C   C531      1.0  0.96886  0.75599  0.08829  1.0000
  S   S159      1.0  0.97847  0.61918  0.19661  1.0000
  C   C532      1.0  0.99257  0.77174  0.17274  1.0000
  H   H908      1.0  0.90341  0.95366  0.21653  1.0000
  C   C533      1.0  0.92403  0.54006  0.03720  1.0000
  C   C534      1.0  0.95913  0.80639  0.26077  1.0000
  S   S160      1.0  0.97035  0.89557  0.17904  1.0000
  H   H909      1.0  0.00546  0.67363  0.12311  1.0000
  C   C535      1.0  0.86247  0.00116  0.23880  1.0000
  H   H910      1.0  0.98312  0.52182  0.11592  1.0000
  H   H911      1.0  0.00696  0.97734  0.08648  1.0000
  C   C536      1.0  0.98081  0.51778  0.31164  1.0000
  C   C537      1.0  0.97380  0.56839  0.03728  1.0000
  C   C538      1.0  0.95111  0.55043  0.02107  1.0000
  H   H912      1.0  0.99193  0.50929  0.06232  1.0000
  C   C539      1.0  0.98362  0.83766  0.30459  1.0000
  Fe  Fe82      1.0  0.97723  0.91796  0.13184  1.0000
  H   H913      1.0  0.98296  0.69306  0.18773  1.0000
  H   H914      1.0  0.97112  0.95941  0.04454  1.0000
  H   H915      1.0  0.99350  0.81398  0.31006  1.0000
  S   S161      1.0  0.96979  0.80637  0.16943  1.0000
  H   H916      1.0  0.95329  0.87163  0.33140  1.0000
  H   H917      1.0  0.95236  0.80677  0.23535  1.0000
  C   C540      1.0  0.91113  0.00081  0.09682  1.0000
  H   H918      1.0  0.76177  0.51015  0.01337  1.0000
  H   H919      1.0  0.00378  0.85436  0.30791  1.0000
  C   C541      1.0  0.97889  0.53030  0.28116  1.0000
  H   H920      1.0  0.93690  0.91312  0.27453  1.0000
  C   C542      1.0  0.99945  0.84569  0.24905  1.0000
  C   C543      1.0  0.99930  0.00504  0.28662  1.0000
  H   H921      1.0  0.63751  0.52023  0.26830  1.0000
  H   H922      1.0  0.99479  0.57643  0.02486  1.0000
  H   H923      1.0  0.93925  0.99831  0.02090  1.0000
  H   H924      1.0  0.95985  0.75756  0.06385  1.0000
  C   C544      1.0  0.95947  0.84616  0.33120  1.0000
  C   C545      1.0  0.88117  0.98869  0.18526  1.0000
  H   H925      1.0  0.84462  0.98192  0.23605  1.0000
  S   S162      1.0  0.99853  0.54441  0.18316  1.0000
  H   H926      1.0  0.99306  0.64676  0.09347  1.0000
  H   H927      1.0  0.99119  0.84837  0.22431  1.0000
  H   H928      1.0  0.93628  0.65251  0.05046  1.0000
  H   H929      1.0  0.88830  0.99796  0.16177  1.0000
  H   H930      1.0  0.93028  0.98393  0.20215  1.0000
  H   H931      1.0  0.93739  0.83222  0.33015  1.0000
  H   H932      1.0  0.71355  0.58792  0.02228  1.0000
  C   C546      1.0  0.55206  0.51861  0.07287  1.0000
  H   H933      1.0  0.99142  0.69854  0.03744  1.0000
  H   H934      1.0  0.52890  0.52333  0.08450  1.0000
  C   C547      1.0  0.74455  0.52993  0.01472  1.0000
  H   H935      1.0  0.60590  0.57775  0.01210  1.0000
  H   H936      1.0  0.51078  0.97415  0.01123  1.0000
  Fe  Fe83      1.0  0.63385  0.82046  0.46855  1.0000
  S   S163      1.0  0.60898  0.79093  0.50507  1.0000
  S   S164      1.0  0.68376  0.81015  0.45047  1.0000
  Fe  Fe84      1.0  0.57195  0.85408  0.45030  1.0000
  S   S165      1.0  0.54275  0.82642  0.48471  1.0000
  S   S166      1.0  0.55155  0.89179  0.41901  1.0000
  Fe  Fe85      1.0  0.58287  0.83601  0.51781  1.0000
  S   S167      1.0  0.56697  0.85280  0.56637  1.0000
  Fe  Fe86      1.0  0.57124  0.78452  0.46858  1.0000
  S   S168      1.0  0.55382  0.73655  0.45263  1.0000
  S   S169      1.0  0.61083  0.86622  0.48416  1.0000
  S   S170      1.0  0.59740  0.81134  0.43125  1.0000
  S   S171      1.0  0.62541  0.55702  0.44106  1.0000
  S   S172      1.0  0.93122  0.57484  0.62994  1.0000
  Fe  Fe87      1.0  0.85916  0.82708  0.50836  1.0000
  S   S173      1.0  0.87484  0.80510  0.46207  1.0000
  S   S174      1.0  0.80944  0.83542  0.52758  1.0000
  Fe  Fe88      1.0  0.92729  0.84203  0.52804  1.0000
  S   S175      1.0  0.94838  0.82157  0.48345  1.0000
  S   S176      1.0  0.95414  0.86428  0.56838  1.0000
  Fe  Fe89      1.0  0.90843  0.84634  0.45930  1.0000
  S   S177      1.0  0.91843  0.87231  0.41381  1.0000
  Fe  Fe90      1.0  0.91337  0.78215  0.49033  1.0000
  S   S178      1.0  0.92495  0.72979  0.48680  1.0000
  S   S179      1.0  0.89010  0.86996  0.50360  1.0000
  S   S180      1.0  0.89495  0.80100  0.53695  1.0000
  H   H937      1.0  0.82768  0.95176  0.40615  1.0000
  C   C548      1.0  0.91604  0.96434  0.38856  1.0000
  C   C549      1.0  0.92229  0.93172  0.38906  1.0000
  C   C550      1.0  0.91067  0.91321  0.41389  1.0000
  C   C551      1.0  0.89273  0.92751  0.43812  1.0000
  C   C552      1.0  0.88610  0.95994  0.43740  1.0000
  H   H938      1.0  0.98501  0.99707  0.45640  1.0000
  H   H939      1.0  0.93614  0.92084  0.37017  1.0000
  H   H940      1.0  0.88342  0.91362  0.45716  1.0000
  S   S181      1.0  0.69696  0.50963  0.39978  1.0000
  C   C553      1.0  0.00775  0.77986  0.56168  1.0000
  H   H941      1.0  0.81581  0.93932  0.36779  1.0000
  H   H942      1.0  0.88278  0.53122  0.51544  1.0000
  H   H943      1.0  0.55289  0.97605  0.45998  1.0000
  H   H944      1.0  0.98353  0.60438  0.35613  1.0000
  H   H945      1.0  0.72715  0.93021  0.43432  1.0000
  C   C554      1.0  0.96517  0.71951  0.49021  1.0000
  C   C555      1.0  0.97357  0.68881  0.49916  1.0000
  H   H946      1.0  0.87321  0.61521  0.49689  1.0000
  H   H947      1.0  0.97530  0.76105  0.59858  1.0000
  H   H948      1.0  0.95523  0.67171  0.50422  1.0000
  H   H949      1.0  0.58964  0.67131  0.52378  1.0000
  C   C556      1.0  0.98329  0.58931  0.59368  1.0000
  C   C557      1.0  0.96986  0.56859  0.61568  1.0000
  C   C558      1.0  0.98707  0.54249  0.62568  1.0000
  H   H950      1.0  0.56977  0.63620  0.42772  1.0000
  H   H951      1.0  0.97008  0.60970  0.58610  1.0000
  H   H952      1.0  0.58041  0.97089  0.65061  1.0000
  C   C559      1.0  0.57082  0.53438  0.41395  1.0000
  C   C560      1.0  0.58408  0.55441  0.43679  1.0000
  C   C561      1.0  0.56416  0.57259  0.45660  1.0000
  H   H953      1.0  0.57428  0.58790  0.47448  1.0000
  H   H954      1.0  0.63109  0.67456  0.51551  1.0000
  H   H955      1.0  0.97029  0.84145  0.35452  1.0000
  C   C562      1.0  0.87746  0.55668  0.51208  1.0000
  H   H956      1.0  0.77828  0.90118  0.38728  1.0000
  C   C563      1.0  0.71801  0.81488  0.47358  1.0000
  C   C564      1.0  0.74726  0.80430  0.46125  1.0000
  C   C565      1.0  0.77543  0.80941  0.47804  1.0000
  C   C566      1.0  0.77451  0.82540  0.50722  1.0000
  C   C567      1.0  0.74518  0.83536  0.51986  1.0000
  C   C568      1.0  0.71699  0.83013  0.50312  1.0000
  H   H957      1.0  0.74814  0.79237  0.43845  1.0000
  H   H958      1.0  0.79785  0.80144  0.46823  1.0000
  H   H959      1.0  0.74432  0.84771  0.54245  1.0000
  H   H960      1.0  0.69459  0.83839  0.51280  1.0000
  C   C569      1.0  0.56819  0.96029  0.57731  1.0000
  C   C570      1.0  0.59223  0.94470  0.56022  1.0000
  C   C571      1.0  0.59159  0.91177  0.55634  1.0000
  C   C572      1.0  0.56691  0.89421  0.56960  1.0000
  C   C573      1.0  0.54257  0.90980  0.58642  1.0000
  C   C574      1.0  0.54313  0.94288  0.59018  1.0000
  H   H961      1.0  0.61167  0.95809  0.55023  1.0000
  H   H962      1.0  0.61079  0.89990  0.54395  1.0000
  H   H963      1.0  0.67240  0.73884  0.43209  1.0000
  H   H964      1.0  0.81410  0.86033  0.38753  1.0000
  H   H965      1.0  0.89902  0.56734  0.50141  1.0000
  H   H966      1.0  0.89191  0.57021  0.55839  1.0000
  H   H967      1.0  0.79562  0.93597  0.51258  1.0000
  N   N42       1.0  0.85741  0.60552  0.54515  1.0000
  C   C575      1.0  0.86417  0.61960  0.57745  1.0000
  C   C576      1.0  0.87525  0.62502  0.52121  1.0000
  C   C577      1.0  0.86957  0.57192  0.54462  1.0000
  C   C578      1.0  0.82204  0.60619  0.54050  1.0000
  C   C579      1.0  0.85115  0.60106  0.60601  1.0000
  C   C580      1.0  0.86547  0.66008  0.51932  1.0000
  C   C581      1.0  0.80961  0.59613  0.50771  1.0000
  H   H968      1.0  0.89023  0.62209  0.58095  1.0000
  H   H969      1.0  0.85412  0.64382  0.57998  1.0000
  H   H970      1.0  0.85226  0.55601  0.55649  1.0000
  H   H971      1.0  0.81003  0.59005  0.55743  1.0000
  H   H972      1.0  0.81179  0.62972  0.54681  1.0000
  H   H973      1.0  0.85879  0.61303  0.62821  1.0000
  H   H974      1.0  0.82491  0.60024  0.60667  1.0000
  H   H975      1.0  0.86076  0.57676  0.60664  1.0000
  H   H976      1.0  0.87864  0.67121  0.49943  1.0000
  H   H977      1.0  0.83990  0.66292  0.51446  1.0000
  H   H978      1.0  0.87194  0.67370  0.54091  1.0000
  H   H979      1.0  0.85765  0.55778  0.49531  1.0000
  H   H980      1.0  0.80569  0.57018  0.50642  1.0000
  H   H981      1.0  0.82486  0.60344  0.48773  1.0000
  H   H982      1.0  0.78657  0.60801  0.50368  1.0000
  H   H983      1.0  0.57642  0.64261  0.38668  1.0000
  C   C582      1.0  0.78797  0.91782  0.40537  1.0000
  C   C583      1.0  0.67226  0.64631  0.47556  1.0000
  N   N43       1.0  0.78936  0.90249  0.43732  1.0000
  H   H984      1.0  0.51794  0.80149  0.36475  1.0000
  N   N44       1.0  0.62473  0.67251  0.44755  1.0000
  C   C584      1.0  0.60766  0.67088  0.41634  1.0000
  C   C585      1.0  0.63829  0.70543  0.45093  1.0000
  C   C586      1.0  0.60077  0.66622  0.47363  1.0000
  C   C587      1.0  0.65010  0.64745  0.44691  1.0000
  C   C588      1.0  0.66328  0.71490  0.42591  1.0000
  C   C589      1.0  0.60737  0.68059  0.50664  1.0000
  H   H985      1.0  0.66143  0.63234  0.49495  1.0000
  H   H986      1.0  0.62455  0.67308  0.39611  1.0000
  H   H987      1.0  0.64951  0.70947  0.47419  1.0000
  H   H988      1.0  0.61901  0.72333  0.45027  1.0000
  H   H989      1.0  0.74124  0.53456  0.55441  1.0000
  H   H990      1.0  0.63924  0.62356  0.44557  1.0000
  H   H991      1.0  0.66480  0.64823  0.42489  1.0000
  H   H992      1.0  0.99646  0.89548  0.61054  1.0000
  C   C590      1.0  0.56522  0.97240  0.67202  1.0000
  H   H993      1.0  0.96926  0.62012  0.40413  1.0000
  C   C591      1.0  0.75946  0.52333  0.53997  1.0000
  H   H994      1.0  0.59812  0.92170  0.62832  1.0000
  H   H995      1.0  0.81967  0.51501  0.35753  1.0000
  H   H996      1.0  0.60432  0.70669  0.50661  1.0000
  C   C592      1.0  0.95537  0.94157  0.50842  1.0000
  H   H997      1.0  0.60400  0.61921  0.40755  1.0000
  C   C593      1.0  0.75314  0.51492  0.50848  1.0000
  H   H998      1.0  0.52245  0.54926  0.54828  1.0000
  H   H999      1.0  0.69486  0.63482  0.46812  1.0000
  H   H1000     1.0  0.57877  0.86471  0.64611  1.0000
  C   C594      1.0  0.00018  0.58567  0.42465  1.0000
  H   H1001     1.0  0.77120  0.93809  0.40602  1.0000
  H   H1002     1.0  0.98251  0.66184  0.37089  1.0000
  H   H1003     1.0  0.78212  0.89789  0.50213  1.0000
  H   H1004     1.0  0.95355  0.96988  0.45024  1.0000
  C   C595      1.0  0.99398  0.87530  0.56353  1.0000
  C   C596      1.0  0.53109  0.57054  0.45379  1.0000
  C   C597      1.0  0.73077  0.91270  0.45317  1.0000
  S   S182      1.0  0.79492  0.52434  0.59333  1.0000
  H   H1005     1.0  0.54036  0.96709  0.66569  1.0000
  H   H1006     1.0  0.65303  0.71671  0.40198  1.0000
  C   C598      1.0  0.98898  0.74143  0.48356  1.0000
  H   H1007     1.0  0.54110  0.78131  0.39379  1.0000
  H   H1008     1.0  0.98551  0.54786  0.49993  1.0000
  H   H1009     1.0  0.82277  0.93627  0.45621  1.0000
  H   H1010     1.0  0.52443  0.95478  0.60327  1.0000
  H   H1011     1.0  0.51652  0.00519  0.49850  1.0000
  S   S183      1.0  0.57058  0.00145  0.58229  1.0000
  H   H1012     1.0  0.73015  0.51972  0.49865  1.0000
  H   H1013     1.0  0.57278  0.98928  0.49483  1.0000
  S   S184      1.0  0.85680  0.53109  0.65686  1.0000
  H   H1014     1.0  0.94694  0.94617  0.55973  1.0000
  H   H1015     1.0  0.95683  0.78288  0.56821  1.0000
  C   C599      1.0  0.51763  0.72192  0.46716  1.0000
  H   H1016     1.0  0.73534  0.92498  0.47602  1.0000
  H   H1017     1.0  0.97784  0.80387  0.59801  1.0000
  C   C600      1.0  0.81955  0.93094  0.39225  1.0000
  C   C601      1.0  0.58856  0.64034  0.40971  1.0000
  H   H1018     1.0  0.90114  0.62441  0.52618  1.0000
  H   H1019     1.0  0.82392  0.90560  0.50128  1.0000
  H   H1020     1.0  0.91243  0.94832  0.53671  1.0000
  C   C602      1.0  0.80027  0.91573  0.49616  1.0000
  C   C603      1.0  0.75715  0.88876  0.44461  1.0000
  H   H1021     1.0  0.57704  0.67547  0.46733  1.0000
  H   H1022     1.0  0.93725  0.93415  0.49088  1.0000
  H   H1023     1.0  0.96890  0.90514  0.45714  1.0000
  H   H1024     1.0  0.68391  0.69871  0.42546  1.0000
  H   H1025     1.0  0.98292  0.93291  0.42773  1.0000
  H   H1026     1.0  0.59083  0.69105  0.41441  1.0000
  H   H1027     1.0  0.98285  0.76478  0.47580  1.0000
  H   H1028     1.0  0.59730  0.64035  0.47670  1.0000
  H   H1029     1.0  0.98085  0.57545  0.43929  1.0000
  H   H1030     1.0  0.96611  0.91921  0.51688  1.0000
  H   H1031     1.0  0.70811  0.89962  0.45619  1.0000
  H   H1032     1.0  0.82822  0.83220  0.41492  1.0000
  H   H1033     1.0  0.99907  0.85726  0.51585  1.0000
  C   C604      1.0  0.79870  0.92705  0.46160  1.0000
  C   C605      1.0  0.61923  0.92232  0.64339  1.0000
  H   H1034     1.0  0.81275  0.86382  0.46061  1.0000
  C   C606      1.0  0.81000  0.85071  0.41148  1.0000
  H   H1035     1.0  0.92477  0.97840  0.36916  1.0000
  H   H1036     1.0  0.83804  0.88572  0.43597  1.0000
  H   H1037     1.0  0.78664  0.83884  0.41264  1.0000
  C   C607      1.0  0.53691  0.52922  0.53883  1.0000
  H   H1038     1.0  0.62905  0.94667  0.64384  1.0000
  C   C608      1.0  0.97813  0.78195  0.58333  1.0000
  C   C609      1.0  0.55455  0.90406  0.67150  1.0000
  H   H1039     1.0  0.87200  0.97082  0.45611  1.0000
  C   C610      1.0  0.89773  0.97845  0.41266  1.0000
  H   H1040     1.0  0.75826  0.87186  0.46430  1.0000
  H   H1041     1.0  0.74833  0.87438  0.42428  1.0000
  C   C611      1.0  0.81352  0.87627  0.43757  1.0000
  H   H1042     1.0  0.78349  0.94851  0.46065  1.0000
  H   H1043     1.0  0.52766  0.51699  0.39321  1.0000
  Fe  Fe91      1.0  0.90441  0.52907  0.63360  1.0000
  H   H1044     1.0  0.55208  0.91771  0.64965  1.0000
  C   C612      1.0  0.99945  0.98122  0.51594  1.0000
  C   C613      1.0  0.00792  0.60805  0.34715  1.0000
  C   C614      1.0  0.51781  0.55042  0.43099  1.0000
  H   H1045     1.0  0.97686  0.51900  0.47051  1.0000
  C   C615      1.0  0.93759  0.95599  0.53743  1.0000
  H   H1046     1.0  0.00675  0.80094  0.54632  1.0000
  H   H1047     1.0  0.67924  0.66987  0.48464  1.0000
  H   H1048     1.0  0.52284  0.67758  0.44184  1.0000
  H   H1049     1.0  0.54958  0.51912  0.55913  1.0000
  C   C616      1.0  0.53778  0.53254  0.41095  1.0000
  N   N45       1.0  0.98042  0.96176  0.49279  1.0000
  C   C617      1.0  0.98119  0.52217  0.49623  1.0000
  H   H1050     1.0  0.52329  0.89628  0.59648  1.0000
  C   C618      1.0  0.96608  0.98351  0.46889  1.0000
  C   C619      1.0  0.98949  0.91914  0.44880  1.0000
  H   H1051     1.0  0.63650  0.90653  0.63096  1.0000
  H   H1052     1.0  0.83858  0.91294  0.39082  1.0000
  H   H1053     1.0  0.55382  0.53931  0.52149  1.0000
  H   H1054     1.0  0.97683  0.52650  0.64267  1.0000
  H   H1055     1.0  0.00220  0.57083  0.40288  1.0000
  H   H1056     1.0  0.97046  0.51687  0.56175  1.0000
  C   C620      1.0  0.52276  0.98011  0.50300  1.0000
  H   H1057     1.0  0.51247  0.92609  0.37599  1.0000
  C   C621      1.0  0.55721  0.86913  0.66078  1.0000
  H   H1058     1.0  0.53056  0.82147  0.39949  1.0000
  H   H1059     1.0  0.91933  0.99566  0.48902  1.0000
  Fe  Fe92      1.0  0.65225  0.51197  0.42942  1.0000
  H   H1060     1.0  0.58600  0.52060  0.39828  1.0000
  C   C622      1.0  0.78879  0.51611  0.55317  1.0000
  H   H1061     1.0  0.00273  0.94407  0.55178  1.0000
  H   H1062     1.0  0.00778  0.90190  0.44069  1.0000
  H   H1063     1.0  0.56290  0.94847  0.49078  1.0000
  C   C623      1.0  0.51037  0.89160  0.41300  1.0000
  C   C624      1.0  0.94151  0.00756  0.48151  1.0000
  H   H1064     1.0  0.52771  0.97958  0.52877  1.0000
  C   C625      1.0  0.52157  0.79846  0.39031  1.0000
  C   C626      1.0  0.55441  0.97271  0.48589  1.0000
  C   C627      1.0  0.99201  0.62027  0.41716  1.0000
  H   H1065     1.0  0.93739  0.98203  0.53900  1.0000
  H   H1066     1.0  0.51452  0.73048  0.39235  1.0000
  C   C628      1.0  0.00348  0.94035  0.47522  1.0000
  H   H1067     1.0  0.98482  0.99869  0.52920  1.0000
  H   H1068     1.0  0.95949  0.51646  0.50978  1.0000
  H   H1069     1.0  0.00610  0.71743  0.57893  1.0000
  H   H1070     1.0  0.53672  0.86319  0.64554  1.0000
  H   H1071     1.0  0.52114  0.91415  0.48742  1.0000
  H   H1072     1.0  0.97070  0.68151  0.42642  1.0000
  H   H1073     1.0  0.51596  0.58453  0.46922  1.0000
  H   H1074     1.0  0.00450  0.75928  0.54546  1.0000
  C   C629      1.0  0.98967  0.69188  0.41146  1.0000
  H   H1075     1.0  0.97906  0.71229  0.39918  1.0000
  C   C630      1.0  0.00563  0.68042  0.50229  1.0000
  C   C631      1.0  0.00265  0.66803  0.38660  1.0000
  H   H1076     1.0  0.98612  0.63200  0.44026  1.0000
  H   H1077     1.0  0.00862  0.70148  0.42672  1.0000
  H   H1078     1.0  0.77802  0.51143  0.36021  1.0000
  H   H1079     1.0  0.51728  0.92519  0.52745  1.0000
  H   H1080     1.0  0.50983  0.94697  0.44683  1.0000
  C   C632      1.0  0.00929  0.89059  0.58869  1.0000
  C   C633      1.0  0.61329  0.91021  0.67721  1.0000
  H   H1081     1.0  0.97967  0.56885  0.69631  1.0000
  H   H1082     1.0  0.81092  0.56943  0.96153  1.0000
  S   S185      1.0  0.51703  0.52169  0.87574  1.0000
  C   C634      1.0  0.51171  0.99537  0.76900  1.0000
  H   H1083     1.0  0.52887  0.70481  0.78571  1.0000
  H   H1084     1.0  0.93462  0.98005  0.96613  1.0000
  S   S186      1.0  0.54359  0.90805  0.93327  1.0000
  C   C635      1.0  0.92504  0.54525  0.72062  1.0000
  H   H1085     1.0  0.99503  0.53202  0.75907  1.0000
  S   S187      1.0  0.95726  0.54156  0.98071  1.0000
  H   H1086     1.0  0.64069  0.00004  0.95681  1.0000
  H   H1087     1.0  0.97542  0.62563  0.70087  1.0000
  S   S188      1.0  0.54500  0.66388  0.89009  1.0000
  S   S189      1.0  0.51969  0.85715  0.85532  1.0000
  H   H1088     1.0  0.79578  0.53376  0.94472  1.0000
  H   H1089     1.0  0.54336  0.83295  0.93909  1.0000
  C   C636      1.0  0.53416  0.72669  0.87976  1.0000
  S   S190      1.0  0.53014  0.57892  0.92847  1.0000
  C   C637      1.0  0.60187  0.55055  0.96886  1.0000
  Fe  Fe93      1.0  0.52987  0.61222  0.88725  1.0000
  H   H1090     1.0  0.59207  0.56991  0.95577  1.0000
  H   H1091     1.0  0.51760  0.95991  0.80485  1.0000
  C   C638      1.0  0.89608  0.56776  0.72188  1.0000
  H   H1092     1.0  0.52624  0.77648  0.87173  1.0000
  S   S191      1.0  0.56208  0.58158  0.85697  1.0000
  H   H1093     1.0  0.89871  0.58944  0.73630  1.0000
  H   H1094     1.0  0.87491  0.55490  0.73088  1.0000
  C   C639      1.0  0.51138  0.51076  0.77414  1.0000
  C   C640      1.0  0.76025  0.56327  0.97021  1.0000
  H   H1095     1.0  0.53594  0.75027  0.97828  1.0000
  Fe  Fe94      1.0  0.51032  0.89285  0.89453  1.0000
  H   H1096     1.0  0.71226  0.60761  0.98462  1.0000
  C   C641      1.0  0.70377  0.55644  0.98118  1.0000
  N   N46       1.0  0.73556  0.54024  0.98189  1.0000
  C   C642      1.0  0.60994  0.55502  0.00069  1.0000
  C   C643      1.0  0.54988  0.94914  0.93671  1.0000
  C   C644      1.0  0.55971  0.96227  0.96563  1.0000
  C   C645      1.0  0.94663  0.56842  0.77132  1.0000
  H   H1097     1.0  0.93116  0.54144  0.69517  1.0000
  H   H1098     1.0  0.93745  0.60827  0.69786  1.0000
  H   H1099     1.0  0.56358  0.94705  0.98557  1.0000
  H   H1100     1.0  0.55865  0.95467  0.71843  1.0000
  C   C646      1.0  0.57652  0.95122  0.69909  1.0000
  C   C647      1.0  0.79407  0.54974  0.96575  1.0000
  H   H1101     1.0  0.71140  0.97756  0.96486  1.0000
  C   C648      1.0  0.51708  0.52410  0.00569  1.0000
  C   C649      1.0  0.55016  0.00165  0.91417  1.0000
  C   C650      1.0  0.52010  0.64290  0.80204  1.0000
  N   N47       1.0  0.95411  0.55508  0.73875  1.0000
  C   C651      1.0  0.95793  0.97743  0.97772  1.0000
  H   H1102     1.0  0.95141  0.62402  0.73559  1.0000
  H   H1103     1.0  0.59736  0.89585  0.77044  1.0000
  C   C652      1.0  0.97454  0.52624  0.74360  1.0000
  H   H1104     1.0  0.00425  0.98678  0.77982  1.0000
  H   H1105     1.0  0.67713  0.99215  0.00524  1.0000
  H   H1106     1.0  0.56944  0.62811  0.79993  1.0000
  C   C653      1.0  0.97348  0.57855  0.72022  1.0000
  C   C654      1.0  0.57915  0.89888  0.72273  1.0000
  H   H1107     1.0  0.94116  0.52681  0.80184  1.0000
  H   H1108     1.0  0.59752  0.53130  0.74204  1.0000
  H   H1109     1.0  0.50985  0.69991  0.82274  1.0000
  H   H1110     1.0  0.93413  0.59130  0.77066  1.0000
  H   H1111     1.0  0.75314  0.57345  0.94715  1.0000
  H   H1112     1.0  0.73436  0.52121  0.93406  1.0000
  C   C655      1.0  0.51527  0.75370  0.87548  1.0000
  H   H1113     1.0  0.69654  0.56063  0.95629  1.0000
  H   H1114     1.0  0.63210  0.92119  0.69190  1.0000
  H   H1115     1.0  0.55394  0.79286  0.94560  1.0000
  C   C656      1.0  0.56412  0.99509  0.96899  1.0000
  H   H1116     1.0  0.57132  0.00494  0.99145  1.0000
  H   H1117     1.0  0.54630  0.81975  0.97873  1.0000
  H   H1118     1.0  0.55448  0.89932  0.73239  1.0000
  H   H1119     1.0  0.51843  0.64438  0.82835  1.0000
  C   C657      1.0  0.92685  0.54677  0.79304  1.0000
  H   H1120     1.0  0.53341  0.54175  0.99511  1.0000
  C   C658      1.0  0.60069  0.91117  0.74951  1.0000
  H   H1121     1.0  0.68482  0.54125  0.99112  1.0000
  C   C659      1.0  0.60739  0.52142  0.95382  1.0000
  C   C660      1.0  0.54525  0.96895  0.91097  1.0000
  H   H1122     1.0  0.59881  0.96189  0.70817  1.0000
  H   H1123     1.0  0.52527  0.62540  0.72922  1.0000
  H   H1124     1.0  0.95923  0.95281  0.98625  1.0000
  H   H1125     1.0  0.68524  0.00304  0.92509  1.0000
  C   C661      1.0  0.96014  0.00204  0.00497  1.0000
  H   H1126     1.0  0.91639  0.52179  0.72860  1.0000
  H   H1127     1.0  0.53872  0.95903  0.88832  1.0000
  C   C662      1.0  0.95800  0.61074  0.71376  1.0000
  H   H1128     1.0  0.99637  0.58330  0.73229  1.0000
  Fe  Fe95      1.0  0.55874  0.54687  0.89656  1.0000
  H   H1129     1.0  0.96895  0.57417  0.78402  1.0000
  C   C663      1.0  0.55506  0.64883  0.79299  1.0000
  H   H1130     1.0  0.90534  0.53746  0.78137  1.0000
  H   H1131     1.0  0.59424  0.93547  0.75740  1.0000
  N   N48       1.0  0.58108  0.91639  0.69183  1.0000
  H   H1132     1.0  0.55628  0.85268  0.68092  1.0000
  H   H1133     1.0  0.80230  0.53700  0.98690  1.0000
  H   H1134     1.0  0.89046  0.57557  0.69761  1.0000
  C   C664      1.0  0.72025  0.00195  0.96099  1.0000
  H   H1135     1.0  0.53135  0.90716  0.68399  1.0000
  Fe  Fe96      1.0  0.51743  0.55929  0.83916  1.0000
  S   S192      1.0  0.59802  0.51564  0.91376  1.0000
  H   H1136     1.0  0.55971  0.72882  0.87914  1.0000
  H   H1137     1.0  0.97626  0.98123  0.95915  1.0000
  H   H1138     1.0  0.62613  0.91009  0.74287  1.0000
  H   H1139     1.0  0.91888  0.56043  0.81431  1.0000
  H   H1140     1.0  0.58512  0.87345  0.71927  1.0000
  H   H1141     1.0  0.00685  0.52441  0.70200  1.0000
  C   C665      1.0  0.53877  0.81245  0.95469  1.0000
  H   H1142     1.0  0.55854  0.65214  0.76725  1.0000
  C   C666      1.0  0.70173  0.58845  0.99902  1.0000
  C   C667      1.0  0.52025  0.69697  0.88491  1.0000
  C   C668      1.0  0.65461  0.00532  0.00515  1.0000
  H   H1143     1.0  0.74344  0.00031  0.94837  1.0000
  H   H1144     1.0  0.56551  0.99746  0.68025  1.0000
  H   H1145     1.0  0.56458  0.66956  0.80621  1.0000
  H   H1146     1.0  0.51521  0.67724  0.74147  1.0000
  H   H1147     1.0  0.76254  0.58371  0.98690  1.0000
  H   H1148     1.0  0.67642  0.59456  0.00332  1.0000
  H   H1149     1.0  0.51513  0.61783  0.79643  1.0000
  C   C669      1.0  0.73554  0.51261  0.95885  1.0000
  C   C670      1.0  0.51061  0.96443  0.78079  1.0000
  H   H1150     1.0  0.51988  0.74872  0.93982  1.0000
  H   H1151     1.0  0.51832  0.69764  0.96622  1.0000
  C   C671      1.0  0.51316  0.74874  0.96530  1.0000
  C   C672      1.0  0.98818  0.50997  0.71352  1.0000
  H   H1152     1.0  0.61933  0.88458  0.67734  1.0000
