data_image0
_chemical_formula_structural       FeS2FeS2FeSFeS3FeSHFeSCFeSFeS3CHC2HC2HCHCHCH3NC3HCHC2HC2HC6H4C6H4C4H8NH3C3H2C2H3CHCH2CH2CHSCHCH3C2H7CH3C2H6NHC3HCH9CHCHCH6CH4CH3CH8CH3NC2H3NH4C2SHCH2FeCHFeS2HFeS3FeS2FeSFeSFeS3C3H4C6H4C2HC2H2CNHC6H5C3H6FeCHCH2CSCHSCHCH4C2H4CH2C2H2CH2CH5NC4H9CH7CH3CH3C2H3C2H3NC7H7NHCH2CH4CH2CHCH4CHCHCH2CH2CH4CFeSHFeS2FeS2HSHS2HFeSHSH8NH2FeHCH2C6H8FeH4CH3C2HCH2CH2CH4C2HCH2NHCH6CH4NCSC2HSHC2H3C2HCHFeC3FeCH4CH3C2H3C2HCSH3CSCFeS2C2HCS2HFeSCFeSHFeHFeSHSCH3C6H5CHCHCHSHC2SH3C2HSHN2H3CHFeH3CH5CHC2NH5CH3CH2C2HCH2C3H6CHCH7SHSH3SH5CH2C3HCSH2FeSFeSCFeSFeS3FeSCFeS2FeSFeS2CHCNCH2C6H8C2H3CH2C6H5CH4C2H2C2HC2H2CH5SH11CHCH2CH2CH2C4H2CH3C3NHNHCH2C2H7CH3C2H4CHC3HCSHCH4CNHSH2CSH2CH2CHC3HC2H2SHSH3CH2CHCH2CSH3NH3C4H2S3HFeS2FeSHFeHFeHS2FeS2FeS2FeHFeS3C6H4C2H3CH2C6H4CHNC4H5SHC3H7C2FeCHCH3C3H3CH4CHCHCH3CSC3HCH2NH4CFeH3CHC3H3CH5CH3CH3C2H11NH3CHC4H2S2CH2NHCH3C2HCFeS2FeS2FeSFeS3HFeHFeS2CFeHS2H2NHCH4NHC5H3C6H4C6H4CNCHC2H2CHCH2CH2CHC2H9CH6SHC3HC2HCH3CHC2HC2HC2HC2H5SFeC2H4CH7C2H5C2H3NH5CH4SH3C2HCH5CH2CHCHNH2C2H5CHC3H5CFeS2FeS2FeSFeS3FeSHFeS2FeCFeS3C3H5SC6H5C3H2SHCH2NCHC8H4C2HC4H2NC8H9CH5NH7CHC3H4C2H2CHCH5C2H7C2H4C2H3CH2CH7CH5CHCH6CNCHCHC2HCHCH2CH7SH3FeHFeS2FeHFeHS2C2FeS3H2S2H4FeH2CHC6H4SNC6HCH14C3H3NHC5HNCH2CSH2S2H5CHCH2CHCH4C2H5CFeHCHFeCH2CH2FeSFeSFe2S2HSH2SHFeSHSH4CHC8H9CH2CH6C2H2CHCHCH3CHCH3NCH5CH3CH3NC4HFeH3CFeSHCHFeHC2HCHN2H2CSCH2CHSCFeS2FeSCFeSFeS3FeSHFeS2FeSFeCS3H3C6H4CH3SC4H3C2H3CHNC6H4C3H8CH2SH4CHCHC2H6CH2CHNCH8CH2CH3NHSH3NH2C3H4CHCH3C2HCHCH2C3H2C2H2CH2C2H2CHCH2CH6CHC2H3C2H2CH2S2H3CHC2H5CHCH2C2H2FeSHFeS2Fe2S3FeS2FeSCFeSFeS3CH4C5H2CHC2HC6H4C6H4CH5C2HSH3CHCH3CNH4CHCH3CH2C2SH3CH7CH3CSH4CH2C2H2CHCH6CNC5H6C2H2SNC2HC3HNH11CH2C2H3CH2SH2SC2HC2HCHSHC2H2CHC2
_chemical_formula_sum              "Fe96 S192 H1152 C672 N48"
_cell_length_a       40.832
_cell_length_b       40.7589
_cell_length_c       40.7494
_cell_angle_alpha    89.9346
_cell_angle_beta     89.9231
_cell_angle_gamma    89.8423

_space_group_name_H-M_alt    "P 1"
_space_group_IT_number       1

loop_
  _space_group_symop_operation_xyz
  'x, y, z'

loop_
  _atom_site_type_symbol
  _atom_site_label
  _atom_site_symmetry_multiplicity
  _atom_site_fract_x
  _atom_site_fract_y
  _atom_site_fract_z
  _atom_site_occupancy
  Fe  Fe1       1.0  0.25209  0.16382  0.36831  1.0000
  S   S1        1.0  0.29137  0.19364  0.39241  1.0000
  S   S2        1.0  0.20628  0.18813  0.34795  1.0000
  Fe  Fe2       1.0  0.29006  0.09947  0.37872  1.0000
  S   S3        1.0  0.33104  0.12584  0.40418  1.0000
  S   S4        1.0  0.29621  0.04422  0.37386  1.0000
  Fe  Fe3       1.0  0.29125  0.15403  0.43041  1.0000
  S   S5        1.0  0.29188  0.16651  0.48483  1.0000
  Fe  Fe4       1.0  0.32598  0.16247  0.36316  1.0000
  S   S6        1.0  0.36949  0.18417  0.33602  1.0000
  S   S7        1.0  0.25040  0.12517  0.40782  1.0000
  S   S8        1.0  0.28673  0.13471  0.33667  1.0000
  Fe  Fe5       1.0  0.45043  0.27001  0.15381  1.0000
  S   S9        1.0  0.42844  0.23270  0.11979  1.0000
  H   H1        1.0  0.45656  0.10236  0.31636  1.0000
  Fe  Fe6       1.0  0.38423  0.30336  0.16606  1.0000
  S   S10       1.0  0.35710  0.26861  0.13343  1.0000
  C   C1        1.0  0.05015  0.31135  0.36131  1.0000
  Fe  Fe7       1.0  0.38808  0.22983  0.15745  1.0000
  S   S11       1.0  0.36435  0.18551  0.18033  1.0000
  Fe  Fe8       1.0  0.39954  0.27540  0.09898  1.0000
  S   S12       1.0  0.39491  0.28510  0.04412  1.0000
  S   S13       1.0  0.41203  0.26412  0.19235  1.0000
  S   S14       1.0  0.42483  0.31299  0.13031  1.0000
  C   C2        1.0  0.37684  0.29307  0.28127  1.0000
  H   H2        1.0  0.14128  0.15028  0.40692  1.0000
  C   C3        1.0  0.04524  0.33537  0.30686  1.0000
  C   C4        1.0  0.40172  0.06974  0.31675  1.0000
  H   H3        1.0  0.35792  0.10191  0.32140  1.0000
  C   C5        1.0  0.01491  0.31964  0.30330  1.0000
  C   C6        1.0  0.46195  0.03884  0.28755  1.0000
  H   H4        1.0  0.27202  0.30633  0.31696  1.0000
  C   C7        1.0  0.36284  0.31062  0.02968  1.0000
  H   H5        1.0  0.04043  0.19923  0.38484  1.0000
  C   C8        1.0  0.19029  0.32846  0.48496  1.0000
  H   H6        1.0  0.25139  0.18698  0.22911  1.0000
  C   C9        1.0  0.40701  0.31289  0.26991  1.0000
  H   H7        1.0  0.24423  0.24346  0.43402  1.0000
  H   H8        1.0  0.18980  0.22902  0.26706  1.0000
  H   H9        1.0  0.28644  0.33824  0.04938  1.0000
  N   N1        1.0  0.10568  0.21294  0.41016  1.0000
  C   C10       1.0  0.26572  0.32601  0.17558  1.0000
  C   C11       1.0  0.30846  0.33459  0.03508  1.0000
  C   C12       1.0  0.44699  0.26884  0.28123  1.0000
  H   H10       1.0  0.48477  0.13502  0.28019  1.0000
  C   C13       1.0  0.22429  0.25097  0.23116  1.0000
  H   H11       1.0  0.47734  0.21280  0.19508  1.0000
  C   C14       1.0  0.31598  0.02710  0.33907  1.0000
  C   C15       1.0  0.31457  0.04230  0.30829  1.0000
  H   H12       1.0  0.30144  0.06521  0.30547  1.0000
  C   C16       1.0  0.46182  0.12565  0.26894  1.0000
  C   C17       1.0  0.48353  0.25872  0.28088  1.0000
  H   H13       1.0  0.22703  0.18437  0.46050  1.0000
  C   C18       1.0  0.36772  0.18508  0.29276  1.0000
  C   C19       1.0  0.39542  0.19439  0.27470  1.0000
  C   C20       1.0  0.39455  0.19500  0.24020  1.0000
  C   C21       1.0  0.36613  0.18555  0.22353  1.0000
  C   C22       1.0  0.33892  0.17508  0.24158  1.0000
  C   C23       1.0  0.33950  0.17555  0.27600  1.0000
  H   H14       1.0  0.41781  0.20039  0.28741  1.0000
  H   H15       1.0  0.41624  0.20160  0.22648  1.0000
  H   H16       1.0  0.31729  0.16662  0.22891  1.0000
  H   H17       1.0  0.31821  0.16815  0.28946  1.0000
  C   C24       1.0  0.20353  0.23126  0.35104  1.0000
  C   C25       1.0  0.17482  0.24741  0.34118  1.0000
  C   C26       1.0  0.17180  0.28158  0.34491  1.0000
  C   C27       1.0  0.19760  0.29970  0.35833  1.0000
  C   C28       1.0  0.22644  0.28371  0.36738  1.0000
  C   C29       1.0  0.22945  0.24976  0.36341  1.0000
  H   H18       1.0  0.15474  0.23347  0.33101  1.0000
  H   H19       1.0  0.14920  0.29374  0.33823  1.0000
  H   H20       1.0  0.24671  0.29770  0.37708  1.0000
  H   H21       1.0  0.25209  0.23825  0.36955  1.0000
  C   C30       1.0  0.24936  0.27927  0.27715  1.0000
  C   C31       1.0  0.28459  0.25722  0.23412  1.0000
  C   C32       1.0  0.27905  0.28684  0.29924  1.0000
  C   C33       1.0  0.28885  0.23895  0.20135  1.0000
  H   H22       1.0  0.24313  0.30226  0.26367  1.0000
  H   H23       1.0  0.22410  0.27361  0.21586  1.0000
  H   H24       1.0  0.28647  0.28369  0.22784  1.0000
  H   H25       1.0  0.30679  0.25163  0.24902  1.0000
  H   H26       1.0  0.28689  0.26507  0.31361  1.0000
  H   H27       1.0  0.29990  0.29661  0.28484  1.0000
  H   H28       1.0  0.31265  0.24635  0.19039  1.0000
  H   H29       1.0  0.17144  0.24387  0.22991  1.0000
  N   N2        1.0  0.25365  0.25094  0.25358  1.0000
  H   H30       1.0  0.26996  0.32951  0.45524  1.0000
  H   H31       1.0  0.11913  0.22211  0.47690  1.0000
  H   H32       1.0  0.22836  0.27503  0.29402  1.0000
  C   C34       1.0  0.22903  0.19253  0.48566  1.0000
  C   C35       1.0  0.46832  0.32667  0.23468  1.0000
  C   C36       1.0  0.50210  0.21577  0.20399  1.0000
  H   H33       1.0  0.43693  0.25999  0.25750  1.0000
  H   H34       1.0  0.46921  0.27925  0.34777  1.0000
  C   C37       1.0  0.12529  0.27318  0.41902  1.0000
  C   C38       1.0  0.32959  0.02747  0.28089  1.0000
  H   H35       1.0  0.32804  0.03915  0.25709  1.0000
  H   H36       1.0  0.46697  0.30150  0.22461  1.0000
  H   H37       1.0  0.15202  0.21892  0.43614  1.0000
  C   C39       1.0  0.46461  0.30592  0.34474  1.0000
  H   H38       1.0  0.26299  0.25573  0.47131  1.0000
  C   C40       1.0  0.43479  0.31213  0.32250  1.0000
  H   H39       1.0  0.06354  0.30905  0.38400  1.0000
  H   H40       1.0  0.17344  0.16447  0.43246  1.0000
  C   C41       1.0  0.21982  0.28550  0.45604  1.0000
  H   H41       1.0  0.26976  0.24570  0.18322  1.0000
  H   H42       1.0  0.15144  0.26961  0.41239  1.0000
  C   C42       1.0  0.37899  0.09308  0.33612  1.0000
  H   H43       1.0  0.12235  0.27211  0.44593  1.0000
  S   S15       1.0  0.50392  0.27356  0.16836  1.0000
  C   C43       1.0  0.09254  0.22069  0.47223  1.0000
  H   H44       1.0  0.08022  0.17859  0.44228  1.0000
  C   C44       1.0  0.06053  0.20201  0.36676  1.0000
  H   H45       1.0  0.39768  0.07582  0.21562  1.0000
  H   H46       1.0  0.13335  0.16101  0.44961  1.0000
  H   H47       1.0  0.29032  0.21214  0.20452  1.0000
  C   C45       1.0  0.14084  0.20360  0.41682  1.0000
  C   C46       1.0  0.10322  0.24872  0.40063  1.0000
  H   H48       1.0  0.45288  0.02532  0.30936  1.0000
  H   H49       1.0  0.20166  0.26837  0.46700  1.0000
  H   H50       1.0  0.07753  0.25754  0.40338  1.0000
  H   H51       1.0  0.10937  0.25217  0.37417  1.0000
  H   H52       1.0  0.47020  0.10809  0.25009  1.0000
  H   H53       1.0  0.45666  0.23427  0.00940  1.0000
  H   H54       1.0  0.50207  0.17043  0.23128  1.0000
  C   C47       1.0  0.09436  0.19279  0.38121  1.0000
  H   H55       1.0  0.38729  0.04734  0.31110  1.0000
  H   H56       1.0  0.43471  0.25358  0.30026  1.0000
  H   H57       1.0  0.09287  0.16632  0.38771  1.0000
  C   C48       1.0  0.14695  0.16767  0.42701  1.0000
  C   C49       1.0  0.25111  0.26528  0.44877  1.0000
  H   H58       1.0  0.11872  0.29847  0.41114  1.0000
  H   H59       1.0  0.05497  0.18523  0.34605  1.0000
  H   H60       1.0  0.36798  0.30118  0.30569  1.0000
  H   H61       1.0  0.49721  0.26680  0.30275  1.0000
  H   H62       1.0  0.15603  0.20840  0.39473  1.0000
  H   H63       1.0  0.18109  0.21493  0.48671  1.0000
  N   N3        1.0  0.41695  0.08356  0.28588  1.0000
  H   H64       1.0  0.22520  0.23064  0.21318  1.0000
  C   C50       1.0  0.38976  0.09718  0.26467  1.0000
  C   C51       1.0  0.44026  0.11036  0.29596  1.0000
  C   C52       1.0  0.39637  0.10030  0.22751  1.0000
  H   H65       1.0  0.11239  0.19443  0.36065  1.0000
  C   C53       1.0  0.19071  0.24885  0.24845  1.0000
  H   H66       1.0  0.39247  0.11428  0.34637  1.0000
  H   H67       1.0  0.36750  0.08166  0.26664  1.0000
  H   H68       1.0  0.38216  0.12180  0.27344  1.0000
  H   H69       1.0  0.42648  0.13130  0.30687  1.0000
  H   H70       1.0  0.40863  0.30883  0.24311  1.0000
  H   H71       1.0  0.18419  0.27253  0.26017  1.0000
  H   H72       1.0  0.44904  0.14651  0.25691  1.0000
  H   H73       1.0  0.06003  0.22726  0.35653  1.0000
  H   H74       1.0  0.41860  0.11457  0.22175  1.0000
  C   C54       1.0  0.25785  0.18640  0.50320  1.0000
  H   H75       1.0  0.28162  0.21705  0.28385  1.0000
  C   C55       1.0  0.25662  0.21968  0.27334  1.0000
  H   H76       1.0  0.24005  0.22087  0.29492  1.0000
  C   C56       1.0  0.24787  0.18719  0.25589  1.0000
  H   H77       1.0  0.44424  0.06300  0.24458  1.0000
  H   H78       1.0  0.22507  0.23825  0.01817  1.0000
  H   H79       1.0  0.36852  0.07942  0.35727  1.0000
  H   H80       1.0  0.08301  0.20477  0.49221  1.0000
  H   H81       1.0  0.17470  0.30882  0.49591  1.0000
  H   H82       1.0  0.38138  0.26624  0.28142  1.0000
  C   C57       1.0  0.43382  0.05551  0.26854  1.0000
  H   H83       1.0  0.22238  0.17982  0.26194  1.0000
  H   H84       1.0  0.48942  0.32200  0.28269  1.0000
  H   H85       1.0  0.47370  0.02029  0.27136  1.0000
  H   H86       1.0  0.49632  0.26777  0.25865  1.0000
  C   C58       1.0  0.08347  0.20549  0.43880  1.0000
  H   H87       1.0  0.35654  0.29761  0.26367  1.0000
  H   H88       1.0  0.41483  0.29702  0.33327  1.0000
  H   H89       1.0  0.26343  0.16721  0.26596  1.0000
  C   C59       1.0  0.33446  0.31601  0.04822  1.0000
  H   H90       1.0  0.16835  0.32583  0.43515  1.0000
  H   H91       1.0  0.08144  0.24546  0.47494  1.0000
  H   H92       1.0  0.42083  0.06169  0.33447  1.0000
  H   H93       1.0  0.31238  0.31591  0.15321  1.0000
  H   H94       1.0  0.33231  0.30541  0.07246  1.0000
  H   H95       1.0  0.48121  0.05655  0.29474  1.0000
  H   H96       1.0  0.25186  0.31466  0.15604  1.0000
  H   H97       1.0  0.41563  0.03612  0.26227  1.0000
  C   C60       1.0  0.30006  0.32636  0.17413  1.0000
  H   H98       1.0  0.37547  0.11340  0.21591  1.0000
  H   H99       1.0  0.05815  0.21429  0.43367  1.0000
  H   H100      1.0  0.20963  0.29245  0.43178  1.0000
  N   N4        1.0  0.43911  0.30474  0.28649  1.0000
  C   C61       1.0  0.01968  0.29581  0.35785  1.0000
  C   C62       1.0  0.46482  0.32731  0.27244  1.0000
  H   H101      1.0  0.26910  0.27925  0.43399  1.0000
  H   H102      1.0  0.42716  0.33821  0.32597  1.0000
  H   H103      1.0  0.48521  0.23150  0.28005  1.0000
  N   N5        1.0  0.22412  0.31525  0.47768  1.0000
  H   H104      1.0  0.48700  0.31866  0.33627  1.0000
  H   H105      1.0  0.45904  0.31550  0.36966  1.0000
  H   H106      1.0  0.49238  0.33708  0.22740  1.0000
  H   H107      1.0  0.48099  0.26876  0.01946  1.0000
  C   C63       1.0  0.20305  0.20987  0.50052  1.0000
  C   C64       1.0  0.24495  0.33959  0.45930  1.0000
  S   S16       1.0  0.15090  0.33491  0.28046  1.0000
  H   H108      1.0  0.26791  0.30237  0.50523  1.0000
  C   C65       1.0  0.06295  0.33096  0.33591  1.0000
  H   H109      1.0  0.27644  0.25987  0.00670  1.0000
  H   H110      1.0  0.40098  0.33947  0.27264  1.0000
  Fe  Fe9       1.0  0.12349  0.25496  0.66284  1.0000
  C   C66       1.0  0.36513  0.32443  0.99818  1.0000
  H   H111      1.0  0.21789  0.26718  0.77408  1.0000
  Fe  Fe10      1.0  0.19093  0.22138  0.66771  1.0000
  S   S17       1.0  0.21517  0.25977  0.63671  1.0000
  S   S18       1.0  0.21842  0.17855  0.68984  1.0000
  H   H112      1.0  0.21409  0.23173  0.74867  1.0000
  Fe  Fe11      1.0  0.17118  0.25440  0.60433  1.0000
  S   S19       1.0  0.17462  0.24749  0.54884  1.0000
  S   S20       1.0  0.16409  0.25719  0.69964  1.0000
  S   S21       1.0  0.14792  0.21433  0.63415  1.0000
  Fe  Fe12      1.0  0.39225  0.16996  0.75104  1.0000
  S   S22       1.0  0.35773  0.15052  0.78910  1.0000
  S   S23       1.0  0.37205  0.19311  0.70497  1.0000
  Fe  Fe13      1.0  0.45289  0.15483  0.79288  1.0000
  S   S24       1.0  0.42212  0.13354  0.83327  1.0000
  Fe  Fe14      1.0  0.39369  0.10892  0.79268  1.0000
  S   S25       1.0  0.37902  0.05508  0.79290  1.0000
  Fe  Fe15      1.0  0.38971  0.17746  0.82469  1.0000
  S   S26       1.0  0.36862  0.20840  0.86590  1.0000
  S   S27       1.0  0.42692  0.12710  0.75271  1.0000
  S   S28       1.0  0.42204  0.19979  0.78632  1.0000
  C   C67       1.0  0.35614  0.04020  0.75913  1.0000
  C   C68       1.0  0.34376  0.06149  0.73518  1.0000
  C   C69       1.0  0.32499  0.04912  0.70903  1.0000
  H   H113      1.0  0.34351  0.11184  0.57789  1.0000
  H   H114      1.0  0.34846  0.08752  0.73699  1.0000
  H   H115      1.0  0.31512  0.06583  0.69103  1.0000
  H   H116      1.0  0.48015  0.21649  0.82740  1.0000
  C   C70       1.0  0.36727  0.25127  0.85984  1.0000
  C   C71       1.0  0.35371  0.27108  0.88437  1.0000
  C   C72       1.0  0.35209  0.30524  0.88047  1.0000
  C   C73       1.0  0.36413  0.31993  0.85189  1.0000
  C   C74       1.0  0.37828  0.30025  0.82754  1.0000
  C   C75       1.0  0.37953  0.26602  0.83137  1.0000
  H   H117      1.0  0.34483  0.26001  0.90663  1.0000
  H   H118      1.0  0.43014  0.26753  0.89234  1.0000
  H   H119      1.0  0.38777  0.31146  0.80541  1.0000
  H   H120      1.0  0.38967  0.25127  0.81206  1.0000
  C   C76       1.0  0.32448  0.28435  0.71932  1.0000
  C   C77       1.0  0.35081  0.12364  0.63896  1.0000
  H   H121      1.0  0.35789  0.13100  0.66422  1.0000
  C   C78       1.0  0.31885  0.01536  0.70618  1.0000
  C   C79       1.0  0.22679  0.04854  0.71716  1.0000
  H   H122      1.0  0.28765  0.26737  0.91557  1.0000
  H   H123      1.0  0.34642  0.06106  0.59205  1.0000
  C   C80       1.0  0.15837  0.02335  0.75843  1.0000
  N   N6        1.0  0.44467  0.25482  0.94220  1.0000
  H   H124      1.0  0.26870  0.25986  0.81814  1.0000
  C   C81       1.0  0.26134  0.18174  0.69221  1.0000
  C   C82       1.0  0.27872  0.15961  0.71197  1.0000
  C   C83       1.0  0.31278  0.16249  0.71544  1.0000
  C   C84       1.0  0.32970  0.18760  0.69934  1.0000
  C   C85       1.0  0.31256  0.20879  0.67844  1.0000
  C   C86       1.0  0.27848  0.20594  0.67497  1.0000
  H   H125      1.0  0.26579  0.14036  0.72487  1.0000
  H   H126      1.0  0.32594  0.14485  0.73008  1.0000
  H   H127      1.0  0.32560  0.22776  0.66523  1.0000
  H   H128      1.0  0.26567  0.22251  0.65898  1.0000
  H   H129      1.0  0.39546  0.26548  0.95901  1.0000
  C   C87       1.0  0.26000  0.19690  0.53596  1.0000
  C   C88       1.0  0.23399  0.21420  0.55080  1.0000
  C   C89       1.0  0.20558  0.22129  0.53293  1.0000
  H   H130      1.0  0.32666  0.23790  0.95557  1.0000
  H   H131      1.0  0.28221  0.19239  0.54967  1.0000
  H   H132      1.0  0.23640  0.22296  0.57571  1.0000
  H   H133      1.0  0.21680  0.06005  0.73966  1.0000
  H   H134      1.0  0.30497  0.07546  0.54426  1.0000
  H   H135      1.0  0.19778  0.30104  0.95025  1.0000
  Fe  Fe16      1.0  0.18498  0.29537  0.66616  1.0000
  C   C90       1.0  0.23046  0.24434  0.76636  1.0000
  H   H136      1.0  0.34261  0.32029  0.90010  1.0000
  C   C91       1.0  0.23515  0.32463  0.54020  1.0000
  H   H137      1.0  0.30124  0.32371  0.81634  1.0000
  H   H138      1.0  0.27977  0.22131  0.98765  1.0000
  C   C92       1.0  0.40530  0.21678  0.97523  1.0000
  S   S29       1.0  0.14319  0.29480  0.63024  1.0000
  C   C93       1.0  0.30103  0.32843  0.78953  1.0000
  H   H139      1.0  0.32887  0.21723  0.80433  1.0000
  S   S30       1.0  0.07008  0.25474  0.67887  1.0000
  C   C94       1.0  0.22183  0.31016  0.94161  1.0000
  H   H140      1.0  0.29108  0.20400  0.78622  1.0000
  C   C95       1.0  0.02485  0.28351  0.71992  1.0000
  H   H141      1.0  0.20586  0.24572  0.94482  1.0000
  H   H142      1.0  0.39700  0.23693  0.92705  1.0000
  H   H143      1.0  0.25390  0.20304  0.90338  1.0000
  H   H144      1.0  0.29310  0.20894  0.82923  1.0000
  C   C96       1.0  0.45961  0.27284  0.97091  1.0000
  C   C97       1.0  0.18122  0.32798  0.74870  1.0000
  H   H145      1.0  0.50445  0.25971  0.86254  1.0000
  H   H146      1.0  0.42956  0.19208  0.91164  1.0000
  H   H147      1.0  0.21722  0.12888  0.62720  1.0000
  H   H148      1.0  0.36199  0.09938  0.63457  1.0000
  C   C98       1.0  0.47416  0.25208  0.99903  1.0000
  H   H149      1.0  0.22166  0.33714  0.94560  1.0000
  H   H150      1.0  0.31021  0.26953  0.81757  1.0000
  C   C99       1.0  0.50477  0.21358  0.83665  1.0000
  C   C100      1.0  0.44352  0.27834  0.91346  1.0000
  H   H151      1.0  0.40126  0.22715  0.00011  1.0000
  H   H152      1.0  0.42556  0.19883  0.97619  1.0000
  C   C101      1.0  0.05679  0.28506  0.70710  1.0000
  H   H153      1.0  0.31996  0.28101  0.96387  1.0000
  H   H154      1.0  0.34134  0.27574  0.76878  1.0000
  C   C102      1.0  0.46615  0.22637  0.93203  1.0000
  H   H155      1.0  0.28230  0.20091  0.93688  1.0000
  H   H156      1.0  0.30522  0.27674  0.70181  1.0000
  H   H157      1.0  0.49701  0.23944  0.99129  1.0000
  H   H158      1.0  0.10149  0.31296  0.70612  1.0000
  H   H159      1.0  0.16243  0.05023  0.76031  1.0000
  N   N7        1.0  0.28845  0.26969  0.76929  1.0000
  C   C103      1.0  0.27752  0.30493  0.77158  1.0000
  C   C104      1.0  0.26347  0.25122  0.74930  1.0000
  C   C105      1.0  0.32133  0.26672  0.75267  1.0000
  C   C106      1.0  0.29137  0.25590  0.80345  1.0000
  H   H160      1.0  0.47140  0.20949  0.95267  1.0000
  H   H161      1.0  0.13925  0.01764  0.77700  1.0000
  H   H162      1.0  0.01124  0.33142  0.61221  1.0000
  H   H163      1.0  0.44822  0.21838  0.88122  1.0000
  H   H164      1.0  0.27261  0.31532  0.74677  1.0000
  H   H165      1.0  0.25377  0.30667  0.78479  1.0000
  H   H166      1.0  0.27335  0.22726  0.74097  1.0000
  H   H167      1.0  0.25754  0.26466  0.72622  1.0000
  H   H168      1.0  0.32757  0.24045  0.74826  1.0000
  C   C107      1.0  0.31700  0.25583  0.97359  1.0000
  H   H169      1.0  0.25006  0.12261  0.65516  1.0000
  H   H170      1.0  0.23303  0.27898  0.51570  1.0000
  H   H171      1.0  0.27312  0.30851  0.95321  1.0000
  H   H172      1.0  0.38338  0.20217  0.96849  1.0000
  H   H173      1.0  0.23340  0.08845  0.63236  1.0000
  H   H174      1.0  0.18592  0.23170  0.99983  1.0000
  H   H175      1.0  0.42663  0.32614  0.89659  1.0000
  C   C108      1.0  0.42718  0.31196  0.91991  1.0000
  H   H176      1.0  0.33854  0.04865  0.63397  1.0000
  H   H177      1.0  0.44129  0.28965  0.98235  1.0000
  H   H178      1.0  0.32295  0.10954  0.52356  1.0000
  C   C109      1.0  0.30180  0.21952  0.80567  1.0000
  H   H179      1.0  0.40147  0.30952  0.92809  1.0000
  H   H180      1.0  0.36175  0.14205  0.62212  1.0000
  H   H181      1.0  0.34846  0.27776  0.70815  1.0000
  C   C110      1.0  0.41007  0.24438  0.94975  1.0000
  C   C111      1.0  0.45249  0.20461  0.90425  1.0000
  H   H182      1.0  0.25385  0.04705  0.71903  1.0000
  H   H183      1.0  0.47068  0.18513  0.89840  1.0000
  H   H184      1.0  0.38715  0.32086  0.98396  1.0000
  C   C112      1.0  0.01263  0.30862  0.74028  1.0000
  C   C113      1.0  0.07681  0.31150  0.71574  1.0000
  H   H185      1.0  0.23325  0.22754  0.78758  1.0000
  H   H186      1.0  0.44108  0.32689  0.93784  1.0000
  H   H187      1.0  0.22408  0.30637  0.91479  1.0000
  N   N8        1.0  0.29822  0.10805  0.60617  1.0000
  C   C114      1.0  0.26395  0.12169  0.60246  1.0000
  C   C115      1.0  0.31714  0.11793  0.57590  1.0000
  C   C116      1.0  0.31312  0.12366  0.63629  1.0000
  C   C117      1.0  0.29572  0.07133  0.61026  1.0000
  C   C118      1.0  0.24021  0.11476  0.63116  1.0000
  C   C119      1.0  0.30549  0.10262  0.54333  1.0000
  C   C120      1.0  0.32780  0.05128  0.60907  1.0000
  H   H188      1.0  0.26463  0.14885  0.59883  1.0000
  H   H189      1.0  0.25170  0.11167  0.58032  1.0000
  H   H190      1.0  0.31656  0.14513  0.57287  1.0000
  H   H191      1.0  0.30573  0.14994  0.63811  1.0000
  H   H192      1.0  0.30370  0.11195  0.65906  1.0000
  H   H193      1.0  0.28432  0.06520  0.63434  1.0000
  H   H194      1.0  0.27839  0.06048  0.59221  1.0000
  N   N9        1.0  0.25578  0.25865  0.95758  1.0000
  H   H195      1.0  0.16319  0.31612  0.79703  1.0000
  C   C121      1.0  0.22451  0.24024  0.96399  1.0000
  H   H196      1.0  0.28129  0.11228  0.53559  1.0000
  H   H197      1.0  0.16372  0.31253  0.73654  1.0000
  C   C122      1.0  0.27506  0.21544  0.91512  1.0000
  H   H198      1.0  0.32399  0.31140  0.72212  1.0000
  H   H199      1.0  0.24722  0.25871  0.90514  1.0000
  H   H200      1.0  0.32233  0.02624  0.59980  1.0000
  H   H201      1.0  0.48013  0.28878  0.96239  1.0000
  C   C123      1.0  0.25073  0.29516  0.96104  1.0000
  H   H202      1.0  0.20498  0.02150  0.78230  1.0000
  H   H203      1.0  0.14761  0.01762  0.73429  1.0000
  C   C124      1.0  0.18055  0.33051  0.78306  1.0000
  H   H204      1.0  0.24724  0.30231  0.98719  1.0000
  C   C125      1.0  0.26665  0.25163  0.92292  1.0000
  H   H205      1.0  0.20980  0.32124  0.54959  1.0000
  H   H206      1.0  0.46872  0.28363  0.90433  1.0000
  H   H207      1.0  0.32634  0.32764  0.77981  1.0000
  H   H208      1.0  0.18731  0.01908  0.69946  1.0000
  C   C126      1.0  0.28116  0.24809  0.98245  1.0000
  H   H209      1.0  0.22874  0.21330  0.96211  1.0000
  C   C127      1.0  0.03252  0.33525  0.74862  1.0000
  H   H210      1.0  0.22144  0.06523  0.69626  1.0000
  C   C128      1.0  0.06478  0.33635  0.73658  1.0000
  H   H211      1.0  0.49075  0.23538  0.92425  1.0000
  H   H212      1.0  0.29627  0.21445  0.89797  1.0000
  C   C129      1.0  0.21172  0.01452  0.71024  1.0000
  H   H213      1.0  0.33246  0.25365  0.99593  1.0000
  H   H214      1.0  0.25172  0.31553  0.55986  1.0000
  C   C130      1.0  0.20878  0.24631  0.99792  1.0000
  H   H215      1.0  0.20187  0.27237  0.00159  1.0000
  H   H216      1.0  0.00934  0.26295  0.71375  1.0000
  H   H217      1.0  0.25593  0.00988  0.75956  1.0000
  H   H218      1.0  0.01826  0.33538  0.67252  1.0000
  C   C131      1.0  0.24093  0.30416  0.50890  1.0000
  Fe  Fe17      1.0  0.11341  0.37500  0.27768  1.0000
  S   S31       1.0  0.13465  0.40491  0.31870  1.0000
  H   H219      1.0  0.22827  0.38247  0.48880  1.0000
  Fe  Fe18      1.0  0.18037  0.36494  0.24512  1.0000
  S   S32       1.0  0.20648  0.39315  0.28420  1.0000
  S   S33       1.0  0.05957  0.36167  0.27543  1.0000
  Fe  Fe19      1.0  0.16515  0.42902  0.27919  1.0000
  S   S34       1.0  0.17692  0.48337  0.27857  1.0000
  S   S35       1.0  0.14047  0.40240  0.23786  1.0000
  H   H220      1.0  0.05225  0.63970  0.34055  1.0000
  S   S36       1.0  0.27568  0.62792  0.20828  1.0000
  H   H221      1.0  0.19063  0.34804  0.50379  1.0000
  S   S37       1.0  0.36111  0.34227  0.19783  1.0000
  S   S38       1.0  0.31563  0.62239  0.13834  1.0000
  H   H222      1.0  0.26871  0.39683  0.16831  1.0000
  Fe  Fe20      1.0  0.27283  0.59720  0.16281  1.0000
  S   S39       1.0  0.26300  0.54233  0.16255  1.0000
  H   H223      1.0  0.32134  0.38997  0.14950  1.0000
  S   S40       1.0  0.23541  0.62912  0.13801  1.0000
  H   H224      1.0  0.08625  0.34315  0.33904  1.0000
  H   H225      1.0  0.08184  0.59557  0.36784  1.0000
  H   H226      1.0  0.28127  0.41845  0.08012  1.0000
  H   H227      1.0  0.18468  0.58214  0.22385  1.0000
  H   H228      1.0  0.12483  0.64758  0.25299  1.0000
  H   H229      1.0  0.05688  0.64556  0.43570  1.0000
  H   H230      1.0  0.33725  0.47232  0.09703  1.0000
  H   H231      1.0  0.22886  0.58384  0.01231  1.0000
  N   N10       1.0  0.07826  0.64547  0.38671  1.0000
  H   H232      1.0  0.12864  0.66267  0.38663  1.0000
  H   H233      1.0  0.30865  0.50517  0.09556  1.0000
  Fe  Fe21      1.0  0.24051  0.66126  0.18243  1.0000
  H   H234      1.0  0.27348  0.42841  0.21663  1.0000
  C   C132      1.0  0.27140  0.42348  0.16354  1.0000
  H   H235      1.0  0.19626  0.59885  0.27970  1.0000
  H   H236      1.0  0.07737  0.53578  0.22993  1.0000
  C   C133      1.0  0.23968  0.52578  0.19523  1.0000
  C   C134      1.0  0.22152  0.49701  0.19023  1.0000
  C   C135      1.0  0.20338  0.48288  0.21602  1.0000
  C   C136      1.0  0.20289  0.49777  0.24695  1.0000
  C   C137      1.0  0.22128  0.52635  0.25200  1.0000
  C   C138      1.0  0.23959  0.54031  0.22629  1.0000
  H   H237      1.0  0.22095  0.48598  0.16615  1.0000
  H   H238      1.0  0.18901  0.46104  0.21173  1.0000
  H   H239      1.0  0.22155  0.53766  0.27599  1.0000
  H   H240      1.0  0.25392  0.56211  0.23067  1.0000
  H   H241      1.0  0.28524  0.46478  0.19585  1.0000
  H   H242      1.0  0.23504  0.65197  0.31766  1.0000
  H   H243      1.0  0.11896  0.57327  0.41066  1.0000
  H   H244      1.0  0.25516  0.36691  0.24729  1.0000
  Fe  Fe22      1.0  0.27826  0.65691  0.11709  1.0000
  H   H245      1.0  0.13111  0.54017  0.25703  1.0000
  H   H246      1.0  0.13930  0.56822  0.17411  1.0000
  H   H247      1.0  0.24622  0.43203  0.10155  1.0000
  H   H248      1.0  0.23553  0.64950  0.25711  1.0000
  C   C139      1.0  0.16450  0.59482  0.23723  1.0000
  H   H249      1.0  0.07977  0.59021  0.23351  1.0000
  H   H250      1.0  0.10404  0.59042  0.26956  1.0000
  H   H251      1.0  0.10327  0.50172  0.22093  1.0000
  C   C140      1.0  0.25706  0.38075  0.10774  1.0000
  C   C141      1.0  0.13047  0.54636  0.23048  1.0000
  H   H252      1.0  0.10442  0.62493  0.32939  1.0000
  C   C142      1.0  0.12861  0.58906  0.18834  1.0000
  H   H253      1.0  0.25504  0.39186  0.45642  1.0000
  H   H254      1.0  0.09679  0.64587  0.21850  1.0000
  C   C143      1.0  0.17081  0.59095  0.27438  1.0000
  H   H255      1.0  0.34010  0.42017  0.08252  1.0000
  H   H256      1.0  0.32508  0.37953  0.09070  1.0000
  C   C144      1.0  0.14575  0.61962  0.17400  1.0000
  H   H257      1.0  0.39749  0.67154  0.13665  1.0000
  H   H258      1.0  0.23574  0.34375  0.43385  1.0000
  H   H259      1.0  0.06570  0.59826  0.40772  1.0000
  H   H260      1.0  0.36366  0.39195  0.10632  1.0000
  C   C145      1.0  0.11813  0.60014  0.40606  1.0000
  C   C146      1.0  0.26867  0.41660  0.10419  1.0000
  H   H261      1.0  0.16813  0.62124  0.23207  1.0000
  C   C147      1.0  0.10224  0.63619  0.24329  1.0000
  H   H262      1.0  0.23670  0.37879  0.12575  1.0000
  H   H263      1.0  0.16902  0.56530  0.28307  1.0000
  N   N11       1.0  0.28973  0.42927  0.13182  1.0000
  H   H264      1.0  0.15237  0.53432  0.21940  1.0000
  C   C148      1.0  0.29363  0.46588  0.12792  1.0000
  H   H265      1.0  0.24595  0.43327  0.16199  1.0000
  H   H266      1.0  0.24739  0.37209  0.08380  1.0000
  H   H267      1.0  0.29924  0.46863  0.07374  1.0000
  H   H268      1.0  0.18417  0.36563  0.44586  1.0000
  H   H269      1.0  0.30819  0.47647  0.14836  1.0000
  H   H270      1.0  0.27715  0.36403  0.11521  1.0000
  C   C149      1.0  0.31069  0.47796  0.09649  1.0000
  H   H271      1.0  0.31303  0.42986  0.19770  1.0000
  H   H272      1.0  0.40354  0.65498  0.09663  1.0000
  H   H273      1.0  0.15438  0.60690  0.28897  1.0000
  H   H274      1.0  0.26924  0.47821  0.12907  1.0000
  N   N12       1.0  0.13174  0.58301  0.22491  1.0000
  C   C150      1.0  0.10006  0.52852  0.21683  1.0000
  S   S41       1.0  0.20619  0.34042  0.20256  1.0000
  C   C151      1.0  0.28714  0.43764  0.19490  1.0000
  C   C152      1.0  0.10371  0.59847  0.24346  1.0000
  H   H275      1.0  0.01770  0.60774  0.37865  1.0000
  S   S42       1.0  0.01371  0.67054  0.27380  1.0000
  H   H276      1.0  0.12250  0.61255  0.42984  1.0000
  C   C153      1.0  0.08453  0.60925  0.39128  1.0000
  C   C154      1.0  0.32267  0.41231  0.13384  1.0000
  H   H277      1.0  0.09691  0.53209  0.19005  1.0000
  H   H278      1.0  0.10237  0.59033  0.18096  1.0000
  H   H279      1.0  0.00895  0.43046  0.26369  1.0000
  C   C155      1.0  0.33835  0.40069  0.10129  1.0000
  C   C156      1.0  0.31814  0.34114  0.19919  1.0000
  H   H280      1.0  0.13853  0.62272  0.14791  1.0000
  C   C157      1.0  0.04844  0.65014  0.36549  1.0000
  H   H281      1.0  0.34084  0.42833  0.14635  1.0000
  Fe  Fe23      1.0  0.31422  0.65662  0.18150  1.0000
  C   C158      1.0  0.07339  0.66072  0.42014  1.0000
  C   C159      1.0  0.11762  0.64730  0.33686  1.0000
  C   C160      1.0  0.21762  0.66454  0.26927  1.0000
  Fe  Fe24      1.0  0.17378  0.36619  0.31916  1.0000
  C   C161      1.0  0.21721  0.66584  0.30370  1.0000
  H   H282      1.0  0.08178  0.64426  0.25938  1.0000
  H   H283      1.0  0.13852  0.60576  0.38892  1.0000
  H   H284      1.0  0.09701  0.66161  0.43375  1.0000
  H   H285      1.0  0.14410  0.64111  0.33771  1.0000
  C   C162      1.0  0.01650  0.63494  0.37871  1.0000
  H   H286      1.0  0.45960  0.35324  0.27945  1.0000
  H   H287      1.0  0.13946  0.64262  0.18687  1.0000
  H   H288      1.0  0.17277  0.61647  0.17430  1.0000
  C   C163      1.0  0.24925  0.34073  0.20192  1.0000
  C   C164      1.0  0.25014  0.37321  0.47573  1.0000
  H   H289      1.0  0.31553  0.36759  0.24483  1.0000
  H   H290      1.0  0.45635  0.66149  0.12509  1.0000
  H   H291      1.0  0.27128  0.37241  0.49284  1.0000
  C   C165      1.0  0.10685  0.66206  0.37019  1.0000
  C   C166      1.0  0.30172  0.35586  0.22549  1.0000
  H   H292      1.0  0.11416  0.66563  0.31702  1.0000
  C   C167      1.0  0.26740  0.35554  0.22690  1.0000
  S   S43       1.0  0.19434  0.34213  0.36444  1.0000
  H   H293      1.0  0.44911  0.34195  0.22278  1.0000
  H   H294      1.0  0.01016  0.64384  0.40359  1.0000
  H   H295      1.0  0.14693  0.35112  0.46358  1.0000
  C   C168      1.0  0.17176  0.34341  0.45547  1.0000
  S   S44       1.0  0.28071  0.67096  0.06316  1.0000
  C   C169      1.0  0.20804  0.62831  0.92972  1.0000
  Fe  Fe25      1.0  0.16456  0.61757  0.77689  1.0000
  S   S45       1.0  0.13312  0.63700  0.81776  1.0000
  S   S46       1.0  0.17766  0.56344  0.77362  1.0000
  C   C170      1.0  0.02960  0.63655  0.88437  1.0000
  C   C171      1.0  0.17171  0.62588  0.93969  1.0000
  H   H296      1.0  0.00997  0.41011  0.66509  1.0000
  C   C172      1.0  0.15678  0.45070  0.84220  1.0000
  S   S47       1.0  0.28114  0.34954  0.89311  1.0000
  S   S48       1.0  0.13649  0.64410  0.73727  1.0000
  H   H297      1.0  0.05483  0.64208  0.89289  1.0000
  Fe  Fe26      1.0  0.27821  0.38631  0.93388  1.0000
  S   S49       1.0  0.31637  0.41992  0.91291  1.0000
  C   C173      1.0  0.22997  0.63086  0.98720  1.0000
  Fe  Fe27      1.0  0.24318  0.37965  0.86739  1.0000
  S   S50       1.0  0.27911  0.41225  0.84169  1.0000
  H   H298      1.0  0.20894  0.64045  0.90519  1.0000
  Fe  Fe28      1.0  0.31686  0.38445  0.87069  1.0000
  H   H299      1.0  0.26853  0.59630  0.81903  1.0000
  Fe  Fe29      1.0  0.27429  0.44427  0.88621  1.0000
  S   S51       1.0  0.26682  0.49957  0.88434  1.0000
  H   H300      1.0  0.31200  0.53098  0.76231  1.0000
  S   S52       1.0  0.23591  0.41316  0.91051  1.0000
  C   C174      1.0  0.09828  0.47758  0.75231  1.0000
  H   H301      1.0  0.27150  0.60374  0.77612  1.0000
  H   H302      1.0  0.01385  0.63533  0.90651  1.0000
  H   H303      1.0  0.35442  0.52098  0.77110  1.0000
  C   C175      1.0  0.20074  0.54550  0.80560  1.0000
  C   C176      1.0  0.21218  0.51319  0.80204  1.0000
  C   C177      1.0  0.23128  0.49837  0.82667  1.0000
  C   C178      1.0  0.23953  0.51598  0.85489  1.0000
  C   C179      1.0  0.22795  0.54825  0.85858  1.0000
  C   C180      1.0  0.20845  0.56294  0.83413  1.0000
  H   H304      1.0  0.20683  0.49984  0.77978  1.0000
  H   H305      1.0  0.24042  0.47368  0.82336  1.0000
  H   H306      1.0  0.23430  0.56200  0.88030  1.0000
  H   H307      1.0  0.19978  0.58788  0.83707  1.0000
  H   H308      1.0  0.08262  0.42034  0.78179  1.0000
  C   C181      1.0  0.10668  0.38577  0.81328  1.0000
  H   H309      1.0  0.26496  0.61511  0.89697  1.0000
  C   C182      1.0  0.10290  0.42110  0.80007  1.0000
  H   H310      1.0  0.15736  0.45505  0.71975  1.0000
  C   C183      1.0  0.01861  0.66384  0.86051  1.0000
  H   H311      1.0  0.11473  0.36839  0.79397  1.0000
  S   S53       1.0  0.27709  0.37045  0.98740  1.0000
  H   H312      1.0  0.17892  0.44606  0.85740  1.0000
  C   C184      1.0  0.22359  0.37094  0.78083  1.0000
  C   C185      1.0  0.22451  0.36813  0.74648  1.0000
  S   S54       1.0  0.20261  0.65701  0.78020  1.0000
  H   H313      1.0  0.23955  0.38805  0.79286  1.0000
  H   H314      1.0  0.24161  0.38277  0.73243  1.0000
  H   H315      1.0  0.32704  0.56269  0.90826  1.0000
  C   C186      1.0  0.16181  0.43436  0.80843  1.0000
  C   C187      1.0  0.27747  0.61766  0.92101  1.0000
  H   H316      1.0  0.20604  0.63422  0.99988  1.0000
  S   S55       1.0  0.01761  0.36788  0.77322  1.0000
  H   H317      1.0  0.18382  0.44599  0.79747  1.0000
  N   N13       1.0  0.23008  0.64611  0.95346  1.0000
  N   N14       1.0  0.33328  0.56506  0.82225  1.0000
  H   H318      1.0  0.03967  0.38856  0.68844  1.0000
  H   H319      1.0  0.37813  0.56424  0.79382  1.0000
  H   H320      1.0  0.21638  0.60286  0.92506  1.0000
  C   C188      1.0  0.23995  0.59446  0.98977  1.0000
  H   H321      1.0  0.29226  0.35402  0.78631  1.0000
  Fe  Fe30      1.0  0.10767  0.66667  0.77840  1.0000
  H   H322      1.0  0.11910  0.48499  0.79953  1.0000
  H   H323      1.0  0.15874  0.61046  0.92138  1.0000
  H   H324      1.0  0.24028  0.35101  0.53677  1.0000
  C   C189      1.0  0.20387  0.34603  0.73033  1.0000
  H   H325      1.0  0.27049  0.56239  0.79032  1.0000
  H   H326      1.0  0.04015  0.38361  0.64521  1.0000
  H   H327      1.0  0.08243  0.37706  0.82208  1.0000
  H   H328      1.0  0.29962  0.65046  0.84041  1.0000
  H   H329      1.0  0.09584  0.45810  0.73363  1.0000
  C   C190      1.0  0.36997  0.56824  0.81955  1.0000
  H   H330      1.0  0.07445  0.48018  0.76528  1.0000
  C   C191      1.0  0.38443  0.60170  0.82993  1.0000
  C   C192      1.0  0.12629  0.47131  0.77703  1.0000
  N   N15       1.0  0.13324  0.43588  0.78505  1.0000
  H   H331      1.0  0.13572  0.44032  0.85581  1.0000
  H   H332      1.0  0.38255  0.54878  0.83409  1.0000
  H   H333      1.0  0.19062  0.43838  0.74414  1.0000
  H   H334      1.0  0.32392  0.61408  0.80383  1.0000
  H   H335      1.0  0.32754  0.58426  0.77283  1.0000
  C   C193      1.0  0.31767  0.58825  0.79798  1.0000
  H   H336      1.0  0.17332  0.41508  0.71149  1.0000
  H   H337      1.0  0.15434  0.47773  0.84015  1.0000
  H   H338      1.0  0.29499  0.56849  0.85889  1.0000
  C   C194      1.0  0.14218  0.41650  0.75476  1.0000
  H   H339      1.0  0.14867  0.48447  0.76862  1.0000
  H   H340      1.0  0.32273  0.49171  0.77822  1.0000
  C   C195      1.0  0.33846  0.55510  0.88471  1.0000
  C   C196      1.0  0.32159  0.57367  0.85629  1.0000
  H   H341      1.0  0.32406  0.60042  0.86101  1.0000
  C   C197      1.0  0.32394  0.52997  0.81522  1.0000
  H   H342      1.0  0.29793  0.52540  0.82175  1.0000
  H   H343      1.0  0.15263  0.39225  0.76164  1.0000
  C   C198      1.0  0.20222  0.35149  0.79930  1.0000
  C   C199      1.0  0.27995  0.58717  0.79609  1.0000
  C   C200      1.0  0.32878  0.51826  0.77955  1.0000
  H   H344      1.0  0.33504  0.52820  0.88292  1.0000
  H   H345      1.0  0.10339  0.50052  0.73845  1.0000
  H   H346      1.0  0.33819  0.51272  0.83090  1.0000
  H   H347      1.0  0.26694  0.66855  0.92249  1.0000
  H   H348      1.0  0.36491  0.56080  0.88657  1.0000
  H   H349      1.0  0.09330  0.43666  0.82036  1.0000
  C   C201      1.0  0.16732  0.43261  0.73153  1.0000
  H   H350      1.0  0.37640  0.62195  0.81360  1.0000
  C   C202      1.0  0.02357  0.38665  0.66654  1.0000
  H   H351      1.0  0.16852  0.61399  0.96396  1.0000
  H   H352      1.0  0.12018  0.41025  0.73996  1.0000
  H   H353      1.0  0.37876  0.60821  0.85573  1.0000
  H   H354      1.0  0.12372  0.38441  0.83442  1.0000
  H   H355      1.0  0.16922  0.40860  0.81304  1.0000
  H   H356      1.0  0.41155  0.60045  0.82798  1.0000
  H   H357      1.0  0.34129  0.35363  0.96075  1.0000
  S   S56       1.0  0.20153  0.35331  0.84251  1.0000
  H   H358      1.0  0.02609  0.37898  0.58806  1.0000
  S   S57       1.0  0.05235  0.67008  0.77298  1.0000
  H   H359      1.0  0.15946  0.65021  0.93929  1.0000
  H   H360      1.0  0.23904  0.65212  0.83873  1.0000
  H   H361      1.0  0.30386  0.62155  0.91565  1.0000
  S   S58       1.0  0.36119  0.36261  0.84600  1.0000
  H   H362      1.0  0.28241  0.65279  0.95980  1.0000
  H   H363      1.0  0.03612  0.66375  0.83955  1.0000
  H   H364      1.0  0.03089  0.61225  0.87223  1.0000
  H   H365      1.0  0.23065  0.57906  0.96957  1.0000
  H   H366      1.0  0.27538  0.59452  0.93498  1.0000
  C   C203      1.0  0.26453  0.64776  0.93994  1.0000
  H   H367      1.0  0.24730  0.64401  0.00358  1.0000
  H   H368      1.0  0.26699  0.59190  0.99154  1.0000
  C   C204      1.0  0.25237  0.67186  0.85018  1.0000
  C   C205      1.0  0.31068  0.34815  0.00345  1.0000
  C   C206      1.0  0.33920  0.34313  0.98507  1.0000
  H   H369      1.0  0.08035  0.35678  0.74291  1.0000
  C   C207      1.0  0.28671  0.67062  0.85160  1.0000
  S   S59       1.0  0.20696  0.34158  0.68739  1.0000
  H   H370      1.0  0.44949  0.76173  0.18430  1.0000
  H   H371      1.0  0.46461  0.84422  0.39019  1.0000
  Fe  Fe31      1.0  0.17805  0.73721  0.38337  1.0000
  S   S60       1.0  0.15616  0.77421  0.34924  1.0000
  Fe  Fe32      1.0  0.16751  0.78082  0.44395  1.0000
  S   S61       1.0  0.14368  0.82031  0.41357  1.0000
  C   C208      1.0  0.19514  0.68285  0.25094  1.0000
  Fe  Fe33      1.0  0.11719  0.77924  0.38767  1.0000
  S   S62       1.0  0.06241  0.77702  0.37690  1.0000
  Fe  Fe34      1.0  0.18513  0.81060  0.37831  1.0000
  S   S63       1.0  0.21226  0.85045  0.35097  1.0000
  S   S64       1.0  0.13789  0.74035  0.42078  1.0000
  S   S65       1.0  0.21021  0.77315  0.40991  1.0000
  Fe  Fe35      1.0  0.38752  0.92942  0.25250  1.0000
  S   S66       1.0  0.41967  0.91226  0.29380  1.0000
  C   C209      1.0  0.36488  0.85786  0.09040  1.0000
  Fe  Fe36      1.0  0.38631  0.86133  0.22052  1.0000
  S   S67       1.0  0.41763  0.83957  0.25990  1.0000
  S   S68       1.0  0.36712  0.82956  0.17940  1.0000
  Fe  Fe37      1.0  0.38620  0.86870  0.29446  1.0000
  S   S69       1.0  0.36720  0.84554  0.34101  1.0000
  Fe  Fe38      1.0  0.44785  0.88485  0.25473  1.0000
  S   S70       1.0  0.35253  0.88719  0.25524  1.0000
  S   S71       1.0  0.41838  0.90556  0.21299  1.0000
  C   C210      1.0  0.33245  0.99691  0.34209  1.0000
  H   H372      1.0  0.32498  0.71636  0.09650  1.0000
  C   C211      1.0  0.04874  0.74915  0.34650  1.0000
  N   N16       1.0  0.26462  0.93467  0.41987  1.0000
  C   C212      1.0  0.05953  0.69599  0.42053  1.0000
  H   H373      1.0  0.29416  0.88523  0.45632  1.0000
  H   H374      1.0  0.22866  0.81756  0.47268  1.0000
  C   C213      1.0  0.25541  0.84980  0.35015  1.0000
  C   C214      1.0  0.27189  0.87216  0.32994  1.0000
  C   C215      1.0  0.30621  0.87171  0.32789  1.0000
  C   C216      1.0  0.32435  0.84863  0.34570  1.0000
  C   C217      1.0  0.30797  0.82720  0.36699  1.0000
  C   C218      1.0  0.27360  0.82767  0.36909  1.0000
  H   H375      1.0  0.25808  0.88981  0.31567  1.0000
  H   H376      1.0  0.31854  0.88966  0.31296  1.0000
  H   H377      1.0  0.32182  0.80965  0.38134  1.0000
  H   H378      1.0  0.26134  0.81079  0.38527  1.0000
  H   H379      1.0  0.23869  0.77475  0.31895  1.0000
  H   H380      1.0  0.09633  0.74042  0.32555  1.0000
  H   H381      1.0  0.41229  0.74501  0.12355  1.0000
  H   H382      1.0  0.30792  0.81201  0.23408  1.0000
  C   C219      1.0  0.35329  0.73957  0.05796  1.0000
  C   C220      1.0  0.32963  0.71769  0.07045  1.0000
  H   H383      1.0  0.36719  0.75466  0.07462  1.0000
  H   H384      1.0  0.23445  0.94650  0.35434  1.0000
  H   H385      1.0  0.28247  0.79255  0.06701  1.0000
  C   C221      1.0  0.17148  0.70162  0.26734  1.0000
  H   H386      1.0  0.15257  0.71722  0.31401  1.0000
  H   H387      1.0  0.15358  0.71544  0.25341  1.0000
  C   C222      1.0  0.36031  0.71946  0.20056  1.0000
  C   C223      1.0  0.37064  0.74083  0.22528  1.0000
  C   C224      1.0  0.37203  0.77474  0.21930  1.0000
  C   C225      1.0  0.36459  0.78726  0.18816  1.0000
  C   C226      1.0  0.35497  0.76562  0.16336  1.0000
  C   C227      1.0  0.35260  0.73192  0.16959  1.0000
  H   H388      1.0  0.37666  0.73125  0.24932  1.0000
  H   H389      1.0  0.37824  0.79103  0.23899  1.0000
  H   H390      1.0  0.34941  0.77475  0.13923  1.0000
  H   H391      1.0  0.34571  0.71535  0.15016  1.0000
  H   H392      1.0  0.01856  0.80784  0.45831  1.0000
  C   C228      1.0  0.28249  0.81078  0.08729  1.0000
  H   H393      1.0  0.07656  0.69984  0.28491  1.0000
  H   H394      1.0  0.47563  0.83543  0.20662  1.0000
  H   H395      1.0  0.43437  0.78357  0.30095  1.0000
  H   H396      1.0  0.36085  0.95932  0.31757  1.0000
  C   C229      1.0  0.31100  0.88020  0.07816  1.0000
  C   C230      1.0  0.39138  0.83086  0.08785  1.0000
  H   H397      1.0  0.45835  0.76223  0.27148  1.0000
  H   H398      1.0  0.25926  0.98152  0.34742  1.0000
  C   C231      1.0  0.29101  0.71196  0.25840  1.0000
  C   C232      1.0  0.48773  0.79448  0.30173  1.0000
  H   H399      1.0  0.31942  0.82586  0.12240  1.0000
  C   C233      1.0  0.34671  0.99770  0.28408  1.0000
  C   C234      1.0  0.44511  0.68365  0.11367  1.0000
  H   H400      1.0  0.39411  0.69745  0.10069  1.0000
  H   H401      1.0  0.32291  0.90063  0.06442  1.0000
  C   C235      1.0  0.19456  0.68584  0.32003  1.0000
  H   H402      1.0  0.28692  0.87703  0.06610  1.0000
  H   H403      1.0  0.27155  0.79904  0.10936  1.0000
  H   H404      1.0  0.30085  0.76891  0.33340  1.0000
  H   H405      1.0  0.24078  0.95904  0.46061  1.0000
  H   H406      1.0  0.31522  0.93444  0.40401  1.0000
  S   S72       1.0  0.36813  0.98162  0.24983  1.0000
  H   H407      1.0  0.50095  0.79159  0.17286  1.0000
  H   H408      1.0  0.33370  0.98492  0.36572  1.0000
  H   H409      1.0  0.25095  0.86440  0.42952  1.0000
  H   H410      1.0  0.46249  0.85356  0.31485  1.0000
  H   H411      1.0  0.29140  0.87378  0.12848  1.0000
  H   H412      1.0  0.37511  0.88029  0.07856  1.0000
  H   H413      1.0  0.27167  0.74579  0.35672  1.0000
  H   H414      1.0  0.48753  0.81233  0.28101  1.0000
  H   H415      1.0  0.36289  0.86364  0.11698  1.0000
  H   H416      1.0  0.26581  0.83128  0.08132  1.0000
  H   H417      1.0  0.23041  0.88789  0.46182  1.0000
  C   C236      1.0  0.30355  0.89268  0.11316  1.0000
  H   H418      1.0  0.32580  0.90176  0.12579  1.0000
  C   C237      1.0  0.46161  0.85847  0.36725  1.0000
  H   H419      1.0  0.10146  0.68841  0.36565  1.0000
  H   H420      1.0  0.23990  0.97973  0.40531  1.0000
  C   C238      1.0  0.05939  0.71109  0.30173  1.0000
  H   H421      1.0  0.26600  0.92639  0.47287  1.0000
  H   H422      1.0  0.31785  0.75446  0.27631  1.0000
  C   C239      1.0  0.07067  0.73417  0.32474  1.0000
  H   H423      1.0  0.50012  0.74172  0.13972  1.0000
  H   H424      1.0  0.35738  0.85409  0.02928  1.0000
  C   C240      1.0  0.29206  0.97103  0.46373  1.0000
  C   C241      1.0  0.26453  0.94672  0.45488  1.0000
  C   C242      1.0  0.34783  0.98231  0.31478  1.0000
  C   C243      1.0  0.28496  0.82182  0.24489  1.0000
  H   H425      1.0  0.43779  0.82472  0.33486  1.0000
  H   H426      1.0  0.29321  0.97367  0.49085  1.0000
  C   C244      1.0  0.46203  0.83665  0.33635  1.0000
  H   H427      1.0  0.46055  0.74912  0.38153  1.0000
  H   H428      1.0  0.41467  0.84050  0.09807  1.0000
  H   H429      1.0  0.33271  0.79918  0.09171  1.0000
  C   C245      1.0  0.17125  0.70316  0.30174  1.0000
  C   C246      1.0  0.22702  0.82369  0.49843  1.0000
  C   C247      1.0  0.31095  0.89373  0.43695  1.0000
  N   N17       1.0  0.45497  0.71410  0.13207  1.0000
  H   H430      1.0  0.39645  0.82355  0.06213  1.0000
  N   N18       1.0  0.33180  0.84963  0.07601  1.0000
  H   H431      1.0  0.27874  0.94252  0.35130  1.0000
  C   C248      1.0  0.25521  0.75644  0.30707  1.0000
  H   H432      1.0  0.29547  0.72566  0.32593  1.0000
  H   H433      1.0  0.49929  0.71934  0.10336  1.0000
  C   C249      1.0  0.29567  0.91661  0.41072  1.0000
  C   C250      1.0  0.45720  0.73659  0.19134  1.0000
  H   H434      1.0  0.23408  0.90487  0.38846  1.0000
  H   H435      1.0  0.18848  0.77711  0.23842  1.0000
  H   H436      1.0  0.29166  0.90167  0.38834  1.0000
  H   H437      1.0  0.23162  0.73773  0.24837  1.0000
  H   H438      1.0  0.30242  0.75784  0.23637  1.0000
  H   H439      1.0  0.21124  0.81033  0.25553  1.0000
  H   H440      1.0  0.04384  0.67658  0.36108  1.0000
  C   C251      1.0  0.23482  0.91366  0.41417  1.0000
  H   H441      1.0  0.48422  0.73529  0.19391  1.0000
  H   H442      1.0  0.28229  0.70528  0.23349  1.0000
  H   H443      1.0  0.27371  0.70179  0.27653  1.0000
  C   C252      1.0  0.20728  0.78347  0.25703  1.0000
  C   C253      1.0  0.45795  0.77562  0.37562  1.0000
  H   H444      1.0  0.43758  0.87131  0.36870  1.0000
  H   H445      1.0  0.26504  0.82148  0.22648  1.0000
  H   H446      1.0  0.45002  0.68594  0.17735  1.0000
  H   H447      1.0  0.20800  0.87031  0.42897  1.0000
  C   C254      1.0  0.25829  0.95776  0.36077  1.0000
  H   H448      1.0  0.21201  0.92834  0.41778  1.0000
  C   C255      1.0  0.31167  0.69787  0.04903  1.0000
  C   C256      1.0  0.23881  0.76393  0.24960  1.0000
  C   C257      1.0  0.29556  0.74944  0.26142  1.0000
  H   H449      1.0  0.28960  0.84802  0.25068  1.0000
  C   C258      1.0  0.43895  0.74433  0.11780  1.0000
  S   S73       1.0  0.19648  0.68363  0.20771  1.0000
  H   H450      1.0  0.07395  0.71278  0.40494  1.0000
  C   C259      1.0  0.44257  0.74895  0.08033  1.0000
  H   H451      1.0  0.19688  0.77704  0.28135  1.0000
  H   H452      1.0  0.24678  0.76982  0.22415  1.0000
  H   H453      1.0  0.44906  0.76690  0.12930  1.0000
  H   H454      1.0  0.44661  0.73179  0.21601  1.0000
  C   C260      1.0  0.23149  0.88252  0.43522  1.0000
  N   N19       1.0  0.26631  0.76836  0.27374  1.0000
  H   H455      1.0  0.27127  0.85249  0.49844  1.0000
  S   S74       1.0  0.19604  0.68892  0.36312  1.0000
  H   H456      1.0  0.38506  0.80900  0.10272  1.0000
  H   H457      1.0  0.23995  0.73403  0.30504  1.0000
  C   C261      1.0  0.27558  0.80397  0.27694  1.0000
  S   S75       1.0  0.27913  0.69255  0.15894  1.0000
  H   H458      1.0  0.33260  0.90548  0.44843  1.0000
  H   H459      1.0  0.32050  0.87131  0.42467  1.0000
  C   C262      1.0  0.50152  0.83020  0.20889  1.0000
  H   H460      1.0  0.25541  0.81830  0.28847  1.0000
  H   H461      1.0  0.29677  0.80677  0.29380  1.0000
  C   C263      1.0  0.35891  0.74195  0.02399  1.0000
  H   H462      1.0  0.46847  0.75082  0.07246  1.0000
  C   C264      1.0  0.49160  0.71791  0.12950  1.0000
  C   C265      1.0  0.02616  0.70240  0.30048  1.0000
  C   C266      1.0  0.31768  0.82155  0.09546  1.0000
  H   H463      1.0  0.03353  0.69694  0.41277  1.0000
  C   C267      1.0  0.26139  0.96446  0.39796  1.0000
  C   C268      1.0  0.28266  0.74893  0.33194  1.0000
  H   H464      1.0  0.41708  0.71199  0.16892  1.0000
  H   H465      1.0  0.43699  0.77769  0.35867  1.0000
  S   S76       1.0  0.50328  0.87992  0.25500  1.0000
  H   H466      1.0  0.43011  0.72939  0.06621  1.0000
  S   S77       1.0  0.17034  0.78640  0.49953  1.0000
  H   H467      1.0  0.28308  0.98065  0.40055  1.0000
  H   H468      1.0  0.28644  0.91386  0.11155  1.0000
  H   H469      1.0  0.45481  0.68402  0.08812  1.0000
  C   C269      1.0  0.44411  0.71063  0.16728  1.0000
  H   H470      1.0  0.31469  0.69938  0.26314  1.0000
  H   H471      1.0  0.06059  0.70579  0.44594  1.0000
  C   C270      1.0  0.01534  0.74117  0.34462  1.0000
  H   H472      1.0  0.43064  0.77234  0.07308  1.0000
  C   C271      1.0  0.45830  0.77135  0.29717  1.0000
  H   H473      1.0  0.45142  0.78771  0.39917  1.0000
  H   H474      1.0  0.28532  0.83178  0.02567  1.0000
  C   C272      1.0  0.33698  0.83981  0.04058  1.0000
  S   S78       1.0  0.35796  0.67715  0.20794  1.0000
  H   H475      1.0  0.46035  0.74948  0.31326  1.0000
  H   H476      1.0  0.48064  0.87782  0.36585  1.0000
  H   H477      1.0  0.50194  0.67940  0.16706  1.0000
  N   N20       1.0  0.48996  0.81242  0.33405  1.0000
  H   H478      1.0  0.34469  0.81370  0.03902  1.0000
  H   H479      1.0  0.28703  0.99583  0.45355  1.0000
  H   H480      1.0  0.31643  0.96254  0.45526  1.0000
  C   C273      1.0  0.30785  0.84387  0.01686  1.0000
  C   C274      1.0  0.49114  0.78869  0.36253  1.0000
  C   C275      1.0  0.40791  0.67698  0.11207  1.0000
  C   C276      1.0  0.31780  0.69997  0.01524  1.0000
  H   H481      1.0  0.50336  0.80038  0.38397  1.0000
  H   H482      1.0  0.30288  0.87016  0.01166  1.0000
  S   S79       1.0  0.38773  0.77042  0.00863  1.0000
  S   S80       1.0  0.14087  0.70996  0.78441  1.0000
  S   S81       1.0  0.49760  0.77084  0.88578  1.0000
  H   H483      1.0  0.12245  0.81238  0.60976  1.0000
  Fe  Fe39      1.0  0.38127  0.80938  0.88887  1.0000
  S   S82       1.0  0.40369  0.76969  0.85807  1.0000
  S   S83       1.0  0.35951  0.85494  0.86593  1.0000
  Fe  Fe40      1.0  0.39357  0.77173  0.95310  1.0000
  S   S84       1.0  0.41761  0.73001  0.92630  1.0000
  H   H484      1.0  0.40403  0.94649  0.75133  1.0000
  Fe  Fe41      1.0  0.44292  0.76936  0.89654  1.0000
  H   H485      1.0  0.33354  0.78940  0.73909  1.0000
  Fe  Fe42      1.0  0.37562  0.73538  0.89080  1.0000
  H   H486      1.0  0.31436  0.83227  0.99301  1.0000
  S   S85       1.0  0.42177  0.81081  0.92601  1.0000
  S   S86       1.0  0.35052  0.77528  0.91924  1.0000
  Fe  Fe43      1.0  0.31588  0.87964  0.68375  1.0000
  S   S87       1.0  0.28083  0.91229  0.71042  1.0000
  S   S88       1.0  0.35654  0.85314  0.71050  1.0000
  Fe  Fe44      1.0  0.28072  0.88983  0.61782  1.0000
  S   S89       1.0  0.24382  0.92428  0.64022  1.0000
  S   S90       1.0  0.27975  0.87794  0.56329  1.0000
  Fe  Fe45      1.0  0.28670  0.94602  0.66745  1.0000
  H   H487      1.0  0.40499  0.95378  0.85269  1.0000
  Fe  Fe46      1.0  0.24226  0.88707  0.68085  1.0000
  S   S91       1.0  0.19686  0.86980  0.70701  1.0000
  S   S92       1.0  0.32397  0.91460  0.64180  1.0000
  S   S93       1.0  0.27692  0.85154  0.65722  1.0000
  C   C277      1.0  0.36067  0.85627  0.82276  1.0000
  C   C278      1.0  0.33906  0.87701  0.80592  1.0000
  C   C279      1.0  0.33802  0.87678  0.77148  1.0000
  C   C280      1.0  0.35861  0.85588  0.75362  1.0000
  C   C281      1.0  0.38139  0.83643  0.77044  1.0000
  C   C282      1.0  0.38250  0.83673  0.80485  1.0000
  H   H488      1.0  0.32257  0.89274  0.81956  1.0000
  H   H489      1.0  0.32117  0.89267  0.75898  1.0000
  H   H490      1.0  0.39802  0.82081  0.75683  1.0000
  H   H491      1.0  0.40057  0.82214  0.81737  1.0000
  C   C283      1.0  0.23740  0.75302  0.79253  1.0000
  C   C284      1.0  0.19005  0.00428  0.76726  1.0000
  H   H492      1.0  0.14442  0.96229  0.73225  1.0000
  H   H493      1.0  0.23879  0.82249  0.79339  1.0000
  H   H494      1.0  0.40367  0.90528  0.73723  1.0000
  C   C285      1.0  0.04139  0.75354  0.71901  1.0000
  H   H495      1.0  0.22036  0.77378  0.78905  1.0000
  H   H496      1.0  0.05554  0.77532  0.71380  1.0000
  C   C286      1.0  0.19252  0.75767  0.70443  1.0000
  C   C287      1.0  0.17917  0.77494  0.73095  1.0000
  C   C288      1.0  0.17970  0.80942  0.73132  1.0000
  C   C289      1.0  0.19355  0.82680  0.70510  1.0000
  C   C290      1.0  0.20582  0.80956  0.67809  1.0000
  C   C291      1.0  0.20559  0.77514  0.67789  1.0000
  H   H497      1.0  0.16897  0.76188  0.75149  1.0000
  H   H498      1.0  0.16998  0.82258  0.75223  1.0000
  H   H499      1.0  0.21515  0.82270  0.65707  1.0000
  H   H500      1.0  0.21557  0.76203  0.65704  1.0000
  C   C292      1.0  0.41937  0.92415  0.74886  1.0000
  H   H501      1.0  0.27528  0.84698  0.79030  1.0000
  N   N21       1.0  0.10640  0.76542  0.63007  1.0000
  C   C293      1.0  0.25588  0.83435  0.77613  1.0000
  C   C294      1.0  0.28730  0.72126  0.88217  1.0000
  C   C295      1.0  0.25295  0.72250  0.88090  1.0000
  C   C296      1.0  0.49480  0.81835  0.83720  1.0000
  H   H502      1.0  0.30033  0.74033  0.89467  1.0000
  H   H503      1.0  0.23998  0.74263  0.89241  1.0000
  H   H504      1.0  0.22598  0.00328  0.68977  1.0000
  H   H505      1.0  0.33044  0.76449  0.83634  1.0000
  H   H506      1.0  0.32717  0.96793  0.72802  1.0000
  S   S94       1.0  0.29406  0.00101  0.67352  1.0000
  H   H507      1.0  0.43007  0.97981  0.78606  1.0000
  C   C297      1.0  0.19976  0.81904  0.55091  1.0000
  C   C298      1.0  0.22373  0.83921  0.56547  1.0000
  C   C299      1.0  0.24947  0.85169  0.54650  1.0000
  H   H508      1.0  0.31975  0.80805  0.79388  1.0000
  H   H509      1.0  0.24197  0.85376  0.76295  1.0000
  H   H510      1.0  0.18006  0.80946  0.56578  1.0000
  H   H511      1.0  0.22228  0.84513  0.59130  1.0000
  H   H512      1.0  0.15225  0.79182  0.63277  1.0000
  H   H513      1.0  0.34550  0.72324  0.97654  1.0000
  H   H514      1.0  0.23484  0.96797  0.80109  1.0000
  C   C300      1.0  0.23912  0.70531  0.97520  1.0000
  C   C301      1.0  0.27084  0.81054  0.75069  1.0000
  Fe  Fe47      1.0  0.17124  0.68595  0.74544  1.0000
  C   C302      1.0  0.30273  0.76535  0.70351  1.0000
  H   H515      1.0  0.01904  0.72248  0.82764  1.0000
  C   C303      1.0  0.09953  0.71130  0.66331  1.0000
  H   H516      1.0  0.21479  0.94796  0.70872  1.0000
  H   H517      1.0  0.09078  0.82442  0.66386  1.0000
  H   H518      1.0  0.04683  0.81913  0.62454  1.0000
  C   C304      1.0  0.21712  0.68075  0.95666  1.0000
  C   C305      1.0  0.30438  0.69521  0.86769  1.0000
  C   C306      1.0  0.26350  0.75150  0.76533  1.0000
  H   H519      1.0  0.08565  0.76315  0.56061  1.0000
  H   H520      1.0  0.16008  0.97379  0.69176  1.0000
  H   H521      1.0  0.14451  0.74065  0.60258  1.0000
  C   C307      1.0  0.31393  0.77043  0.73938  1.0000
  H   H522      1.0  0.14218  0.74206  0.66169  1.0000
  H   H523      1.0  0.07364  0.80987  0.59059  1.0000
  H   H524      1.0  0.44493  0.88778  0.77765  1.0000
  H   H525      1.0  0.38364  0.94822  0.81401  1.0000
  C   C308      1.0  0.30337  0.78646  0.79605  1.0000
  H   H526      1.0  0.12663  0.80896  0.68481  1.0000
  C   C309      1.0  0.48249  0.94172  0.78247  1.0000
  H   H527      1.0  0.40895  0.90370  0.79585  1.0000
  C   C310      1.0  0.43992  0.89213  0.84947  1.0000
  H   H528      1.0  0.32461  0.76046  0.68802  1.0000
  H   H529      1.0  0.24336  0.69791  0.00103  1.0000
  H   H530      1.0  0.46815  0.93664  0.85332  1.0000
  C   C311      1.0  0.34116  0.72192  0.00271  1.0000
  S   S95       1.0  0.19346  0.71442  0.70341  1.0000
  C   C312      1.0  0.00961  0.75053  0.70623  1.0000
  C   C313      1.0  0.11777  0.74610  0.60060  1.0000
  C   C314      1.0  0.46299  0.91793  0.83412  1.0000
  H   H531      1.0  0.22228  0.73043  0.79135  1.0000
  C   C315      1.0  0.43135  0.91109  0.78237  1.0000
  H   H532      1.0  0.43975  0.92846  0.73143  1.0000
  H   H533      1.0  0.29062  0.78738  0.69311  1.0000
  N   N22       1.0  0.45219  0.93416  0.80240  1.0000
  H   H534      1.0  0.44930  0.88500  0.87406  1.0000
  H   H535      1.0  0.41457  0.90106  0.85278  1.0000
  H   H536      1.0  0.26285  0.70938  0.96256  1.0000
  H   H537      1.0  0.47623  0.95565  0.75984  1.0000
  C   C316      1.0  0.11734  0.81937  0.66149  1.0000
  Fe  Fe48      1.0  0.16976  0.67807  0.81887  1.0000
  H   H538      1.0  0.10562  0.70112  0.68790  1.0000
  H   H539      1.0  0.35918  0.98978  0.77479  1.0000
  H   H540      1.0  0.10525  0.72197  0.59942  1.0000
  C   C317      1.0  0.43461  0.96604  0.80923  1.0000
  H   H541      1.0  0.10969  0.69374  0.64520  1.0000
  C   C318      1.0  0.32410  0.75834  0.81056  1.0000
  C   C319      1.0  0.33154  0.99400  0.72992  1.0000
  C   C320      1.0  0.03653  0.70088  0.74667  1.0000
  H   H542      1.0  0.10805  0.75872  0.68306  1.0000
  H   H543      1.0  0.27611  0.96290  0.78736  1.0000
  H   H544      1.0  0.34764  0.75540  0.79724  1.0000
  C   C321      1.0  0.12544  0.79707  0.63196  1.0000
  H   H545      1.0  0.45000  0.98255  0.82443  1.0000
  H   H546      1.0  0.25133  0.80428  0.73282  1.0000
  H   H547      1.0  0.31075  0.73476  0.81105  1.0000
  H   H548      1.0  0.32618  0.74713  0.74670  1.0000
  H   H549      1.0  0.28628  0.74389  0.70100  1.0000
  C   C322      1.0  0.11520  0.74562  0.66023  1.0000
  H   H550      1.0  0.49495  0.85264  0.79680  1.0000
  H   H551      1.0  0.28513  0.79332  0.81507  1.0000
  H   H552      1.0  0.27679  0.72784  0.76853  1.0000
  C   C323      1.0  0.23538  0.69793  0.86470  1.0000
  H   H553      1.0  0.24990  0.74888  0.74188  1.0000
  H   H554      1.0  0.24566  0.93615  0.77178  1.0000
  H   H555      1.0  0.28853  0.82598  0.73663  1.0000
  C   C324      1.0  0.06979  0.77057  0.62957  1.0000
  C   C325      1.0  0.05636  0.79924  0.60847  1.0000
  H   H556      1.0  0.05714  0.74779  0.62151  1.0000
  H   H557      1.0  0.06077  0.77515  0.65490  1.0000
  H   H558      1.0  0.07243  0.71213  0.66178  1.0000
  H   H559      1.0  0.24829  0.75362  0.81738  1.0000
  H   H560      1.0  0.19764  0.94027  0.74807  1.0000
  H   H561      1.0  0.22657  0.72951  0.97594  1.0000
  H   H562      1.0  0.21241  0.69159  0.93203  1.0000
  H   H563      1.0  0.12341  0.74564  0.54767  1.0000
  H   H564      1.0  0.12996  0.84330  0.65824  1.0000
  H   H565      1.0  0.12388  0.78593  0.56373  1.0000
  H   H566      1.0  0.19311  0.68110  0.96961  1.0000
  N   N23       1.0  0.28732  0.77973  0.76345  1.0000
  H   H567      1.0  0.07938  0.73144  0.74857  1.0000
  H   H568      1.0  0.47010  0.81000  0.83259  1.0000
  H   H569      1.0  0.48658  0.90458  0.83074  1.0000
  C   C326      1.0  0.40170  0.96332  0.82747  1.0000
  H   H570      1.0  0.43949  0.86939  0.83453  1.0000
  C   C327      1.0  0.24513  0.98639  0.75090  1.0000
  C   C328      1.0  0.05492  0.72872  0.73886  1.0000
  C   C329      1.0  0.11207  0.76168  0.56661  1.0000
  C   C330      1.0  0.19799  0.95837  0.72765  1.0000
  H   H571      1.0  0.26103  0.97811  0.73036  1.0000
  H   H572      1.0  0.03482  0.79053  0.59431  1.0000
  S   S96       1.0  0.19228  0.69924  0.86460  1.0000
  S   S97       1.0  0.34752  0.69220  0.86962  1.0000
  C   C331      1.0  0.25008  0.96186  0.77941  1.0000
  H   H573      1.0  0.39089  0.98827  0.82987  1.0000
  H   H574      1.0  0.49445  0.91850  0.77412  1.0000
  N   N24       1.0  0.21036  0.99130  0.73912  1.0000
  H   H575      1.0  0.18309  0.98388  0.78410  1.0000
  C   C332      1.0  0.20112  0.81143  0.51725  1.0000
  H   H576      1.0  0.02334  0.68733  0.87326  1.0000
  H   H577      1.0  0.15839  0.93214  0.70417  1.0000
  H   H578      1.0  0.50068  0.98761  0.80494  1.0000
  C   C333      1.0  0.16320  0.95739  0.71321  1.0000
  C   C334      1.0  0.25112  0.84354  0.51305  1.0000
  H   H579      1.0  0.30461  0.68434  0.99870  1.0000
  C   C335      1.0  0.34983  0.00643  0.75641  1.0000
  Fe  Fe49      1.0  0.67524  0.10756  0.26456  1.0000
  S   S98       1.0  0.64484  0.12859  0.30541  1.0000
  S   S99       1.0  0.68271  0.05226  0.26499  1.0000
  Fe  Fe50      1.0  0.68472  0.17556  0.23323  1.0000
  S   S100      1.0  0.65555  0.20093  0.27241  1.0000
  S   S101      1.0  0.70887  0.20285  0.19132  1.0000
  Fe  Fe51      1.0  0.68323  0.16786  0.30687  1.0000
  S   S102      1.0  0.70519  0.18683  0.35414  1.0000
  Fe  Fe52      1.0  0.62041  0.15922  0.26627  1.0000
  S   S103      1.0  0.56512  0.16446  0.26193  1.0000
  S   S104      1.0  0.71491  0.14532  0.26796  1.0000
  S   S105      1.0  0.64809  0.13524  0.22509  1.0000
  H   H580      1.0  0.59145  0.22539  0.23538  1.0000
  Fe  Fe53      1.0  0.94924  0.26705  0.39410  1.0000
  H   H581      1.0  0.62243  0.20929  0.08998  1.0000
  Fe  Fe54      1.0  0.88454  0.23062  0.38302  1.0000
  S   S106      1.0  0.85478  0.27088  0.40564  1.0000
  S   S107      1.0  0.86021  0.18609  0.36097  1.0000
  C   C336      1.0  0.62184  0.19754  0.15175  1.0000
  Fe  Fe55      1.0  0.89364  0.27089  0.44436  1.0000
  H   H582      1.0  0.62409  0.18852  0.17739  1.0000
  S   S108      1.0  0.91465  0.26419  0.35145  1.0000
  S   S109      1.0  0.92209  0.22864  0.42337  1.0000
  H   H583      1.0  0.85397  0.21425  0.46927  1.0000
  H   H584      1.0  0.76443  0.26782  0.23230  1.0000
  N   N25       1.0  0.79810  0.26343  0.27300  1.0000
  H   H585      1.0  0.64108  0.18468  0.13734  1.0000
  C   C337      1.0  0.79238  0.25526  0.05077  1.0000
  H   H586      1.0  0.83771  0.10087  0.37461  1.0000
  H   H587      1.0  0.75136  0.13299  0.40757  1.0000
  H   H588      1.0  0.79631  0.30028  0.44040  1.0000
  H   H589      1.0  0.79083  0.33222  0.32442  1.0000
  N   N26       1.0  0.74428  0.25532  0.49228  1.0000
  H   H590      1.0  0.79671  0.10743  0.45903  1.0000
  C   C338      1.0  0.71474  0.03583  0.28915  1.0000
  C   C339      1.0  0.74414  0.05279  0.29355  1.0000
  C   C340      1.0  0.76949  0.03883  0.31235  1.0000
  C   C341      1.0  0.78764  0.08562  0.38345  1.0000
  C   C342      1.0  0.77636  0.24060  0.29218  1.0000
  H   H591      1.0  0.74746  0.07651  0.28211  1.0000
  H   H592      1.0  0.79226  0.05200  0.31517  1.0000
  H   H593      1.0  0.63478  0.23296  0.03776  1.0000
  C   C343      1.0  0.70936  0.24607  0.19239  1.0000
  C   C344      1.0  0.69461  0.26367  0.21789  1.0000
  C   C345      1.0  0.69565  0.29809  0.21820  1.0000
  C   C346      1.0  0.71117  0.31518  0.19279  1.0000
  C   C347      1.0  0.72481  0.29765  0.16660  1.0000
  C   C348      1.0  0.72416  0.26321  0.16655  1.0000
  H   H594      1.0  0.68245  0.25096  0.23750  1.0000
  H   H595      1.0  0.68447  0.31149  0.23823  1.0000
  H   H596      1.0  0.73505  0.31058  0.14592  1.0000
  H   H597      1.0  0.73481  0.24979  0.14629  1.0000
  C   C349      1.0  0.74823  0.18594  0.35617  1.0000
  C   C350      1.0  0.76673  0.16456  0.33674  1.0000
  C   C351      1.0  0.80104  0.16476  0.33847  1.0000
  C   C352      1.0  0.81712  0.18611  0.35991  1.0000
  C   C353      1.0  0.79856  0.20667  0.38021  1.0000
  C   C354      1.0  0.76425  0.20686  0.37802  1.0000
  H   H598      1.0  0.75478  0.14741  0.32078  1.0000
  H   H599      1.0  0.81517  0.14829  0.32313  1.0000
  H   H600      1.0  0.81047  0.22215  0.39783  1.0000
  H   H601      1.0  0.75004  0.22358  0.39284  1.0000
  C   C355      1.0  0.54854  0.19486  0.23567  1.0000
  N   N27       1.0  0.62013  0.25341  0.12023  1.0000
  C   C356      1.0  0.79156  0.30529  0.32021  1.0000
  H   H602      1.0  0.85026  0.27290  0.26910  1.0000
  C   C357      1.0  0.55238  0.24684  0.20658  1.0000
  C   C358      1.0  0.56665  0.22250  0.22656  1.0000
  H   H603      1.0  0.72770  0.11136  0.43667  1.0000
  H   H604      1.0  0.56623  0.26853  0.20032  1.0000
  C   C359      1.0  0.77125  0.05368  0.43169  1.0000
  H   H605      1.0  0.65967  0.23056  0.09314  1.0000
  C   C360      1.0  0.83659  0.28735  0.02587  1.0000
  H   H606      1.0  0.83835  0.25524  0.30678  1.0000
  H   H607      1.0  0.87113  0.20627  0.09565  1.0000
  C   C361      1.0  0.76880  0.26206  0.46536  1.0000
  H   H608      1.0  0.86830  0.32462  0.07258  1.0000
  H   H609      1.0  0.82293  0.31100  0.02487  1.0000
  C   C362      1.0  0.00211  0.30009  0.32871  1.0000
  H   H610      1.0  0.76504  0.27076  0.09478  1.0000
  C   C363      1.0  0.63893  0.28531  0.12133  1.0000
  C   C364      1.0  0.71824  0.30708  0.04716  1.0000
  H   H611      1.0  0.77939  0.10167  0.36316  1.0000
  H   H612      1.0  0.69228  0.08122  0.35614  1.0000
  H   H613      1.0  0.81281  0.31442  0.27301  1.0000
  H   H614      1.0  0.81818  0.17078  0.49231  1.0000
  H   H615      1.0  0.87111  0.21749  0.27422  1.0000
  H   H616      1.0  0.83177  0.20031  0.28091  1.0000
  H   H617      1.0  0.72755  0.24436  0.31407  1.0000
  H   H618      1.0  0.86293  0.29422  0.02681  1.0000
  H   H619      1.0  0.73268  0.27192  0.28078  1.0000
  C   C365      1.0  0.85064  0.23979  0.05951  1.0000
  H   H620      1.0  0.76915  0.29486  0.33149  1.0000
  H   H621      1.0  0.80976  0.31114  0.08112  1.0000
  H   H622      1.0  0.70704  0.11614  0.37770  1.0000
  H   H623      1.0  0.57021  0.21360  0.09520  1.0000
  H   H624      1.0  0.79661  0.30459  0.48379  1.0000
  H   H625      1.0  0.70187  0.29522  0.06432  1.0000
  S   S110      1.0  0.00466  0.27024  0.38963  1.0000
  H   H626      1.0  0.72778  0.22898  0.27269  1.0000
  C   C366      1.0  0.74080  0.33053  0.05854  1.0000
  C   C367      1.0  0.62738  0.23494  0.15159  1.0000
  C   C368      1.0  0.75274  0.11262  0.42581  1.0000
  H   H627      1.0  0.75942  0.25531  0.44086  1.0000
  C   C369      1.0  0.79288  0.29873  0.28295  1.0000
  C   C370      1.0  0.79007  0.25991  0.23710  1.0000
  H   H628      1.0  0.67644  0.25312  0.45726  1.0000
  C   C371      1.0  0.81168  0.27994  0.21337  1.0000
  H   H629      1.0  0.77022  0.30920  0.27189  1.0000
  H   H630      1.0  0.71413  0.21334  0.44380  1.0000
  H   H631      1.0  0.79073  0.23373  0.22936  1.0000
  C   C372      1.0  0.84710  0.21789  0.09018  1.0000
  H   H632      1.0  0.75570  0.19847  0.44773  1.0000
  C   C373      1.0  0.51616  0.19176  0.22450  1.0000
  C   C374      1.0  0.71480  0.09278  0.36611  1.0000
  H   H633      1.0  0.83166  0.08690  0.41550  1.0000
  C   C375      1.0  0.83332  0.25455  0.27995  1.0000
  C   C376      1.0  0.69453  0.27343  0.45642  1.0000
  H   H634      1.0  0.81983  0.27906  0.10793  1.0000
  C   C377      1.0  0.82777  0.29095  0.08482  1.0000
  C   C378      1.0  0.84474  0.22045  0.26810  1.0000
  H   H635      1.0  0.63336  0.30086  0.09958  1.0000
  C   C379      1.0  0.71360  0.27574  0.48899  1.0000
  C   C380      1.0  0.77168  0.24783  0.08161  1.0000
  H   H636      1.0  0.83784  0.27275  0.21463  1.0000
  H   H637      1.0  0.84251  0.21756  0.24117  1.0000
  H   H638      1.0  0.82879  0.19822  0.08600  1.0000
  H   H639      1.0  0.77768  0.27345  0.03675  1.0000
  H   H640      1.0  0.59736  0.19028  0.14303  1.0000
  S   S111      1.0  0.92356  0.30935  0.41841  1.0000
  Fe  Fe56      1.0  0.88755  0.30453  0.37718  1.0000
  C   C381      1.0  0.56036  0.23291  0.11144  1.0000
  C   C382      1.0  0.58416  0.26155  0.11767  1.0000
  H   H641      1.0  0.81351  0.29581  0.33310  1.0000
  H   H642      1.0  0.77995  0.21482  0.28400  1.0000
  H   H643      1.0  0.78369  0.23060  0.09874  1.0000
  H   H644      1.0  0.75981  0.02915  0.47769  1.0000
  C   C383      1.0  0.78083  0.29780  0.46270  1.0000
  H   H645      1.0  0.74821  0.23647  0.07385  1.0000
  H   H646      1.0  0.72489  0.03476  0.45234  1.0000
  H   H647      1.0  0.84848  0.22278  0.03831  1.0000
  H   H648      1.0  0.53833  0.24246  0.09854  1.0000
  H   H649      1.0  0.71096  0.06281  0.40852  1.0000
  H   H650      1.0  0.57534  0.27330  0.14066  1.0000
  H   H651      1.0  0.81679  0.12696  0.40227  1.0000
  C   C384      1.0  0.77607  0.12403  0.45354  1.0000
  C   C385      1.0  0.63268  0.23439  0.09104  1.0000
  H   H652      1.0  0.78334  0.24004  0.31854  1.0000
  H   H653      1.0  0.79583  0.05778  0.44225  1.0000
  H   H654      1.0  0.68102  0.29678  0.45232  1.0000
  H   H655      1.0  0.57945  0.28076  0.09877  1.0000
  H   H656      1.0  0.80335  0.27544  0.18783  1.0000
  C   C386      1.0  0.86118  0.30697  0.09206  1.0000
  C   C387      1.0  0.52027  0.24334  0.19484  1.0000
  H   H657      1.0  0.00132  0.32233  0.28073  1.0000
  H   H658      1.0  0.76036  0.31550  0.46010  1.0000
  H   H659      1.0  0.71835  0.30215  0.49402  1.0000
  N   N28       1.0  0.76098  0.08087  0.40865  1.0000
  H   H660      1.0  0.71015  0.27071  0.43445  1.0000
  H   H661      1.0  0.78683  0.14815  0.44699  1.0000
  H   H662      1.0  0.73047  0.09787  0.34458  1.0000
  H   H663      1.0  0.97886  0.28794  0.32551  1.0000
  H   H664      1.0  0.88080  0.28855  0.09593  1.0000
  C   C388      1.0  0.73080  0.06885  0.39086  1.0000
  H   H665      1.0  0.65348  0.23809  0.15852  1.0000
  H   H666      1.0  0.61304  0.24516  0.17240  1.0000
  H   H667      1.0  0.63905  0.29497  0.17491  1.0000
  H   H668      1.0  0.87652  0.24821  0.05793  1.0000
  S   S112      1.0  0.88052  0.27350  0.49841  1.0000
  H   H669      1.0  0.73612  0.04561  0.37748  1.0000
  H   H670      1.0  0.55214  0.22179  0.13492  1.0000
  H   H671      1.0  0.80926  0.30672  0.21770  1.0000
  C   C389      1.0  0.73913  0.24707  0.28955  1.0000
  C   C390      1.0  0.82000  0.10087  0.39535  1.0000
  H   H672      1.0  0.79403  0.06170  0.37205  1.0000
  C   C391      1.0  0.63261  0.30732  0.15155  1.0000
  H   H673      1.0  0.60695  0.31625  0.15258  1.0000
  H   H674      1.0  0.64851  0.32937  0.14979  1.0000
  H   H675      1.0  0.77424  0.03018  0.41790  1.0000
  H   H676      1.0  0.84082  0.23149  0.11276  1.0000
  H   H677      1.0  0.85922  0.32142  0.11511  1.0000
  C   C392      1.0  0.62592  0.24995  0.05718  1.0000
  H   H678      1.0  0.74183  0.06902  0.47495  1.0000
  H   H679      1.0  0.59942  0.25392  0.05278  1.0000
  C   C393      1.0  0.74779  0.04672  0.46061  1.0000
  H   H680      1.0  0.63944  0.27323  0.05360  1.0000
  C   C394      1.0  0.84662  0.21517  0.49479  1.0000
  H   H681      1.0  0.79249  0.23269  0.03535  1.0000
  N   N29       1.0  0.82680  0.26786  0.05592  1.0000
  H   H682      1.0  0.66585  0.28056  0.12042  1.0000
  H   H683      1.0  0.76222  0.12760  0.47677  1.0000
  C   C395      1.0  0.89026  0.32769  0.25665  1.0000
  C   C396      1.0  0.73181  0.20133  0.46040  1.0000
  H   H684      1.0  0.79088  0.24626  0.46864  1.0000
  H   H685      1.0  0.92607  0.00671  0.25673  1.0000
  H   H686      1.0  0.90600  0.31064  0.24371  1.0000
  H   H687      1.0  0.74161  0.33675  0.08433  1.0000
  H   H688      1.0  0.90441  0.31030  0.30432  1.0000
  C   C397      1.0  0.71719  0.29857  0.01377  1.0000
  H   H689      1.0  0.72244  0.17622  0.46517  1.0000
  C   C398      1.0  0.88909  0.32720  0.29108  1.0000
  C   C399      1.0  0.73621  0.21915  0.49344  1.0000
  C   C400      1.0  0.76540  0.00814  0.32752  1.0000
  H   H690      1.0  0.89669  0.01023  0.28791  1.0000
  H   H691      1.0  0.75606  0.20531  0.50615  1.0000
  H   H692      1.0  0.63992  0.09348  0.84804  1.0000
  H   H693      1.0  0.57806  0.09600  0.79931  1.0000
  H   H694      1.0  0.84575  0.24745  0.98998  1.0000
  C   C401      1.0  0.89322  0.16652  0.58171  1.0000
  Fe  Fe57      1.0  0.74484  0.17243  0.67379  1.0000
  S   S113      1.0  0.77905  0.14301  0.70515  1.0000
  S   S114      1.0  0.70663  0.20381  0.69810  1.0000
  Fe  Fe58      1.0  0.78200  0.15647  0.61046  1.0000
  S   S115      1.0  0.81854  0.12556  0.63756  1.0000
  S   S116      1.0  0.78846  0.16201  0.55539  1.0000
  Fe  Fe59      1.0  0.77507  0.10535  0.66521  1.0000
  S   S117      1.0  0.76703  0.05045  0.67107  1.0000
  Fe  Fe60      1.0  0.81823  0.16659  0.67441  1.0000
  S   S118      1.0  0.86410  0.18840  0.69656  1.0000
  S   S119      1.0  0.73826  0.13362  0.63529  1.0000
  S   S120      1.0  0.78407  0.19842  0.64568  1.0000
  Fe  Fe61      1.0  0.68917  0.30232  0.88286  1.0000
  S   S121      1.0  0.71882  0.26275  0.90688  1.0000
  H   H695      1.0  0.55769  0.24919  0.80318  1.0000
  Fe  Fe62      1.0  0.62384  0.26731  0.89689  1.0000
  S   S122      1.0  0.64928  0.22563  0.92233  1.0000
  S   S123      1.0  0.56868  0.26815  0.88959  1.0000
  Fe  Fe63      1.0  0.68017  0.26484  0.94604  1.0000
  C   C402      1.0  0.82633  0.19058  0.50786  1.0000
  Fe  Fe64      1.0  0.68506  0.22865  0.88037  1.0000
  S   S124      1.0  0.70351  0.18476  0.85214  1.0000
  S   S125      1.0  0.65215  0.30660  0.92348  1.0000
  S   S126      1.0  0.65766  0.26805  0.85365  1.0000
  C   C403      1.0  0.81642  0.19158  0.54082  1.0000
  C   C404      1.0  0.82739  0.21712  0.56087  1.0000
  C   C405      1.0  0.84725  0.24202  0.54768  1.0000
  H   H696      1.0  0.67872  0.09210  0.73632  1.0000
  H   H697      1.0  0.66167  0.07107  0.70233  1.0000
  H   H698      1.0  0.76254  0.31377  0.90025  1.0000
  H   H699      1.0  0.81972  0.21835  0.58622  1.0000
  H   H700      1.0  0.85474  0.26231  0.56302  1.0000
  S   S127      1.0  0.69100  0.26683  0.00062  1.0000
  C   C406      1.0  0.70784  0.19863  0.74086  1.0000
  C   C407      1.0  0.71120  0.16734  0.75464  1.0000
  C   C408      1.0  0.71059  0.16334  0.78887  1.0000
  C   C409      1.0  0.70662  0.19059  0.80945  1.0000
  C   C410      1.0  0.70463  0.22198  0.79562  1.0000
  C   C411      1.0  0.70477  0.22596  0.76141  1.0000
  H   H701      1.0  0.71363  0.14611  0.73891  1.0000
  H   H702      1.0  0.71293  0.13908  0.79942  1.0000
  H   H703      1.0  0.70342  0.24325  0.81122  1.0000
  H   H704      1.0  0.70296  0.25028  0.75091  1.0000
  H   H705      1.0  0.75658  0.26249  0.57758  1.0000
  C   C412      1.0  0.74484  0.03380  0.70462  1.0000
  C   C413      1.0  0.73943  0.05166  0.73345  1.0000
  C   C414      1.0  0.72268  0.03715  0.76001  1.0000
  H   H706      1.0  0.74864  0.07643  0.73550  1.0000
  H   H707      1.0  0.71904  0.05095  0.78236  1.0000
  S   S128      1.0  0.50809  0.15680  0.79965  1.0000
  H   H708      1.0  0.65218  0.11953  0.77832  1.0000
  C   C415      1.0  0.83138  0.27042  0.99234  1.0000
  H   H709      1.0  0.88467  0.11298  0.58200  1.0000
  H   H710      1.0  0.61611  0.25325  0.69435  1.0000
  N   N30       1.0  0.62328  0.07452  0.78009  1.0000
  C   C416      1.0  0.63617  0.06083  0.74806  1.0000
  H   H711      1.0  0.59440  0.20511  0.86763  1.0000
  C   C417      1.0  0.58992  0.08980  0.77547  1.0000
  C   C418      1.0  0.52329  0.18609  0.82771  1.0000
  C   C419      1.0  0.87729  0.29999  0.69312  1.0000
  C   C420      1.0  0.89700  0.28052  0.71340  1.0000
  C   C421      1.0  0.89322  0.24628  0.71379  1.0000
  C   C422      1.0  0.86969  0.23125  0.69390  1.0000
  C   C423      1.0  0.85136  0.25061  0.67225  1.0000
  C   C424      1.0  0.85518  0.28482  0.67181  1.0000
  H   H712      1.0  0.91531  0.29166  0.72871  1.0000
  H   H713      1.0  0.90819  0.23148  0.73000  1.0000
  H   H714      1.0  0.83436  0.23945  0.65565  1.0000
  H   H715      1.0  0.84039  0.29961  0.65544  1.0000
  C   C425      1.0  0.55102  0.23529  0.86772  1.0000
  C   C426      1.0  0.73856  0.31395  0.99177  1.0000
  H   H716      1.0  0.78496  0.32240  0.77297  1.0000
  C   C427      1.0  0.64763  0.09823  0.79458  1.0000
  C   C428      1.0  0.55539  0.18290  0.83955  1.0000
  C   C429      1.0  0.56934  0.20747  0.85930  1.0000
  C   C430      1.0  0.56068  0.25434  0.73556  1.0000
  H   H717      1.0  0.56963  0.16154  0.83301  1.0000
  H   H718      1.0  0.65706  0.13141  0.83517  1.0000
  N   N31       1.0  0.81590  0.26099  0.78545  1.0000
  C   C431      1.0  0.80512  0.27589  0.75322  1.0000
  C   C432      1.0  0.82328  0.22527  0.77902  1.0000
  C   C433      1.0  0.84693  0.27816  0.79573  1.0000
  C   C434      1.0  0.78893  0.26610  0.81035  1.0000
  C   C435      1.0  0.97759  0.28713  0.64747  1.0000
  C   C436      1.0  0.79456  0.20495  0.76554  1.0000
  C   C437      1.0  0.86402  0.26542  0.82688  1.0000
  C   C438      1.0  0.78829  0.24276  0.84037  1.0000
  H   H719      1.0  0.82280  0.26966  0.73338  1.0000
  H   H720      1.0  0.78121  0.26554  0.74523  1.0000
  H   H721      1.0  0.83200  0.21227  0.80117  1.0000
  H   H722      1.0  0.84388  0.22285  0.76122  1.0000
  H   H723      1.0  0.86531  0.27729  0.77553  1.0000
  H   H724      1.0  0.84227  0.30462  0.80053  1.0000
  H   H725      1.0  0.78945  0.29167  0.81979  1.0000
  H   H726      1.0  0.76455  0.26345  0.79840  1.0000
  H   H727      1.0  0.95818  0.14393  0.58836  1.0000
  C   C439      1.0  0.61970  0.04645  0.80412  1.0000
  H   H728      1.0  0.56476  0.30540  0.81972  1.0000
  H   H729      1.0  0.80130  0.17853  0.76624  1.0000
  H   H730      1.0  0.77213  0.20795  0.78044  1.0000
  H   H731      1.0  0.78931  0.21107  0.73952  1.0000
  H   H732      1.0  0.84920  0.27055  0.84910  1.0000
  N   N32       1.0  0.91829  0.17259  0.60836  1.0000
  H   H733      1.0  0.87092  0.23919  0.82541  1.0000
  H   H734      1.0  0.78143  0.25707  0.86252  1.0000
  H   H735      1.0  0.81158  0.23032  0.84619  1.0000
  H   H736      1.0  0.76870  0.22410  0.83757  1.0000
  H   H737      1.0  0.92315  0.21085  0.64574  1.0000
  H   H738      1.0  0.73807  0.30744  0.96605  1.0000
  H   H739      1.0  0.89580  0.18451  0.56136  1.0000
  C   C440      1.0  0.59252  0.21146  0.76320  1.0000
  H   H740      1.0  0.88429  0.20821  0.62820  1.0000
  C   C441      1.0  0.60096  0.01594  0.79172  1.0000
  C   C442      1.0  0.89375  0.13243  0.56524  1.0000
  C   C443      1.0  0.62301  0.20024  0.78288  1.0000
  H   H741      1.0  0.76324  0.29153  0.52655  1.0000
  H   H742      1.0  0.95274  0.18247  0.56923  1.0000
  H   H743      1.0  0.57083  0.20018  0.77518  1.0000
  H   H744      1.0  0.60907  0.13639  0.75443  1.0000
  C   C444      1.0  0.57941  0.26180  0.79300  1.0000
  C   C445      1.0  0.91082  0.20621  0.62208  1.0000
  H   H745      1.0  0.61419  0.29080  0.74249  1.0000
  H   H746      1.0  0.99470  0.20232  0.59925  1.0000
  C   C446      1.0  0.65515  0.08438  0.72524  1.0000
  H   H747      1.0  0.91666  0.12188  0.62453  1.0000
  C   C447      1.0  0.91305  0.14695  0.63458  1.0000
  H   H748      1.0  0.87651  0.13286  0.54413  1.0000
  H   H749      1.0  0.63834  0.26392  0.76629  1.0000
  H   H750      1.0  0.94612  0.23794  0.59601  1.0000
  H   H751      1.0  0.88727  0.27918  0.83007  1.0000
  H   H752      1.0  0.91062  0.25848  0.61146  1.0000
  C   C448      1.0  0.76144  0.33693  0.00325  1.0000
  C   C449      1.0  0.74288  0.25302  0.55603  1.0000
  H   H753      1.0  0.96094  0.14134  0.65908  1.0000
  H   H754      1.0  0.59387  0.19971  0.73858  1.0000
  H   H755      1.0  0.52457  0.21756  0.75304  1.0000
  H   H756      1.0  0.61452  0.12456  0.82863  1.0000
  H   H757      1.0  0.51681  0.25890  0.76742  1.0000
  H   H758      1.0  0.57273  0.07169  0.76467  1.0000
  H   H759      1.0  0.58403  0.11251  0.72694  1.0000
  C   C450      1.0  0.95836  0.31901  0.65490  1.0000
  C   C451      1.0  0.91939  0.23551  0.59964  1.0000
  H   H760      1.0  0.56653  0.13539  0.76057  1.0000
  H   H761      1.0  0.71753  0.26255  0.55791  1.0000
  H   H762      1.0  0.56546  0.24109  0.71216  1.0000
  H   H763      1.0  0.59512  0.31342  0.78937  1.0000
  C   C452      1.0  0.76036  0.26446  0.52436  1.0000
  C   C453      1.0  0.80078  0.31354  0.75269  1.0000
  H   H764      1.0  0.55268  0.30667  0.77767  1.0000
  H   H765      1.0  0.93449  0.17178  0.67836  1.0000
  H   H766      1.0  0.80515  0.26552  0.98726  1.0000
  C   C454      1.0  0.58771  0.12003  0.75286  1.0000
  H   H767      1.0  0.67200  0.08607  0.79709  1.0000
  H   H768      1.0  0.82315  0.31430  0.89914  1.0000
  C   C455      1.0  0.93536  0.14814  0.66507  1.0000
  H   H769      1.0  0.61605  0.18069  0.80047  1.0000
  H   H770      1.0  0.64138  0.18901  0.76621  1.0000
  H   H771      1.0  0.64086  0.10622  0.71797  1.0000
  H   H772      1.0  0.61598  0.04988  0.73338  1.0000
  H   H773      1.0  0.63493  0.21959  0.79752  1.0000
  H   H774      1.0  0.91818  0.12586  0.55538  1.0000
  H   H775      1.0  0.55953  0.28074  0.72863  1.0000
  C   C456      1.0  0.63877  0.11243  0.82852  1.0000
  H   H776      1.0  0.92657  0.12945  0.68289  1.0000
  H   H777      1.0  0.57529  0.02164  0.78502  1.0000
  H   H778      1.0  0.59912  0.25696  0.81111  1.0000
  H   H779      1.0  0.90759  0.23418  0.57532  1.0000
  H   H780      1.0  0.63986  0.22393  0.71787  1.0000
  C   C457      1.0  0.52596  0.24395  0.74658  1.0000
  H   H781      1.0  0.64423  0.03770  0.81240  1.0000
  C   C458      1.0  0.51855  0.23802  0.85669  1.0000
  H   H782      1.0  0.93464  0.31602  0.64204  1.0000
  H   H783      1.0  0.86789  0.16991  0.59147  1.0000
  H   H784      1.0  0.65353  0.04031  0.75282  1.0000
  H   H785      1.0  0.88729  0.14793  0.64353  1.0000
  H   H786      1.0  0.98789  0.30728  0.74965  1.0000
  H   H787      1.0  0.78889  0.32079  0.72927  1.0000
  C   C459      1.0  0.61866  0.26431  0.74741  1.0000
  N   N33       1.0  0.58791  0.24803  0.75979  1.0000
  C   C460      1.0  0.95208  0.17004  0.59362  1.0000
  H   H788      1.0  0.74287  0.22588  0.55851  1.0000
  C   C461      1.0  0.63300  0.25011  0.71539  1.0000
  H   H789      1.0  0.65586  0.26350  0.70917  1.0000
  C   C462      1.0  0.57266  0.29900  0.79438  1.0000
  C   C463      1.0  0.77507  0.32707  0.88117  1.0000
  H   H790      1.0  0.60678  0.05454  0.82679  1.0000
  C   C464      1.0  0.98089  0.18404  0.61401  1.0000
  H   H791      1.0  0.97376  0.19617  0.63718  1.0000
  C   C465      1.0  0.85681  0.24120  0.51458  1.0000
  H   H792      1.0  0.96525  0.26620  0.65982  1.0000
  H   H793      1.0  0.95190  0.31885  0.68154  1.0000
  C   C466      1.0  0.80948  0.32788  0.88086  1.0000
  H   H794      1.0  0.78560  0.25441  0.52533  1.0000
  H   H795      1.0  0.00317  0.28758  0.65621  1.0000
  H   H796      1.0  0.82475  0.32634  0.75324  1.0000
  H   H797      1.0  0.50861  0.24797  0.72597  1.0000
  H   H798      1.0  0.99851  0.16418  0.62027  1.0000
  H   H799      1.0  0.83994  0.28721  0.97261  1.0000
  H   H800      1.0  0.97786  0.28189  0.62078  1.0000
  S   S129      1.0  0.92446  0.33602  0.77839  1.0000
  H   H801      1.0  0.97148  0.33508  0.59524  1.0000
  H   H802      1.0  0.71365  0.21475  0.50821  1.0000
  H   H803      1.0  0.69568  0.26896  0.50841  1.0000
  Fe  Fe65      1.0  0.75661  0.37922  0.16793  1.0000
  H   H804      1.0  0.80846  0.47417  0.28774  1.0000
  Fe  Fe66      1.0  0.79804  0.44020  0.15376  1.0000
  S   S130      1.0  0.83687  0.41064  0.12823  1.0000
  S   S131      1.0  0.80317  0.49531  0.15920  1.0000
  Fe  Fe67      1.0  0.79466  0.38409  0.10469  1.0000
  H   H805      1.0  0.91931  0.43586  0.25890  1.0000
  Fe  Fe68      1.0  0.83050  0.37552  0.17027  1.0000
  H   H806      1.0  0.77576  0.65347  0.04263  1.0000
  S   S132      1.0  0.75602  0.41632  0.12712  1.0000
  S   S133      1.0  0.79403  0.40663  0.19710  1.0000
  C   C467      1.0  0.76275  0.34523  0.03662  1.0000
  C   C468      1.0  0.85155  0.37252  0.25601  1.0000
  Fe  Fe69      1.0  0.90966  0.60259  0.26934  1.0000
  S   S134      1.0  0.93727  0.62832  0.22924  1.0000
  S   S135      1.0  0.90226  0.54742  0.26718  1.0000
  S   S136      1.0  0.87194  0.34912  0.19576  1.0000
  H   H807      1.0  0.51632  0.66994  0.12629  1.0000
  H   H808      1.0  0.70096  0.64121  0.09848  1.0000
  S   S137      1.0  0.86681  0.63697  0.26898  1.0000
  S   S138      1.0  0.93517  0.62981  0.31019  1.0000
  H   H809      1.0  0.91053  0.40083  0.28276  1.0000
  H   H810      1.0  0.99050  0.37469  0.25541  1.0000
  H   H811      1.0  0.76680  0.55464  0.12302  1.0000
  H   H812      1.0  0.89678  0.43264  0.32568  1.0000
  Fe  Fe70      1.0  0.95951  0.65851  0.26993  1.0000
  H   H813      1.0  0.76233  0.64517  0.21999  1.0000
  H   H814      1.0  0.83807  0.39095  0.24293  1.0000
  C   C469      1.0  0.75942  0.60568  0.10965  1.0000
  H   H815      1.0  0.75376  0.61636  0.04673  1.0000
  C   C470      1.0  0.83361  0.50935  0.18661  1.0000
  C   C471      1.0  0.85086  0.48743  0.20666  1.0000
  C   C472      1.0  0.87242  0.49935  0.23076  1.0000
  C   C473      1.0  0.87720  0.53321  0.23482  1.0000
  C   C474      1.0  0.86067  0.55511  0.21410  1.0000
  C   C475      1.0  0.83885  0.54321  0.19020  1.0000
  H   H816      1.0  0.84712  0.46130  0.20408  1.0000
  H   H817      1.0  0.88506  0.48232  0.24660  1.0000
  H   H818      1.0  0.86427  0.58125  0.21685  1.0000
  H   H819      1.0  0.82561  0.56036  0.17487  1.0000
  S   S139      1.0  0.79283  0.34564  0.14401  1.0000
  N   N34       1.0  0.75876  0.51389  0.25599  1.0000
  C   C476      1.0  0.75192  0.53740  0.22808  1.0000
  C   C477      1.0  0.76076  0.47982  0.24165  1.0000
  C   C478      1.0  0.79159  0.52305  0.27025  1.0000
  C   C479      1.0  0.73193  0.51739  0.28137  1.0000
  C   C480      1.0  0.75351  0.57424  0.23657  1.0000
  C   C481      1.0  0.73123  0.46942  0.22044  1.0000
  H   H820      1.0  0.96754  0.37049  0.35537  1.0000
  C   C482      1.0  0.72428  0.48698  0.30267  1.0000
  H   H821      1.0  0.76933  0.53323  0.20746  1.0000
  H   H822      1.0  0.72712  0.53322  0.21758  1.0000
  H   H823      1.0  0.76389  0.46081  0.26089  1.0000
  H   H824      1.0  0.78300  0.47736  0.22600  1.0000
  H   H825      1.0  0.80998  0.52510  0.25034  1.0000
  H   H826      1.0  0.79074  0.54769  0.28195  1.0000
  H   H827      1.0  0.73742  0.53797  0.29846  1.0000
  H   H828      1.0  0.70823  0.52433  0.26968  1.0000
  H   H829      1.0  0.73908  0.58041  0.25879  1.0000
  H   H830      1.0  0.77925  0.58251  0.23957  1.0000
  H   H831      1.0  0.74314  0.58857  0.21580  1.0000
  H   H832      1.0  0.73323  0.47999  0.19535  1.0000
  H   H833      1.0  0.73113  0.44230  0.21760  1.0000
  H   H834      1.0  0.70749  0.47679  0.23142  1.0000
  C   C483      1.0  0.75037  0.66357  0.09849  1.0000
  C   C484      1.0  0.91608  0.44502  0.31094  1.0000
  C   C485      1.0  0.96460  0.38326  0.25714  1.0000
  H   H835      1.0  0.71214  0.46747  0.28818  1.0000
  H   H836      1.0  0.70685  0.49415  0.32238  1.0000
  H   H837      1.0  0.74612  0.47652  0.31477  1.0000
  N   N35       1.0  0.96189  0.41239  0.27997  1.0000
  H   H838      1.0  0.82313  0.62789  0.02989  1.0000
  C   C486      1.0  0.97564  0.40156  0.31265  1.0000
  C   C487      1.0  0.80633  0.61077  0.04286  1.0000
  C   C488      1.0  0.92649  0.42284  0.28181  1.0000
  C   C489      1.0  0.86857  0.34886  0.30805  1.0000
  C   C490      1.0  0.95527  0.37585  0.33163  1.0000
  H   H839      1.0  0.93028  0.38471  0.33746  1.0000
  N   N36       1.0  0.77348  0.63518  0.09228  1.0000
  C   C491      1.0  0.85011  0.37183  0.29041  1.0000
  H   H840      1.0  0.74820  0.66854  0.12524  1.0000
  H   H841      1.0  0.82034  0.59686  0.06138  1.0000
  C   C492      1.0  0.77586  0.62951  0.05574  1.0000
  S   S140      1.0  0.86567  0.34826  0.35111  1.0000
  H   H842      1.0  0.73496  0.59937  0.09959  1.0000
  H   H843      1.0  0.80260  0.64815  0.13457  1.0000
  S   S141      1.0  0.71277  0.35831  0.19405  1.0000
  S   S142      1.0  0.79376  0.37199  0.05042  1.0000
  H   H844      1.0  0.78010  0.56368  0.08253  1.0000
  H   H845      1.0  0.95046  0.36209  0.26668  1.0000
  H   H846      1.0  0.79847  0.59284  0.02394  1.0000
  H   H847      1.0  0.97510  0.44578  0.24069  1.0000
  H   H848      1.0  0.80431  0.57581  0.11806  1.0000
  C   C493      1.0  0.77564  0.66344  0.20621  1.0000
  H   H849      1.0  0.75552  0.61129  0.13619  1.0000
  C   C494      1.0  0.95241  0.38830  0.22159  1.0000
  H   H850      1.0  0.82389  0.62381  0.10640  1.0000
  H   H851      1.0  0.96889  0.40440  0.20718  1.0000
  C   C495      1.0  0.77930  0.57355  0.10786  1.0000
  H   H852      1.0  0.83474  0.38920  0.30335  1.0000
  C   C496      1.0  0.80585  0.64402  0.10776  1.0000
  H   H853      1.0  0.00074  0.39125  0.30939  1.0000
  H   H854      1.0  0.99605  0.64210  0.36215  1.0000
  H   H855      1.0  0.82289  0.64251  0.21703  1.0000
  H   H856      1.0  0.95244  0.36415  0.20892  1.0000
  C   C497      1.0  0.81000  0.66229  0.20508  1.0000
  C   C498      1.0  0.80634  0.49990  0.29621  1.0000
  H   H857      1.0  0.83178  0.50812  0.30142  1.0000
  H   H858      1.0  0.92688  0.39752  0.22042  1.0000
  H   H859      1.0  0.79295  0.50159  0.31978  1.0000
  H   H860      1.0  0.95354  0.35214  0.31860  1.0000
  H   H861      1.0  0.71472  0.65533  0.05829  1.0000
  C   C499      1.0  0.98309  0.43921  0.26590  1.0000
  Fe  Fe71      1.0  0.89542  0.66423  0.23086  1.0000
  H   H862      1.0  0.93596  0.45210  0.32777  1.0000
  C   C500      1.0  0.87103  0.34998  0.23896  1.0000
  H   H863      1.0  0.97941  0.42227  0.32966  1.0000
  Fe  Fe72      1.0  0.89505  0.66734  0.30501  1.0000
  C   C501      1.0  0.71519  0.66008  0.08508  1.0000
  H   H864      1.0  0.90500  0.46813  0.30156  1.0000
  H   H865      1.0  0.95967  0.48494  0.28298  1.0000
  C   C502      1.0  0.98364  0.47215  0.28444  1.0000
  H   H866      1.0  0.00156  0.48859  0.27219  1.0000
  H   H867      1.0  0.99173  0.46981  0.31023  1.0000
  Fe  Fe73      1.0  0.96256  0.37563  0.77824  1.0000
  S   S143      1.0  0.93956  0.40483  0.73763  1.0000
  Fe  Fe74      1.0  0.89608  0.36795  0.81337  1.0000
  S   S144      1.0  0.86911  0.39558  0.77419  1.0000
  Fe  Fe75      1.0  0.90035  0.36637  0.73946  1.0000
  Fe  Fe76      1.0  0.91105  0.43081  0.77725  1.0000
  S   S145      1.0  0.90558  0.48628  0.77956  1.0000
  S   S146      1.0  0.93704  0.40453  0.81809  1.0000
  H   H868      1.0  0.84732  0.41614  0.94832  1.0000
  S   S147      1.0  0.79726  0.63366  0.83406  1.0000
  H   H869      1.0  0.92757  0.62148  0.82767  1.0000
  H   H870      1.0  0.93724  0.37633  0.67273  1.0000
  S   S148      1.0  0.75572  0.63272  0.90306  1.0000
  H   H871      1.0  0.79513  0.56346  0.70143  1.0000
  Fe  Fe77      1.0  0.79728  0.60390  0.88006  1.0000
  S   S149      1.0  0.79866  0.54839  0.87504  1.0000
  H   H872      1.0  0.87077  0.42249  0.91243  1.0000
  S   S150      1.0  0.83685  0.63335  0.90438  1.0000
  H   H873      1.0  0.82258  0.61805  0.76071  1.0000
  H   H874      1.0  0.76861  0.45817  0.96851  1.0000
  H   H875      1.0  0.84354  0.49460  0.73713  1.0000
  H   H876      1.0  0.98644  0.38193  0.57010  1.0000
  C   C503      1.0  0.76393  0.45756  0.90453  1.0000
  H   H877      1.0  0.95035  0.60122  0.79638  1.0000
  C   C504      1.0  0.81305  0.48362  0.95702  1.0000
  C   C505      1.0  0.75714  0.34462  0.85770  1.0000
  C   C506      1.0  0.87697  0.50278  0.80777  1.0000
  C   C507      1.0  0.85089  0.48395  0.81955  1.0000
  C   C508      1.0  0.82692  0.49834  0.83979  1.0000
  C   C509      1.0  0.82909  0.53140  0.84910  1.0000
  C   C510      1.0  0.85536  0.55019  0.83762  1.0000
  C   C511      1.0  0.87911  0.53595  0.81690  1.0000
  H   H878      1.0  0.84872  0.45852  0.81237  1.0000
  H   H879      1.0  0.80633  0.48389  0.84777  1.0000
  H   H880      1.0  0.85734  0.57570  0.84467  1.0000
  H   H881      1.0  0.89920  0.55069  0.80790  1.0000
  H   H882      1.0  0.82061  0.37927  0.81634  1.0000
  H   H883      1.0  0.77181  0.38955  0.90475  1.0000
  H   H884      1.0  0.81981  0.52026  0.76297  1.0000
  H   H885      1.0  0.74233  0.46465  0.91966  1.0000
  H   H886      1.0  0.90898  0.58362  0.74650  1.0000
  C   C512      1.0  0.74053  0.40027  0.94614  1.0000
  H   H887      1.0  0.80400  0.43436  0.97458  1.0000
  H   H888      1.0  0.88499  0.61399  0.76887  1.0000
  C   C513      1.0  0.84665  0.41353  0.92134  1.0000
  H   H889      1.0  0.85726  0.62875  0.71541  1.0000
  H   H890      1.0  0.91136  0.62595  0.73623  1.0000
  H   H891      1.0  0.73473  0.42115  0.87675  1.0000
  H   H892      1.0  0.87805  0.59661  0.69497  1.0000
  H   H893      1.0  0.77035  0.43591  0.85491  1.0000
  H   H894      1.0  0.94296  0.64417  0.79267  1.0000
  C   C514      1.0  0.78894  0.57816  0.76748  1.0000
  C   C515      1.0  0.77397  0.40233  0.92862  1.0000
  H   H895      1.0  0.78874  0.56771  0.79272  1.0000
  H   H896      1.0  0.93218  0.37911  0.59677  1.0000
  C   C516      1.0  0.79829  0.61517  0.69298  1.0000
  H   H897      1.0  0.86603  0.53972  0.70623  1.0000
  C   C517      1.0  0.89424  0.60641  0.74441  1.0000
  H   H898      1.0  0.83996  0.58347  0.78011  1.0000
  C   C518      1.0  0.82959  0.51806  0.73767  1.0000
  H   H899      1.0  0.87227  0.54510  0.74890  1.0000
  H   H900      1.0  0.80953  0.51546  0.71966  1.0000
  H   H901      1.0  0.73219  0.37433  0.94594  1.0000
  C   C519      1.0  0.98120  0.63002  0.82879  1.0000
  H   H902      1.0  0.77124  0.59893  0.76784  1.0000
  C   C520      1.0  0.80825  0.36428  0.83411  1.0000
  H   H903      1.0  0.82756  0.57464  0.67563  1.0000
  H   H904      1.0  0.82889  0.45817  0.89798  1.0000
  H   H905      1.0  0.83899  0.47879  0.95043  1.0000
  N   N37       1.0  0.78740  0.43633  0.92379  1.0000
  C   C521      1.0  0.79255  0.45187  0.95696  1.0000
  H   H906      1.0  0.77931  0.55894  0.75116  1.0000
  H   H907      1.0  0.81535  0.63309  0.68167  1.0000
  H   H908      1.0  0.77562  0.48128  0.89786  1.0000
  H   H909      1.0  0.77790  0.61201  0.67525  1.0000
  H   H910      1.0  0.77866  0.34780  0.98630  1.0000
  C   C522      1.0  0.75064  0.44274  0.87230  1.0000
  H   H911      1.0  0.79126  0.38700  0.94315  1.0000
  H   H912      1.0  0.74238  0.40783  0.97223  1.0000
  H   H913      1.0  0.81496  0.42159  0.88078  1.0000
  C   C523      1.0  0.81906  0.43366  0.90488  1.0000
  H   H914      1.0  0.78768  0.62579  0.71564  1.0000
  H   H915      1.0  0.73525  0.46144  0.85976  1.0000
  H   H916      1.0  0.98441  0.60829  0.84501  1.0000
  N   N38       1.0  0.83881  0.58030  0.72719  1.0000
  C   C524      1.0  0.86651  0.60342  0.71884  1.0000
  C   C525      1.0  0.81500  0.58164  0.69893  1.0000
  C   C526      1.0  0.85327  0.54628  0.72953  1.0000
  C   C527      1.0  0.82382  0.59079  0.75940  1.0000
  H   H917      1.0  0.96051  0.40246  0.64822  1.0000
  Fe  Fe78      1.0  0.83402  0.66524  0.85938  1.0000
  H   H918      1.0  0.72124  0.41477  0.93365  1.0000
  H   H919      1.0  0.80281  0.50259  0.94038  1.0000
  H   H920      1.0  0.90579  0.35637  0.62425  1.0000
  C   C528      1.0  0.77388  0.36355  0.83445  1.0000
  Fe  Fe79      1.0  0.79538  0.66455  0.92423  1.0000
  S   S151      1.0  0.87967  0.34313  0.69366  1.0000
  H   H921      1.0  0.76022  0.37774  0.81663  1.0000
  C   C529      1.0  0.00127  0.35659  0.67106  1.0000
  H   H922      1.0  0.99486  0.40258  0.60775  1.0000
  Fe  Fe80      1.0  0.76020  0.66569  0.85898  1.0000
  H   H923      1.0  0.96097  0.63728  0.88994  1.0000
  C   C530      1.0  0.92238  0.37773  0.62207  1.0000
  C   C531      1.0  0.94958  0.37768  0.64843  1.0000
  H   H924      1.0  0.84441  0.38708  0.91526  1.0000
  C   C532      1.0  0.94850  0.62442  0.81056  1.0000
  H   H925      1.0  0.90673  0.39976  0.62579  1.0000
  N   N39       1.0  0.98389  0.66159  0.84802  1.0000
  N   N40       1.0  0.97501  0.35088  0.64566  1.0000
  H   H926      1.0  0.93395  0.65943  0.86553  1.0000
  H   H927      1.0  0.63807  0.66241  0.79988  1.0000
  C   C533      1.0  0.95922  0.66044  0.87554  1.0000
  S   S152      1.0  0.71401  0.34506  0.85793  1.0000
  C   C534      1.0  0.98926  0.34773  0.61165  1.0000
  H   H928      1.0  0.98999  0.35883  0.69593  1.0000
  H   H929      1.0  0.00112  0.62852  0.81002  1.0000
  C   C535      1.0  0.99951  0.37978  0.59393  1.0000
  H   H930      1.0  0.81304  0.49411  0.98218  1.0000
  S   S153      1.0  0.86945  0.34636  0.85715  1.0000
  C   C536      1.0  0.82623  0.34624  0.85711  1.0000
  Fe  Fe81      1.0  0.62082  0.76392  0.15813  1.0000
  S   S154      1.0  0.64165  0.80183  0.12407  1.0000
  S   S155      1.0  0.56610  0.76540  0.16894  1.0000
  Fe  Fe82      1.0  0.68830  0.73067  0.16689  1.0000
  S   S156      1.0  0.71344  0.76720  0.13435  1.0000
  C   C537      1.0  0.89443  0.93702  0.32667  1.0000
  Fe  Fe83      1.0  0.68236  0.80429  0.16099  1.0000
  S   S157      1.0  0.70292  0.85189  0.18035  1.0000
  Fe  Fe84      1.0  0.67027  0.76019  0.10126  1.0000
  S   S158      1.0  0.67253  0.74981  0.04648  1.0000
  S   S159      1.0  0.66034  0.76811  0.19604  1.0000
  S   S160      1.0  0.64620  0.72183  0.13258  1.0000
  Fe  Fe85      1.0  0.79058  0.93997  0.37038  1.0000
  S   S161      1.0  0.74725  0.92045  0.39803  1.0000
  H   H931      1.0  0.59724  0.91831  0.28473  1.0000
  Fe  Fe86      1.0  0.82265  0.87217  0.36576  1.0000
  S   S162      1.0  0.78104  0.84740  0.39150  1.0000
  S   S163      1.0  0.86754  0.84707  0.34552  1.0000
  Fe  Fe87      1.0  0.74874  0.87984  0.36078  1.0000
  S   S164      1.0  0.70321  0.86110  0.33564  1.0000
  Fe  Fe88      1.0  0.78421  0.89007  0.42609  1.0000
  C   C538      1.0  0.91705  0.99450  0.27939  1.0000
  S   S165      1.0  0.79028  0.90086  0.33196  1.0000
  S   S166      1.0  0.82764  0.91346  0.40170  1.0000
  S   S167      1.0  0.92064  0.69724  0.26672  1.0000
  H   H932      1.0  0.70025  0.87138  0.03870  1.0000
  H   H933      1.0  0.65229  0.94974  0.27731  1.0000
  H   H934      1.0  0.74026  0.80021  0.26506  1.0000
  C   C539      1.0  0.86787  0.80392  0.34680  1.0000
  C   C540      1.0  0.84505  0.78634  0.36543  1.0000
  C   C541      1.0  0.84563  0.75188  0.36555  1.0000
  C   C542      1.0  0.86905  0.73479  0.34708  1.0000
  C   C543      1.0  0.89239  0.75245  0.32923  1.0000
  C   C544      1.0  0.89169  0.78685  0.32892  1.0000
  H   H935      1.0  0.82720  0.79913  0.38010  1.0000
  H   H936      1.0  0.82794  0.73844  0.38007  1.0000
  H   H937      1.0  0.91175  0.73977  0.31657  1.0000
  H   H938      1.0  0.90982  0.80021  0.31489  1.0000
  C   C545      1.0  0.61925  0.90727  0.21260  1.0000
  H   H939      1.0  0.98779  0.75933  0.44169  1.0000
  H   H940      1.0  0.98394  0.83408  0.45333  1.0000
  H   H941      1.0  0.85044  0.87092  0.46278  1.0000
  S   S168      1.0  0.78206  0.88041  0.48084  1.0000
  C   C546      1.0  0.70718  0.73186  0.02725  1.0000
  C   C547      1.0  0.75218  0.77835  0.25416  1.0000
  C   C548      1.0  0.73827  0.73326  0.04148  1.0000
  C   C549      1.0  0.61719  0.96702  0.22737  1.0000
  H   H942      1.0  0.74145  0.74522  0.06493  1.0000
  H   H943      1.0  0.90116  0.81420  0.41543  1.0000
  H   H944      1.0  0.66934  0.91230  0.26327  1.0000
  C   C550      1.0  0.76328  0.78938  0.21968  1.0000
  C   C551      1.0  0.77593  0.71166  0.17179  1.0000
  H   H945      1.0  0.77618  0.77004  0.20582  1.0000
  H   H946      1.0  0.59426  0.89041  0.16883  1.0000
  H   H947      1.0  0.74130  0.79592  0.20506  1.0000
  C   C552      1.0  0.94401  0.83355  0.39226  1.0000
  H   H948      1.0  0.80458  0.82377  0.31504  1.0000
  N   N41       1.0  0.88122  0.94339  0.29255  1.0000
  C   C553      1.0  0.70285  0.85446  0.22349  1.0000
  C   C554      1.0  0.67897  0.83851  0.24222  1.0000
  C   C555      1.0  0.67946  0.84053  0.27658  1.0000
  C   C556      1.0  0.70353  0.85899  0.29249  1.0000
  C   C557      1.0  0.72666  0.87597  0.27369  1.0000
  C   C558      1.0  0.72643  0.87361  0.23932  1.0000
  H   H949      1.0  0.65943  0.82546  0.23030  1.0000
  H   H950      1.0  0.66097  0.82797  0.29085  1.0000
  H   H951      1.0  0.74426  0.89155  0.28541  1.0000
  H   H952      1.0  0.74448  0.88671  0.22497  1.0000
  C   C559      1.0  0.54952  0.79827  0.19213  1.0000
  C   C560      1.0  0.56880  0.81675  0.21364  1.0000
  C   C561      1.0  0.55435  0.84158  0.23294  1.0000
  H   H953      1.0  0.76318  0.73059  0.15863  1.0000
  H   H954      1.0  0.71763  0.78290  0.31290  1.0000
  H   H955      1.0  0.97837  0.71134  0.32110  1.0000
  H   H956      1.0  0.59468  0.81146  0.21583  1.0000
  H   H957      1.0  0.56919  0.85513  0.25012  1.0000
  H   H958      1.0  0.82272  0.94956  0.24985  1.0000
  H   H959      1.0  0.63483  0.88479  0.21350  1.0000
  H   H960      1.0  0.80573  0.70686  0.30723  1.0000
  C   C562      1.0  0.68981  0.82817  0.00818  1.0000
  H   H961      1.0  0.73276  0.96723  0.33416  1.0000
  H   H962      1.0  0.76672  0.71581  0.25793  1.0000
  S   S169      1.0  0.86942  0.69161  0.34778  1.0000
  H   H963      1.0  0.66379  0.83025  0.01634  1.0000
  H   H964      1.0  0.81058  0.69763  0.10110  1.0000
  H   H965      1.0  0.90621  0.75972  0.39803  1.0000
  H   H966      1.0  0.85222  0.89886  0.29187  1.0000
  C   C563      1.0  0.94279  0.72291  0.40843  1.0000
  H   H967      1.0  0.94459  0.76659  0.37958  1.0000
  C   C564      1.0  0.92655  0.77168  0.46234  1.0000
  H   H968      1.0  0.75166  0.80890  0.32399  1.0000
  C   C565      1.0  0.76559  0.75809  0.31019  1.0000
  C   C566      1.0  0.84560  0.85702  0.48486  1.0000
  H   H969      1.0  0.87474  0.78555  0.45355  1.0000
  H   H970      1.0  0.96990  0.83990  0.39721  1.0000
  H   H971      1.0  0.93349  0.70819  0.38747  1.0000
  H   H972      1.0  0.92994  0.79080  0.48151  1.0000
  H   H973      1.0  0.89018  0.86141  0.26696  1.0000
  H   H974      1.0  0.93079  0.85698  0.38769  1.0000
  C   C567      1.0  0.81366  0.71159  0.28166  1.0000
  H   H975      1.0  0.83188  0.95064  0.30993  1.0000
  H   H976      1.0  0.59276  0.93394  0.17349  1.0000
  C   C568      1.0  0.71097  0.84693  0.03322  1.0000
  H   H977      1.0  0.92059  0.92926  0.32565  1.0000
  N   N42       1.0  0.63692  0.93569  0.22827  1.0000
  C   C569      1.0  0.88947  0.76420  0.46173  1.0000
  H   H978      1.0  0.62002  0.88155  0.27454  1.0000
  H   H979      1.0  0.79987  0.73471  0.23702  1.0000
  H   H980      1.0  0.91245  0.88036  0.29919  1.0000
  H   H981      1.0  0.77888  0.81158  0.22089  1.0000
  H   H982      1.0  0.50661  0.76706  0.35617  1.0000
  H   H983      1.0  0.52485  0.84481  0.35776  1.0000
  H   H984      1.0  0.51998  0.85222  0.31526  1.0000
  H   H985      1.0  0.90275  0.98848  0.34270  1.0000
  C   C570      1.0  0.51588  0.80521  0.18986  1.0000
  H   H986      1.0  0.69611  0.80195  0.01110  1.0000
  H   H987      1.0  0.63012  0.91348  0.15986  1.0000
  C   C571      1.0  0.87242  0.91062  0.27768  1.0000
  H   H988      1.0  0.89983  0.95821  0.24464  1.0000
  H   H989      1.0  0.78935  0.72032  0.03655  1.0000
  H   H990      1.0  0.81257  0.98857  0.26638  1.0000
  N   N43       1.0  0.94139  0.78256  0.43020  1.0000
  H   H991      1.0  0.89573  0.84139  0.49083  1.0000
  S   S170      1.0  0.79624  0.99283  0.35392  1.0000
  H   H992      1.0  0.55573  0.80669  0.30076  1.0000
  H   H993      1.0  0.94256  0.81916  0.36930  1.0000
  H   H994      1.0  0.82323  0.83713  0.27722  1.0000
  N   N44       1.0  0.77865  0.76441  0.27599  1.0000
  H   H995      1.0  0.93932  0.74962  0.47217  1.0000
  H   H996      1.0  0.53666  0.69985  0.15181  1.0000
  C   C572      1.0  0.97812  0.78362  0.43378  1.0000
  C   C573      1.0  0.81400  0.85666  0.49817  1.0000
  C   C574      1.0  0.78860  0.73171  0.26162  1.0000
  H   H997      1.0  0.71144  0.83301  0.05671  1.0000
  H   H998      1.0  0.85011  0.98434  0.24426  1.0000
  H   H999      1.0  0.50948  0.77857  0.29769  1.0000
  H   H1000     1.0  0.63112  0.90537  0.30929  1.0000
  C   C575      1.0  0.76541  0.71925  0.02528  1.0000
  H   H1001     1.0  0.92894  0.83278  0.44295  1.0000
  C   C576      1.0  0.66795  0.94128  0.20877  1.0000
  H   H1002     1.0  0.75190  0.73445  0.31106  1.0000
  H   H1003     1.0  0.82507  0.67393  0.06646  1.0000
  H   H1004     1.0  0.68117  0.91770  0.20474  1.0000
  C   C577      1.0  0.75847  0.68827  0.18975  1.0000
  C   C578      1.0  0.51244  0.68993  0.14440  1.0000
  H   H1005     1.0  0.61482  0.97680  0.20196  1.0000
  C   C579      1.0  0.83342  0.97162  0.26152  1.0000
  H   H1006     1.0  0.66231  0.95090  0.18383  1.0000
  C   C580      1.0  0.92768  0.81590  0.42156  1.0000
  H   H1007     1.0  0.96975  0.71968  0.40872  1.0000
  H   H1008     1.0  0.73196  0.76025  0.25111  1.0000
  C   C581      1.0  0.60873  0.91213  0.17662  1.0000
  C   C582      1.0  0.93290  0.75909  0.40301  1.0000
  C   C583      1.0  0.80355  0.82168  0.28791  1.0000
  H   H1009     1.0  0.82701  0.77550  0.29432  1.0000
  H   H1010     1.0  0.73783  0.77791  0.35130  1.0000
  C   C584      1.0  0.80863  0.78585  0.27705  1.0000
  C   C585      1.0  0.74198  0.78370  0.32498  1.0000
  H   H1011     1.0  0.78610  0.75528  0.32796  1.0000
  H   H1012     1.0  0.78046  0.83255  0.27897  1.0000
  C   C586      1.0  0.58280  0.96627  0.24305  1.0000
  H   H1013     1.0  0.82360  0.72920  0.15726  1.0000
  H   H1014     1.0  0.82185  0.78590  0.25310  1.0000
  C   C587      1.0  0.81027  0.71077  0.17094  1.0000
  C   C588      1.0  0.73623  0.99092  0.32266  1.0000
  H   H1015     1.0  0.81655  0.68725  0.26993  1.0000
  H   H1016     1.0  0.57447  0.82915  0.33296  1.0000
  C   C589      1.0  0.87125  0.84025  0.50077  1.0000
  H   H1017     1.0  0.98383  0.80221  0.48436  1.0000
  C   C590      1.0  0.90050  0.88521  0.27526  1.0000
  H   H1018     1.0  0.71416  0.96762  0.20683  1.0000
  H   H1019     1.0  0.59676  0.90059  0.22617  1.0000
  C   C591      1.0  0.82744  0.68633  0.18791  1.0000
  H   H1020     1.0  0.99022  0.78854  0.40976  1.0000
  H   H1021     1.0  0.92995  0.94455  0.27182  1.0000
  H   H1022     1.0  0.86640  0.96952  0.35953  1.0000
  H   H1023     1.0  0.91916  0.89250  0.25687  1.0000
  H   H1024     1.0  0.90584  0.95822  0.37424  1.0000
  H   H1025     1.0  0.58414  0.97163  0.26974  1.0000
  C   C592      1.0  0.55329  0.81311  0.32714  1.0000
  H   H1026     1.0  0.73660  0.84986  0.02477  1.0000
  C   C593      1.0  0.64649  0.92717  0.26310  1.0000
  C   C594      1.0  0.52073  0.84856  0.23047  1.0000
  H   H1027     1.0  0.88360  0.74258  0.44635  1.0000
  H   H1028     1.0  0.86305  0.91354  0.25224  1.0000
  H   H1029     1.0  0.88129  0.75830  0.48709  1.0000
  C   C595      1.0  0.62187  0.90712  0.28369  1.0000
  C   C596      1.0  0.52125  0.83222  0.33382  1.0000
  H   H1030     1.0  0.84825  0.67597  0.10369  1.0000
  H   H1031     1.0  0.88116  0.91624  0.33847  1.0000
  C   C597      1.0  0.85018  0.96347  0.29443  1.0000
  H   H1032     1.0  0.55555  0.79079  0.34251  1.0000
  H   H1033     1.0  0.85388  0.98725  0.30700  1.0000
  S   S171      1.0  0.71536  0.68890  0.19167  1.0000
  S   S172      1.0  0.87045  0.68598  0.18647  1.0000
  H   H1034     1.0  0.56936  0.94312  0.23912  1.0000
  H   H1035     1.0  0.83824  0.72313  0.28150  1.0000
  H   H1036     1.0  0.93186  0.71234  0.43096  1.0000
  C   C598      1.0  0.90684  0.95908  0.27104  1.0000
  H   H1037     1.0  0.93703  0.99466  0.29787  1.0000
  C   C599      1.0  0.89215  0.96528  0.35175  1.0000
  C   C600      1.0  0.71109  0.00468  0.30342  1.0000
  H   H1038     1.0  0.68844  0.99145  0.30017  1.0000
  H   H1039     1.0  0.75989  0.68651  0.08744  1.0000
  H   H1040     1.0  0.68268  0.99032  0.22686  1.0000
  H   H1041     1.0  0.56728  0.98533  0.23122  1.0000
  H   H1042     1.0  0.63044  0.98699  0.24037  1.0000
  C   C601      1.0  0.99134  0.80853  0.45895  1.0000
  H   H1043     1.0  0.70292  0.95642  0.24749  1.0000
  C   C602      1.0  0.69296  0.96534  0.22378  1.0000
  H   H1044     1.0  0.99823  0.75284  0.36106  1.0000
  H   H1045     1.0  0.70201  0.68368  0.08895  1.0000
  C   C603      1.0  0.00406  0.71777  0.32186  1.0000
  C   C604      1.0  0.82301  0.67463  0.09356  1.0000
  H   H1046     1.0  0.81770  0.68052  0.79195  1.0000
  H   H1047     1.0  0.80833  0.85408  0.82118  1.0000
  Fe  Fe89      1.0  0.94107  0.78087  0.66351  1.0000
  S   S173      1.0  0.92149  0.74521  0.62639  1.0000
  H   H1048     1.0  0.94787  0.68173  0.92307  1.0000
  Fe  Fe90      1.0  0.87488  0.81669  0.66900  1.0000
  S   S174      1.0  0.85049  0.78362  0.63271  1.0000
  S   S175      1.0  0.84799  0.85813  0.69401  1.0000
  Fe  Fe91      1.0  0.87741  0.74363  0.65956  1.0000
  Fe  Fe92      1.0  0.89656  0.78911  0.60322  1.0000
  S   S176      1.0  0.89857  0.80164  0.54876  1.0000
  S   S177      1.0  0.89853  0.77655  0.69805  1.0000
  S   S178      1.0  0.91960  0.82497  0.63801  1.0000
  Fe  Fe93      1.0  0.67864  0.86837  0.82400  1.0000
  S   S179      1.0  0.64564  0.84327  0.78819  1.0000
  S   S180      1.0  0.70281  0.83910  0.86432  1.0000
  Fe  Fe94      1.0  0.67223  0.93481  0.78944  1.0000
  S   S181      1.0  0.63861  0.91443  0.75093  1.0000
  C   C605      1.0  0.66693  0.82269  0.95253  1.0000
  Fe  Fe95      1.0  0.61381  0.88785  0.79283  1.0000
  S   S182      1.0  0.55829  0.88344  0.79617  1.0000
  Fe  Fe96      1.0  0.67374  0.87186  0.75048  1.0000
  S   S183      1.0  0.69393  0.84512  0.70661  1.0000
  S   S184      1.0  0.64489  0.91145  0.83167  1.0000
  S   S185      1.0  0.70890  0.89396  0.78616  1.0000
  C   C606      1.0  0.78870  0.81805  0.78537  1.0000
  H   H1049     1.0  0.89959  0.79613  0.79704  1.0000
  H   H1050     1.0  0.74694  0.89697  0.63655  1.0000
  H   H1051     1.0  0.70681  0.96233  0.72690  1.0000
  H   H1052     1.0  0.64021  0.77806  0.94234  1.0000
  C   C607      1.0  0.54127  0.85301  0.82208  1.0000
  C   C608      1.0  0.55931  0.83932  0.84785  1.0000
  C   C609      1.0  0.54531  0.81491  0.86790  1.0000
  C   C610      1.0  0.89523  0.69695  0.76696  1.0000
  C   C611      1.0  0.70362  0.71683  0.99642  1.0000
  H   H1053     1.0  0.58411  0.84750  0.85225  1.0000
  H   H1054     1.0  0.55957  0.80412  0.88752  1.0000
  C   C612      1.0  0.86557  0.82267  0.52988  1.0000
  H   H1055     1.0  0.83573  0.89052  0.56022  1.0000
  C   C613      1.0  0.83382  0.82176  0.54282  1.0000
  C   C614      1.0  0.66282  0.78525  0.95556  1.0000
  H   H1056     1.0  0.82897  0.80782  0.56488  1.0000
  C   C615      1.0  0.73667  0.84896  0.70304  1.0000
  C   C616      1.0  0.75497  0.82336  0.68924  1.0000
  C   C617      1.0  0.78915  0.82582  0.68664  1.0000
  C   C618      1.0  0.80523  0.85404  0.69756  1.0000
  C   C619      1.0  0.78689  0.87980  0.71102  1.0000
  C   C620      1.0  0.75269  0.87733  0.71364  1.0000
  H   H1057     1.0  0.74269  0.80144  0.68081  1.0000
  H   H1058     1.0  0.80293  0.80570  0.67644  1.0000
  H   H1059     1.0  0.79909  0.90184  0.71926  1.0000
  H   H1060     1.0  0.73870  0.89775  0.72316  1.0000
  C   C621      1.0  0.71837  0.73134  0.83762  1.0000
  C   C622      1.0  0.72359  0.74218  0.86971  1.0000
  C   C623      1.0  0.71996  0.77548  0.87743  1.0000
  C   C624      1.0  0.71092  0.79815  0.85322  1.0000
  C   C625      1.0  0.70718  0.78753  0.82081  1.0000
  C   C626      1.0  0.71049  0.75411  0.81307  1.0000
  H   H1061     1.0  0.72942  0.72471  0.88887  1.0000
  H   H1062     1.0  0.72348  0.78337  0.90236  1.0000
  H   H1063     1.0  0.70152  0.80496  0.80166  1.0000
  H   H1064     1.0  0.70697  0.74593  0.78807  1.0000
  C   C627      1.0  0.75396  0.87903  0.61751  1.0000
  H   H1065     1.0  0.85361  0.92509  0.57928  1.0000
  H   H1066     1.0  0.94386  0.71020  0.88932  1.0000
  H   H1067     1.0  0.85012  0.82345  0.81035  1.0000
  H   H1068     1.0  0.64099  0.77591  0.82056  1.0000
  H   H1069     1.0  0.67070  0.82761  0.92596  1.0000
  C   C628      1.0  0.73075  0.70271  0.98025  1.0000
  C   C629      1.0  0.62639  0.71043  0.81970  1.0000
  H   H1070     1.0  0.73952  0.88314  0.59482  1.0000
  S   S186      1.0  0.87736  0.68438  0.83069  1.0000
  H   H1071     1.0  0.81936  0.74351  0.80951  1.0000
  H   H1072     1.0  0.99022  0.67645  0.73983  1.0000
  H   H1073     1.0  0.82616  0.80306  0.85224  1.0000
  C   C630      1.0  0.59569  0.74933  0.78419  1.0000
  H   H1074     1.0  0.72654  0.83130  0.93201  1.0000
  C   C631      1.0  0.68745  0.87534  0.97138  1.0000
  H   H1075     1.0  0.61890  0.75613  0.77141  1.0000
  H   H1076     1.0  0.88116  0.76925  0.76831  1.0000
  H   H1077     1.0  0.55798  0.75399  0.84386  1.0000
  C   C632      1.0  0.81725  0.77770  0.84954  1.0000
  N   N45       1.0  0.69334  0.83874  0.97291  1.0000
  H   H1078     1.0  0.61357  0.00377  0.77087  1.0000
  H   H1079     1.0  0.80793  0.68383  0.73227  1.0000
  H   H1080     1.0  0.87361  0.76403  0.81167  1.0000
  H   H1081     1.0  0.54785  0.77398  0.79260  1.0000
  C   C633      1.0  0.51308  0.80416  0.86257  1.0000
  H   H1082     1.0  0.86930  0.89057  0.62834  1.0000
  C   C634      1.0  0.79965  0.96048  0.56236  1.0000
  H   H1083     1.0  0.52319  0.71193  0.83239  1.0000
  H   H1084     1.0  0.90944  0.70606  0.71679  1.0000
  H   H1085     1.0  0.82231  0.95721  0.54768  1.0000
  C   C635      1.0  0.78553  0.84068  0.81543  1.0000
  H   H1086     1.0  0.85236  0.85504  0.60778  1.0000
  H   H1087     1.0  0.68511  0.91767  0.93872  1.0000
  C   C636      1.0  0.57156  0.77830  0.78004  1.0000
  C   C637      1.0  0.57223  0.73144  0.83834  1.0000
  S   S187      1.0  0.79711  0.69929  0.88149  1.0000
  H   H1088     1.0  0.62650  0.69842  0.84428  1.0000
  H   H1089     1.0  0.68296  0.77170  0.94348  1.0000
  H   H1090     1.0  0.79308  0.83403  0.76364  1.0000
  C   C638      1.0  0.61960  0.76777  0.83539  1.0000
  H   H1091     1.0  0.60312  0.78935  0.83677  1.0000
  H   H1092     1.0  0.61154  0.75736  0.88806  1.0000
  H   H1093     1.0  0.56613  0.78160  0.75353  1.0000
  H   H1094     1.0  0.78295  0.91109  0.55319  1.0000
  H   H1095     1.0  0.80392  0.97806  0.58266  1.0000
  H   H1096     1.0  0.73662  0.98767  0.68029  1.0000
  H   H1097     1.0  0.67968  0.71568  0.98515  1.0000
  C   C639      1.0  0.88945  0.70015  0.73319  1.0000
  H   H1098     1.0  0.76106  0.93227  0.58363  1.0000
  H   H1099     1.0  0.78122  0.97173  0.54574  1.0000
  H   H1100     1.0  0.76690  0.79609  0.95607  1.0000
  C   C640      1.0  0.74419  0.79973  0.97069  1.0000
  S   S188      1.0  0.85067  0.69919  0.67836  1.0000
  H   H1101     1.0  0.76686  0.85972  0.80998  1.0000
  H   H1102     1.0  0.64254  0.83346  0.95873  1.0000
  H   H1103     1.0  0.70681  0.88889  0.98492  1.0000
  H   H1104     1.0  0.79243  0.97271  0.65671  1.0000
  C   C641      1.0  0.68676  0.89054  0.93662  1.0000
  H   H1105     1.0  0.57855  0.72194  0.86315  1.0000
  H   H1106     1.0  0.66385  0.88184  0.98362  1.0000
  C   C642      1.0  0.73299  0.00153  0.70256  1.0000
  C   C643      1.0  0.72708  0.83163  0.95926  1.0000
  H   H1107     1.0  0.58561  0.72894  0.76944  1.0000
  H   H1108     1.0  0.62805  0.69175  0.76910  1.0000
  C   C644      1.0  0.62129  0.68314  0.79407  1.0000
  H   H1109     1.0  0.64434  0.78469  0.87921  1.0000
  C   C645      1.0  0.63194  0.76201  0.87072  1.0000
  H   H1110     1.0  0.70935  0.88494  0.92253  1.0000
  H   H1111     1.0  0.65196  0.71897  0.81569  1.0000
  H   H1112     1.0  0.55472  0.68091  0.83205  1.0000
  H   H1113     1.0  0.74444  0.85174  0.96537  1.0000
  H   H1114     1.0  0.98726  0.73193  0.85746  1.0000
  H   H1115     1.0  0.74655  0.85454  0.62686  1.0000
  C   C646      1.0  0.71600  0.98712  0.72897  1.0000
  N   N46       1.0  0.80695  0.91040  0.60050  1.0000
  C   C647      1.0  0.83945  0.90240  0.58451  1.0000
  C   C648      1.0  0.79109  0.87848  0.61049  1.0000
  C   C649      1.0  0.81377  0.93152  0.63013  1.0000
  C   C650      1.0  0.86268  0.87992  0.60423  1.0000
  C   C651      1.0  0.78441  0.94857  0.64693  1.0000
  H   H1116     1.0  0.79464  0.85962  0.59111  1.0000
  H   H1117     1.0  0.80314  0.86826  0.63266  1.0000
  H   H1118     1.0  0.82589  0.91676  0.64970  1.0000
  H   H1119     1.0  0.83219  0.95084  0.62450  1.0000
  H   H1120     1.0  0.88578  0.87663  0.59015  1.0000
  H   H1121     1.0  0.98448  0.68376  0.79950  1.0000
  C   C652      1.0  0.54840  0.70610  0.82374  1.0000
  C   C653      1.0  0.80816  0.83868  0.52698  1.0000
  H   H1122     1.0  0.58221  0.80181  0.78845  1.0000
  H   H1123     1.0  0.76369  0.95436  0.63059  1.0000
  S   S189      1.0  0.72090  0.68937  0.82831  1.0000
  N   N47       1.0  0.81430  0.79134  0.78697  1.0000
  C   C654      1.0  0.81334  0.77305  0.75475  1.0000
  C   C655      1.0  0.84787  0.80662  0.78927  1.0000
  H   H1124     1.0  0.83647  0.76081  0.85901  1.0000
  C   C656      1.0  0.80713  0.76748  0.81438  1.0000
  C   C657      1.0  0.78060  0.75641  0.74576  1.0000
  C   C658      1.0  0.87682  0.78227  0.79175  1.0000
  H   H1125     1.0  0.65926  0.77684  0.98113  1.0000
  N   N48       1.0  0.60284  0.73912  0.81909  1.0000
  H   H1126     1.0  0.82013  0.78952  0.73403  1.0000
  H   H1127     1.0  0.83191  0.75318  0.75438  1.0000
  H   H1128     1.0  0.76385  0.80757  0.78207  1.0000
  H   H1129     1.0  0.85248  0.82266  0.76750  1.0000
  H   H1130     1.0  0.77627  0.82727  0.83719  1.0000
  H   H1131     1.0  0.79589  0.77511  0.86628  1.0000
  H   H1132     1.0  0.78051  0.76172  0.81509  1.0000
  H   H1133     1.0  0.66502  0.88260  0.92240  1.0000
  H   H1134     1.0  0.76090  0.77442  0.74057  1.0000
  H   H1135     1.0  0.78417  0.74230  0.72270  1.0000
  H   H1136     1.0  0.77248  0.73873  0.76478  1.0000
  C   C659      1.0  0.78630  0.92742  0.57493  1.0000
  H   H1137     1.0  0.72758  0.69073  0.95679  1.0000
  H   H1138     1.0  0.65028  0.74195  0.87217  1.0000
  C   C660      1.0  0.99121  0.72266  0.71394  1.0000
  C   C661      1.0  0.83239  0.68714  0.74185  1.0000
  H   H1139     1.0  0.98346  0.69869  0.90587  1.0000
  H   H1140     1.0  0.77532  0.93381  0.66792  1.0000
  H   H1141     1.0  0.96679  0.72004  0.70408  1.0000
  C   C662      1.0  0.86958  0.68899  0.78838  1.0000
  H   H1142     1.0  0.60010  0.99747  0.81179  1.0000
  H   H1143     1.0  0.72920  0.77759  0.96722  1.0000
  S   S190      1.0  0.79616  0.68403  0.97668  1.0000
  H   H1144     1.0  0.78365  0.83783  0.53705  1.0000
  H   H1145     1.0  0.91962  0.70090  0.77625  1.0000
  S   S191      1.0  0.68791  0.98827  0.79092  1.0000
  C   C663      1.0  0.85805  0.69522  0.72057  1.0000
  C   C664      1.0  0.83803  0.68475  0.77572  1.0000
  H   H1146     1.0  0.53069  0.96414  0.78335  1.0000
  C   C665      1.0  0.76175  0.70358  0.99479  1.0000
  C   C666      1.0  0.95882  0.68971  0.89940  1.0000
  H   H1147     1.0  0.98197  0.74178  0.81506  1.0000
  C   C667      1.0  0.99221  0.72323  0.83226  1.0000
  H   H1148     1.0  0.54673  0.70674  0.79672  1.0000
  S   S192      1.0  0.99419  0.78167  0.68013  1.0000
  H   H1149     1.0  0.94954  0.69392  0.82335  1.0000
  C   C668      1.0  0.97641  0.68971  0.82491  1.0000
  C   C669      1.0  0.50896  0.84248  0.81691  1.0000
  H   H1150     1.0  0.51804  0.95063  0.82282  1.0000
  H   H1151     1.0  0.59612  0.67333  0.79396  1.0000
  C   C670      1.0  0.50910  0.96223  0.79988  1.0000
  H   H1152     1.0  0.75176  0.80106  0.99679  1.0000
  C   C671      1.0  0.00458  0.69800  0.73420  1.0000
  C   C672      1.0  0.71079  0.00487  0.75786  1.0000
