data_image0
_chemical_formula_structural       Fe2S2FeCFeHS2CSFeS2Fe2S2FeS2FeS2FeSFeHS2FeS2FeS2FeSFeS3C3HCH4C7H3C6H4SC2HCHSC6H6C7H4C2H6SH2CH2CH4C2H2CH2CH3SHCH7CNC8H20CSH4CHCH8C2HCNC8H22CH3CH7CHCHC3H4SH3NC8H8CFeS2H3C2HSN2H3CHNCHC2H2CH4CHCHC2SC2H3C3Fe2S2FeHCNSHSH2CHCNH2CFeS2FeS2FeSFeS3H2C2HCNCHCHSCSC3H2C4H3C2H4C2H2SHCHC5H3C3H2CH4SH2CH10CH4CHC2HCHC3HCH3C2HCH5CH3C2H8C2H3CHSC3HC2H2CSHCHCH6CH2C2H3Fe2H2SHCS2H2C2HCH8CHCHSC2HC3HC3H4CH7C2H3CFeH2CFeNFeHS2H2CFeCSFeSHSH2CHCH4CH2CHCH2CSH2CH3C2H3CH5CHC3H2C2H3CSHNHCFeCH2CHCH7CH3C3H4CHNSHCH4NH2S2CH3NH2SHFeC3HCH2CH2CH3CH6CH2CH4CHCH5CH3SFe2S2FeCFeHS2CSFeS2Fe2S2FeS2FeS2FeSFeHS2FeS2FeS2FeSFeS3HC2HC2HCHC6H4C6H5C3H3C6H7C6H4C3HCHCH2CH2C2SH5NC6H14C4H3NH8CH6CHNC8H20NC8H20NC2H3CH3CH4CHCHSCH2CSHCNSH2CHSCHCH2C2HSH2CHFeH2CHC2HC4H2CH7C2H3CHCHCHCHFe2SCFeCHCSH6CH3CFeS2FeS2FeHFeHS2H2CSH3SCH2C2H2C2NHCH3C2HCH2C4H2CH3SH2C4H2SHCH3CHCHCHCH2C2H6CHCSC2HCSCHC3H3C3H4SH3CHCH2C2HCH2CHCHCNH4SCH7S2HC2H5CNH5CH4CSC2HC2HCH3CH4CNC6H9CFeHCH2CH2CH2NH3NH4C2SCHCHCH2SH2SH3C3SC2Fe2HS2H3Fe2SFeSCSCH2CSH6C3H4CHCH2CHCH2NHCH4C2HCH5C3H2C2HCSCH2CH2C2H2C3H6CH4C2H9C3H4NHC2SHCFeHC2H5CFeH4NH2CH3SCH2C2H4CHCH2FeC2HNCH2C2HSHCH4CSC2H2CHC2N2HCNH4CHCH2SH8CH2C5H6CH3C2H4CHC3HCHSH2FeH2CH2FeCHCH2CH3CH4SHSCH3CHCH3CH4FeS2FeS2FeSFeS4HFeSNSFeCFeSH2FeSHFeSHFeSCSFeS2Fe2H4NHCH2C2H5C6H4C6H4C6H4C6H2CHC6H5NC2HC5SHCH4CNHC3H10CH3CH3CHCHCH5S2CH3CSH4CH5CH2CHNHC6H2CH4C3HC2H3CH2C2H2CH2CH3CHCSHCH3CNCH9CHSHCHCHCHCFeHCHNCHCHCH3CH4SH5C4HCH7C2H4CH3C2H5C2HSHNSH6CHFeSCFeS2FeHFeS3FeS2FeS2FeSFeS3C2FeS2HFe2CSHFeS2Fe3HS3C2H3CNH5C6H4CFeHSC2H3C6H4C6H2CHC6H3NC2H3C2HCH5C3H3CHC2H3CNC8H19NC5HCH12SCH10CHC2SCH3C3HCH7SHC4H2CHC2H2CH2CH5NC2HCHCHCH4SCH3C2H5CSHC2NH4S2H6CH8NH4SC2H4C2H5CSCH4C4H4C2H2CH2NHSNHCH6C2H2SHCH2SCH4CH2CH6CHC3H6CHCHC3HCH3CH5NH5CSCHC2FeH2NHCHFeCSH5C2H2CH3C2HC2H4CFeS2FeS2FeSFeS3C2FeS3FeCFeSH2FeSHFeSHFeSFeSFeS2Fe2HCHC2H6SCHCHC6H4C6H4C6H4C6H4C3H9CH3CH3NSCH6CHCH4CHCH3NHC3H2C2HCH8NHCH8C2HC2H5CH3CH2CH2CHCSNSCH5CH2CHSH2C2H3C3H2SH5SHCHCN2C4HC3H10CH3CH5C3HCNC2HSC2H10CHCHCHC2H3SCH3CH6CHFeSHFeS2FeHFeS3FeS2FeS2FeSFeS3CHFeS2Fe3HSCFeS2Fe3CS2H7C2HNH2C6H4CH4C3HC6H4C6H4C6H6CHSH3CH2NHC4SHC2H7CHNCSHCH3NC8H20C5H2CH4SH3C3HCH2CH3SHCHCHSC4NC8H20C3H2CHSH7NH2CSHSH5CHC2H2S2HC3SHCHCHSFeSHFeHFeSFeSFeSHCFeS2FeS2FeS2FeSFeS3HSC2SHFeSCS2FeHCHNHNH2SCSC6H4C6H4FeHC2H4C6H5CH2CH4CH3FeSHCHCHC2NC7H13SH4NHC2H2CH3CH3FeHC2SH2CH3SH3CHCH3C2HCH3C2HCH3CFeHC2H4CH2NC8H11CHC2H5NC8H6CFeH4SH3CH6CSCH4SCHCH2C2HCHC3H2CHC2HCH4CH2NCHCH5C2HCH2C3H2FeS2Fe2HFeCS2H3SCH2FeS2FeS2FeH2S3CH2C2HCHSHCHC3SH3CHC4H2C2HCHNH3C3HNCH4C4H3C2H3C2H7SHC2HNH3CH2CSHFeHC4SH3CH3CH3C3HSHCHC3H2SHCHCHCH5CHC2H5SCHCHC2HC2H3CH3CHNHC2HC2SC2H4SH6C4H4CNCFeCH3C2HFe2HS2CSHFeHSFeSHS2H6CFeH2C2HCH4CHC2SC2HC2H2SHCH2CHSHC2H2C2H4NHCHNH2FeSCH9CHC2H2CHSH5C3NH2CH2CH2CH5C2H5C2H3C2H4C2H2NFeH9CH2CH4SH2CH5CH2NCFeSHFeSFeSFeSFeS2Fe2S2FeS2FeS2FeSFeS3FeSHFeSHFeSCS2H2CHCHCH2CSHC6H4C6H6C2H4C6H5C4HCHCH3CHCH2C2H2NC7H10C3H3SH3NC8H17CH2NC8H18SH3NC8H20SHC3HCH2FeHCS2HCHCHCH2C2H3C3HNHCH4C3H2CHSH3CH2C6H7S2HNH6CHCH3CSCHCHCH3SHC2FeS2Fe2SFeCS2HCHSH2CFeS2FeS2FeH2S3H2CH4CH2CHC2SHNHCH3C3H2FeCHCH2C2FeC3H2CH3C6H3CSH2C2H2CH3CHSH2C5HCSCH3C2H3CHNCHCHCHC2H3CH2SH5CH2CHCHCH6C4H2CHFeH2CH2CH2CHCHCH2CNH2C2H2NH4C4HCH4C2H3NCH3C3H3CH2CH4C2H3CH9SH5CH3CFeC2S2NS2FeS2FeH2S2HCSH2CH4C2H3CH3C3H2CH3CH4CH3SH4CSH2CH2C2FeC2HC2H4CH2CH3CH8C4H3CH5C2H2CH6N2H8C4NHCH4FeCHC3H6CH8FeCH2CH2SCFeHC3HCH2C2H2C2H12C3H4CH7FeHCHSH5C2H3SH6CH2NH4CH2CH2NC4H2C3H2CHCHFeS2FeS2FeHFeS4FeS2FeSFeS2CHFeS2HFe2CS2FeH2FeHFeS2C2HCH2CHC3H2C6H4C6H4C6H4C6H7NH4C2H2C2HC3H2C3H3CH2S2H5CSH2C2SH2CH2NC3HNCH7C3HC3HSH4CH3CH2N2H3CSH2C2HSH4C2H7CH3C4H3FeH4C2HC4HCH8NCH4C3H9CHSH4CH4SCHCHC2HCH2SH3C2H7CH2FeS2FeSCFeSFeS3FeS2FeSCFeSFeS3H2FeS2Fe3CS2FeS2Fe3HS2H7CSNC6H4CHCH2C3HC6H4C6H4C3HC2H4SCH4SC2HCH2C2HSH2C3H4CSHC4H5NC8H19NC8H19NCH2CH2CH2CH5CHCHCHCHCH2CHNC8H16SH7SCH2CH2NSHC2H2C2H3C3HCHCHCH14NHCS2H2C3H3CH3C2SC2H3CHCHCH7NHC3HC4H18C2H4CH5CHCHC3HCH2C2H2CHCH3CH2CH2C2HCHNH4SHNC3HSFeS2FeS2FeCFeS4FeS2FeSFeSH2CFeS2HFe2S3FeSHFeHFeS2H3NCH2C2HC2HC6H4C6H4C6H5C5H4CHC2H2CHC2H3FeH4CNHC2H2NHSH4CFeHNH2CHSH3CH2CSCH4C3HSHCH2CHCHCH3CH4FeH5C3H2CSHCHCNC2SCH2C2H3C3NCH2CH4C2H2CHCSH2C4SH15CHC2H7CH2C2H5CH3CH4C2HCH4CH3CFeS2FeSHFeSFeS3FeS2FeSCFeSFeS3CHFeS2Fe3CS2FeS2Fe3CS2HCHCH3SCHC6H4C2H3CH3C6H4C6H3C5SCH5C2HCHNCHC2SHNC8H20NC8H20C2SNH3CH11NCHC2H2SC3HC2SH6CH2CS2HC2H3NCH4CH2CHSH4C2H5CH4CHCH2CH2CH3CHCH3C3HCH3C3H8CH4CH2NH2
_chemical_formula_sum              "Fe256 S512 C1792 H3072 N128"
_cell_length_a       71.7306
_cell_length_b       49.0202
_cell_length_c       63.275
_cell_angle_alpha    89.6959
_cell_angle_beta     88.6806
_cell_angle_gamma    88.4087

_space_group_name_H-M_alt    "P 1"
_space_group_IT_number       1

loop_
  _space_group_symop_operation_xyz
  'x, y, z'

loop_
  _atom_site_type_symbol
  _atom_site_label
  _atom_site_symmetry_multiplicity
  _atom_site_fract_x
  _atom_site_fract_y
  _atom_site_fract_z
  _atom_site_occupancy
  Fe  Fe1       1.0  0.03561  0.21507  0.08245  1.0000
  Fe  Fe2       1.0  0.06999  0.19827  0.10893  1.0000
  S   S1        1.0  0.05266  0.18716  0.13737  1.0000
  S   S2        1.0  0.10127  0.19106  0.10668  1.0000
  Fe  Fe3       1.0  0.03379  0.16675  0.11477  1.0000
  C   C1        1.0  0.03298  0.15396  0.02933  1.0000
  Fe  Fe4       1.0  0.03659  0.22619  0.12965  1.0000
  H   H1        1.0  0.25338  0.11089  0.29857  1.0000
  S   S3        1.0  0.05224  0.17580  0.08661  1.0000
  S   S4        1.0  0.05532  0.23843  0.10247  1.0000
  C   C2        1.0  0.25778  0.32070  0.00106  1.0000
  S   S5        1.0  0.06306  0.45516  0.20786  1.0000
  Fe  Fe5       1.0  0.03772  0.41222  0.16798  1.0000
  S   S6        1.0  0.05558  0.39344  0.19304  1.0000
  S   S7        1.0  0.02420  0.12232  0.11428  1.0000
  Fe  Fe6       1.0  0.04128  0.42392  0.21473  1.0000
  Fe  Fe7       1.0  0.07547  0.42615  0.18388  1.0000
  S   S8        1.0  0.10629  0.41493  0.18257  1.0000
  S   S9        1.0  0.05867  0.44341  0.15732  1.0000
  Fe  Fe8       1.0  0.18629  0.40375  0.10095  1.0000
  S   S10       1.0  0.19818  0.40315  0.13319  1.0000
  S   S11       1.0  0.15548  0.41445  0.09787  1.0000
  Fe  Fe9       1.0  0.22441  0.39054  0.07981  1.0000
  S   S12       1.0  0.23861  0.38928  0.11141  1.0000
  S   S13       1.0  0.24248  0.38904  0.04931  1.0000
  Fe  Fe10      1.0  0.21384  0.36532  0.12232  1.0000
  S   S14       1.0  0.21146  0.33202  0.14713  1.0000
  Fe  Fe11      1.0  0.22142  0.42736  0.11940  1.0000
  H   H2        1.0  0.02876  0.24485  0.23346  1.0000
  S   S15       1.0  0.20048  0.36433  0.09050  1.0000
  S   S16       1.0  0.20879  0.43032  0.08732  1.0000
  Fe  Fe12      1.0  0.18000  0.16436  0.18688  1.0000
  S   S17       1.0  0.19293  0.14822  0.15669  1.0000
  S   S18       1.0  0.14926  0.17679  0.18934  1.0000
  Fe  Fe13      1.0  0.21716  0.16036  0.21087  1.0000
  S   S19       1.0  0.23226  0.14368  0.18189  1.0000
  S   S20       1.0  0.23516  0.16361  0.24022  1.0000
  Fe  Fe14      1.0  0.21608  0.17646  0.16441  1.0000
  S   S21       1.0  0.22939  0.20483  0.14024  1.0000
  Fe  Fe15      1.0  0.20754  0.11702  0.17722  1.0000
  S   S22       1.0  0.20769  0.07019  0.17530  1.0000
  S   S23       1.0  0.20236  0.19429  0.19360  1.0000
  S   S24       1.0  0.19327  0.13190  0.20735  1.0000
  C   C3        1.0  0.03336  0.04966  0.16061  1.0000
  C   C4        1.0  0.24085  0.19216  0.25574  1.0000
  C   C5        1.0  0.22955  0.21585  0.25670  1.0000
  H   H3        1.0  0.12445  0.98492  0.12465  1.0000
  C   C6        1.0  0.16323  0.98623  0.11223  1.0000
  H   H4        1.0  0.15430  0.43876  0.18384  1.0000
  H   H5        1.0  0.03179  0.30870  0.25358  1.0000
  H   H6        1.0  0.03011  0.39523  0.29228  1.0000
  H   H7        1.0  0.23597  0.29818  0.01660  1.0000
  C   C7        1.0  0.21424  0.00400  0.12370  1.0000
  C   C8        1.0  0.21327  0.99705  0.14514  1.0000
  C   C9        1.0  0.21178  0.01768  0.16062  1.0000
  C   C10       1.0  0.21093  0.04548  0.15492  1.0000
  C   C11       1.0  0.21189  0.05246  0.13346  1.0000
  C   C12       1.0  0.21367  0.03182  0.11797  1.0000
  C   C13       1.0  0.02667  0.34848  0.14752  1.0000
  H   H8        1.0  0.21128  0.01207  0.17718  1.0000
  H   H9        1.0  0.21131  0.07373  0.12881  1.0000
  H   H10       1.0  0.21456  0.03747  0.10144  1.0000
  C   C14       1.0  0.22375  0.24014  0.14120  1.0000
  C   C15       1.0  0.23267  0.25827  0.12723  1.0000
  C   C16       1.0  0.22855  0.28657  0.12814  1.0000
  C   C17       1.0  0.21574  0.29683  0.14333  1.0000
  C   C18       1.0  0.20677  0.27867  0.15710  1.0000
  C   C19       1.0  0.21050  0.25051  0.15579  1.0000
  H   H11       1.0  0.24286  0.25043  0.11576  1.0000
  H   H12       1.0  0.23567  0.30045  0.11755  1.0000
  H   H13       1.0  0.19690  0.28647  0.16894  1.0000
  H   H14       1.0  0.20311  0.23694  0.16617  1.0000
  S   S25       1.0  0.03702  0.02238  0.17910  1.0000
  C   C20       1.0  0.24850  0.36180  0.03155  1.0000
  C   C21       1.0  0.23894  0.33729  0.03160  1.0000
  H   H15       1.0  0.03220  0.25464  0.20654  1.0000
  C   C22       1.0  0.02656  0.06770  0.12547  1.0000
  H   H16       1.0  0.22788  0.33409  0.04317  1.0000
  S   S26       1.0  0.03505  0.41459  0.24968  1.0000
  C   C23       1.0  0.14147  0.41388  0.12119  1.0000
  C   C24       1.0  0.14768  0.40046  0.13936  1.0000
  C   C25       1.0  0.13662  0.40077  0.15794  1.0000
  C   C26       1.0  0.11915  0.41429  0.15853  1.0000
  C   C27       1.0  0.11265  0.42726  0.14026  1.0000
  C   C28       1.0  0.12381  0.42703  0.12162  1.0000
  H   H17       1.0  0.16089  0.38939  0.13908  1.0000
  H   H18       1.0  0.14165  0.39044  0.17195  1.0000
  H   H19       1.0  0.09918  0.43774  0.14054  1.0000
  H   H20       1.0  0.11883  0.43730  0.10757  1.0000
  H   H21       1.0  0.03424  0.35016  0.18009  1.0000
  H   H22       1.0  0.03652  0.13311  0.02351  1.0000
  C   C29       1.0  0.01782  0.38986  0.28379  1.0000
  C   C30       1.0  0.11436  0.18790  0.12983  1.0000
  C   C31       1.0  0.10668  0.19432  0.14976  1.0000
  C   C32       1.0  0.11756  0.19101  0.16789  1.0000
  C   C33       1.0  0.13611  0.18116  0.16622  1.0000
  C   C34       1.0  0.14368  0.17466  0.14625  1.0000
  C   C35       1.0  0.13286  0.17804  0.12816  1.0000
  H   H23       1.0  0.09241  0.20193  0.15123  1.0000
  H   H24       1.0  0.11159  0.19608  0.18328  1.0000
  H   H25       1.0  0.15782  0.16690  0.14470  1.0000
  H   H26       1.0  0.13874  0.17251  0.11283  1.0000
  C   C36       1.0  0.02814  0.09479  0.13245  1.0000
  C   C37       1.0  0.03233  0.09916  0.15363  1.0000
  H   H27       1.0  0.19011  0.46865  0.14154  1.0000
  H   H28       1.0  0.22228  0.18695  0.29420  1.0000
  H   H29       1.0  0.21808  0.26784  0.22706  1.0000
  H   H30       1.0  0.17624  0.42755  0.17156  1.0000
  H   H31       1.0  0.23015  0.97935  0.00535  1.0000
  H   H32       1.0  0.08746  0.11895  0.10632  1.0000
  S   S27       1.0  0.02520  0.38432  0.14383  1.0000
  H   H33       1.0  0.22495  0.25527  0.27132  1.0000
  H   H34       1.0  0.02015  0.26762  0.26343  1.0000
  C   C38       1.0  0.23967  0.25046  0.20621  1.0000
  H   H35       1.0  0.24638  0.19756  0.19429  1.0000
  H   H36       1.0  0.18294  0.17074  0.30990  1.0000
  C   C39       1.0  0.23140  0.27431  0.21953  1.0000
  H   H37       1.0  0.02243  0.23210  0.00350  1.0000
  H   H38       1.0  0.24818  0.20075  0.32717  1.0000
  H   H39       1.0  0.22931  0.24551  0.19406  1.0000
  H   H40       1.0  0.01320  0.33292  0.25672  1.0000
  C   C40       1.0  0.23350  0.20460  0.33239  1.0000
  C   C41       1.0  0.13524  0.98858  0.15667  1.0000
  H   H41       1.0  0.17447  0.00121  0.11013  1.0000
  H   H42       1.0  0.06656  0.10030  0.10455  1.0000
  C   C42       1.0  0.25595  0.27851  0.18039  1.0000
  H   H43       1.0  0.22795  0.29246  0.20969  1.0000
  H   H44       1.0  0.18893  0.19473  0.28970  1.0000
  C   C43       1.0  0.01649  0.39684  0.26225  1.0000
  H   H45       1.0  0.10753  0.99465  0.14431  1.0000
  H   H46       1.0  0.04081  0.47589  0.25569  1.0000
  H   H47       1.0  0.21053  0.98592  0.03180  1.0000
  S   S28       1.0  0.25357  0.26190  0.30153  1.0000
  H   H48       1.0  0.16043  0.99553  0.18647  1.0000
  C   C44       1.0  0.17473  0.47147  0.17943  1.0000
  H   H49       1.0  0.04096  0.32474  0.22127  1.0000
  H   H50       1.0  0.24374  0.27521  0.17035  1.0000
  H   H51       1.0  0.20376  0.12347  0.31436  1.0000
  H   H52       1.0  0.06692  0.12842  0.12212  1.0000
  H   H53       1.0  0.02318  0.06399  0.10919  1.0000
  H   H54       1.0  0.21124  0.15647  0.28808  1.0000
  H   H55       1.0  0.23987  0.23240  0.21673  1.0000
  C   C45       1.0  0.24932  0.23483  0.28385  1.0000
  N   N1        1.0  0.16758  0.24804  0.10697  1.0000
  C   C46       1.0  0.15086  0.26158  0.09689  1.0000
  C   C47       1.0  0.18381  0.26678  0.10432  1.0000
  C   C48       1.0  0.16411  0.24296  0.13022  1.0000
  C   C49       1.0  0.17153  0.22095  0.09641  1.0000
  C   C50       1.0  0.13214  0.24715  0.10015  1.0000
  C   C51       1.0  0.19238  0.26897  0.08182  1.0000
  C   C52       1.0  0.15797  0.26818  0.14338  1.0000
  C   C53       1.0  0.18875  0.20452  0.10423  1.0000
  H   H56       1.0  0.14881  0.28294  0.10249  1.0000
  H   H57       1.0  0.15313  0.26335  0.07949  1.0000
  H   H58       1.0  0.19525  0.26074  0.11497  1.0000
  H   H59       1.0  0.17981  0.28797  0.10925  1.0000
  H   H60       1.0  0.15349  0.22714  0.13284  1.0000
  H   H61       1.0  0.17689  0.23423  0.13763  1.0000
  H   H62       1.0  0.15962  0.20722  0.09902  1.0000
  H   H63       1.0  0.17251  0.22290  0.07888  1.0000
  H   H64       1.0  0.12798  0.24496  0.11704  1.0000
  H   H65       1.0  0.12091  0.25951  0.09257  1.0000
  H   H66       1.0  0.13232  0.22690  0.09244  1.0000
  H   H67       1.0  0.18196  0.27566  0.07008  1.0000
  H   H68       1.0  0.20338  0.28453  0.08181  1.0000
  H   H69       1.0  0.19932  0.24952  0.07672  1.0000
  H   H70       1.0  0.16842  0.28442  0.14254  1.0000
  H   H71       1.0  0.15660  0.26195  0.16025  1.0000
  H   H72       1.0  0.14418  0.27656  0.13867  1.0000
  H   H73       1.0  0.18520  0.19219  0.11848  1.0000
  H   H74       1.0  0.20060  0.21746  0.10792  1.0000
  H   H75       1.0  0.19412  0.19069  0.09149  1.0000
  C   C54       1.0  0.21288  0.17148  0.30103  1.0000
  S   S29       1.0  0.03095  0.25545  0.15693  1.0000
  H   H76       1.0  0.17015  0.44810  0.14132  1.0000
  H   H77       1.0  0.07541  0.07852  0.18704  1.0000
  H   H78       1.0  0.13449  0.11175  0.12036  1.0000
  H   H79       1.0  0.03700  0.30001  0.18452  1.0000
  C   C55       1.0  0.03300  0.30858  0.16949  1.0000
  H   H80       1.0  0.11582  0.09100  0.11270  1.0000
  C   C56       1.0  0.23386  0.23711  0.27057  1.0000
  H   H81       1.0  0.02185  0.28919  0.11998  1.0000
  H   H82       1.0  0.08332  0.12374  0.19713  1.0000
  H   H83       1.0  0.24138  0.00796  0.02710  1.0000
  H   H84       1.0  0.09064  0.04925  0.18759  1.0000
  H   H85       1.0  0.02859  0.35436  0.22987  1.0000
  H   H86       1.0  0.17484  0.46637  0.10695  1.0000
  H   H87       1.0  0.25576  0.42766  0.08185  1.0000
  H   H88       1.0  0.19410  0.20236  0.31641  1.0000
  C   C57       1.0  0.02925  0.04529  0.13938  1.0000
  C   C58       1.0  0.20906  0.13545  0.32775  1.0000
  H   H89       1.0  0.18088  0.98791  0.17103  1.0000
  C   C59       1.0  0.03168  0.33706  0.16693  1.0000
  N   N2        1.0  0.09122  0.33771  0.13469  1.0000
  C   C60       1.0  0.07449  0.34415  0.12131  1.0000
  C   C61       1.0  0.09412  0.30709  0.13512  1.0000
  C   C62       1.0  0.10794  0.35110  0.12437  1.0000
  C   C63       1.0  0.08714  0.34922  0.15645  1.0000
  C   C64       1.0  0.07009  0.37480  0.11737  1.0000
  C   C65       1.0  0.07768  0.29050  0.14388  1.0000
  C   C66       1.0  0.12726  0.33697  0.12701  1.0000
  C   C67       1.0  0.10118  0.34168  0.17367  1.0000
  H   H90       1.0  0.07610  0.33412  0.10557  1.0000
  H   H91       1.0  0.06163  0.33590  0.12867  1.0000
  H   H92       1.0  0.10636  0.30092  0.14463  1.0000
  H   H93       1.0  0.09731  0.29943  0.11884  1.0000
  H   H94       1.0  0.10636  0.35270  0.10690  1.0000
  H   H95       1.0  0.10899  0.37249  0.12980  1.0000
  H   H96       1.0  0.08642  0.37192  0.15598  1.0000
  H   H97       1.0  0.07315  0.34304  0.16240  1.0000
  H   H98       1.0  0.05788  0.37676  0.10691  1.0000
  H   H99       1.0  0.06602  0.38561  0.13218  1.0000
  H   H100      1.0  0.08177  0.38542  0.10940  1.0000
  H   H101      1.0  0.07294  0.29721  0.15985  1.0000
  H   H102      1.0  0.06581  0.29103  0.13295  1.0000
  H   H103      1.0  0.08217  0.26869  0.14526  1.0000
  H   H104      1.0  0.13080  0.33304  0.14367  1.0000
  H   H105      1.0  0.13814  0.35033  0.12016  1.0000
  H   H106      1.0  0.12828  0.31760  0.11807  1.0000
  H   H107      1.0  0.10228  0.31940  0.17660  1.0000
  H   H108      1.0  0.09624  0.35123  0.18876  1.0000
  H   H109      1.0  0.11503  0.35012  0.17010  1.0000
  H   H110      1.0  0.15851  0.06318  0.15968  1.0000
  H   H111      1.0  0.06769  0.11546  0.16652  1.0000
  C   C68       1.0  0.16043  0.02154  0.14806  1.0000
  H   H112      1.0  0.02797  0.02466  0.13373  1.0000
  H   H113      1.0  0.24938  0.16380  0.30755  1.0000
  H   H114      1.0  0.12337  0.01962  0.13492  1.0000
  C   C69       1.0  0.15598  0.04229  0.16585  1.0000
  H   H115      1.0  0.22612  0.21715  0.32042  1.0000
  H   H116      1.0  0.25287  0.29807  0.18878  1.0000
  H   H117      1.0  0.21728  0.21755  0.24709  1.0000
  H   H118      1.0  0.07514  0.05338  0.16622  1.0000
  H   H119      1.0  0.15325  0.02936  0.13383  1.0000
  H   H120      1.0  0.17557  0.02307  0.14413  1.0000
  H   H121      1.0  0.04138  0.16828  0.01961  1.0000
  C   C70       1.0  0.24354  0.31696  0.01644  1.0000
  H   H122      1.0  0.22450  0.99170  0.05510  1.0000
  C   C71       1.0  0.02946  0.29113  0.15264  1.0000
  H   H123      1.0  0.17485  0.43487  0.19902  1.0000
  C   C72       1.0  0.03489  0.07678  0.16756  1.0000
  C   C73       1.0  0.02677  0.33257  0.22584  1.0000
  C   C74       1.0  0.24059  0.14707  0.31361  1.0000
  H   H124      1.0  0.14126  0.04183  0.17146  1.0000
  H   H125      1.0  0.16555  0.03939  0.17928  1.0000
  H   H126      1.0  0.03321  0.11981  0.15939  1.0000
  H   H127      1.0  0.10530  0.13182  0.18412  1.0000
  S   S30       1.0  0.21657  0.97881  0.10355  1.0000
  H   H128      1.0  0.07890  0.14199  0.15242  1.0000
  H   H129      1.0  0.08636  0.15596  0.18507  1.0000
  H   H130      1.0  0.12986  0.08174  0.13534  1.0000
  N   N3        1.0  0.09330  0.10263  0.15038  1.0000
  C   C75       1.0  0.08164  0.09096  0.13324  1.0000
  C   C76       1.0  0.09972  0.07966  0.16464  1.0000
  C   C77       1.0  0.11011  0.11648  0.14105  1.0000
  C   C78       1.0  0.08163  0.12364  0.16245  1.0000
  C   C79       1.0  0.07551  0.11110  0.11572  1.0000
  C   C80       1.0  0.08417  0.06470  0.17693  1.0000
  C   C81       1.0  0.12309  0.09881  0.12659  1.0000
  C   C82       1.0  0.08994  0.13387  0.18325  1.0000
  H   H131      1.0  0.08891  0.07317  0.12552  1.0000
  H   H132      1.0  0.06857  0.08261  0.14006  1.0000
  H   H133      1.0  0.10985  0.08685  0.17630  1.0000
  H   H134      1.0  0.10743  0.06360  0.15536  1.0000
  H   H135      1.0  0.10577  0.13480  0.13181  1.0000
  H   H136      1.0  0.11903  0.12443  0.15363  1.0000
  H   H137      1.0  0.12789  0.46972  0.18628  1.0000
  H   H138      1.0  0.01916  0.33965  0.11552  1.0000
  C   C83       1.0  0.02467  0.30244  0.13308  1.0000
  Fe  Fe16      1.0  0.04476  0.47110  0.18175  1.0000
  S   S31       1.0  0.02924  0.22500  0.04774  1.0000
  S   S32       1.0  0.23245  0.46168  0.13977  1.0000
  H   H139      1.0  0.14983  0.99601  0.10780  1.0000
  H   H140      1.0  0.24069  0.27986  0.23250  1.0000
  H   H141      1.0  0.25757  0.22954  0.16797  1.0000
  C   C84       1.0  0.02308  0.33103  0.13061  1.0000
  C   C85       1.0  0.16956  0.44150  0.18340  1.0000
  H   H142      1.0  0.24051  0.46893  0.09544  1.0000
  S   S33       1.0  0.02200  0.44134  0.19017  1.0000
  N   N4        1.0  0.25846  0.25510  0.19580  1.0000
  N   N5        1.0  0.22146  0.15798  0.32004  1.0000
  H   H143      1.0  0.03744  0.15610  0.04585  1.0000
  H   H144      1.0  0.01227  0.35064  0.00637  1.0000
  H   H145      1.0  0.22891  0.11231  0.29590  1.0000
  C   C86       1.0  0.25581  0.00082  0.03008  1.0000
  H   H146      1.0  0.03786  0.08050  0.18397  1.0000
  N   N6        1.0  0.15584  0.99220  0.15269  1.0000
  C   C87       1.0  0.02907  0.26274  0.22266  1.0000
  H   H147      1.0  0.01469  0.14427  0.07111  1.0000
  C   C88       1.0  0.19361  0.18551  0.30484  1.0000
  C   C89       1.0  0.25652  0.19010  0.26872  1.0000
  H   H148      1.0  0.19029  0.47204  0.17848  1.0000
  H   H149      1.0  0.04066  0.27603  0.22684  1.0000
  C   C90       1.0  0.12219  0.99771  0.13890  1.0000
  H   H150      1.0  0.24843  0.13908  0.32734  1.0000
  H   H151      1.0  0.13048  0.99939  0.17131  1.0000
  H   H152      1.0  0.24290  0.13475  0.28022  1.0000
  H   H153      1.0  0.01776  0.33243  0.21197  1.0000
  C   C91       1.0  0.01208  0.16134  0.02676  1.0000
  H   H154      1.0  0.23728  0.46793  0.05526  1.0000
  C   C92       1.0  0.26071  0.21124  0.28275  1.0000
  H   H155      1.0  0.01578  0.11125  0.04373  1.0000
  C   C93       1.0  0.01924  0.31734  0.24562  1.0000
  C   C94       1.0  0.24132  0.12516  0.29607  1.0000
  S   S34       1.0  0.01584  0.20496  0.10942  1.0000
  C   C95       1.0  0.16577  0.98364  0.17257  1.0000
  C   C96       1.0  0.17458  0.46963  0.14114  1.0000
  H   H156      1.0  0.14137  0.46305  0.15415  1.0000
  H   H157      1.0  0.26055  0.01287  0.04369  1.0000
  H   H158      1.0  0.01197  0.46553  0.26511  1.0000
  C   C97       1.0  0.01158  0.24363  0.01195  1.0000
  C   C98       1.0  0.01146  0.24392  0.03423  1.0000
  C   C99       1.0  0.21620  0.97682  0.04643  1.0000
  Fe  Fe17      1.0  0.02608  0.45029  0.58456  1.0000
  Fe  Fe18      1.0  0.06400  0.43921  0.60460  1.0000
  S   S35       1.0  0.05165  0.43743  0.63721  1.0000
  S   S36       1.0  0.09501  0.43107  0.59980  1.0000
  Fe  Fe19      1.0  0.02955  0.41206  0.62359  1.0000
  H   H159      1.0  0.06475  0.04335  0.60528  1.0000
  C   C100      1.0  0.11439  0.28140  0.64179  1.0000
  N   N7        1.0  0.07959  0.05691  0.63272  1.0000
  S   S37       1.0  0.04287  0.41141  0.59114  1.0000
  H   H160      1.0  0.11946  0.04416  0.63623  1.0000
  S   S38       1.0  0.05146  0.17551  0.65053  1.0000
  H   H161      1.0  0.14184  0.19133  0.59661  1.0000
  H   H162      1.0  0.05011  0.05195  0.62735  1.0000
  C   C101      1.0  0.22453  0.01546  0.66354  1.0000
  H   H163      1.0  0.23484  0.46421  0.33743  1.0000
  C   C102      1.0  0.25006  0.18236  0.47823  1.0000
  N   N8        1.0  0.12706  0.23151  0.64005  1.0000
  H   H164      1.0  0.24296  0.44131  0.39871  1.0000
  H   H165      1.0  0.21220  0.01181  0.61214  1.0000
  C   C103      1.0  0.02218  0.07570  0.65980  1.0000
  Fe  Fe20      1.0  0.17435  0.13884  0.60345  1.0000
  S   S39       1.0  0.18546  0.15382  0.63384  1.0000
  S   S40       1.0  0.14368  0.12912  0.60190  1.0000
  Fe  Fe21      1.0  0.21248  0.14261  0.57990  1.0000
  S   S41       1.0  0.22578  0.15857  0.60931  1.0000
  S   S42       1.0  0.23159  0.13946  0.55016  1.0000
  Fe  Fe22      1.0  0.20976  0.12542  0.62600  1.0000
  S   S43       1.0  0.22091  0.09695  0.65146  1.0000
  Fe  Fe23      1.0  0.19996  0.18565  0.61427  1.0000
  S   S44       1.0  0.19401  0.23173  0.61922  1.0000
  S   S45       1.0  0.19779  0.10844  0.59659  1.0000
  S   S46       1.0  0.18765  0.17164  0.58375  1.0000
  H   H166      1.0  0.10759  0.38465  0.65054  1.0000
  H   H167      1.0  0.05309  0.29345  0.61835  1.0000
  C   C104      1.0  0.22332  0.17803  0.33785  1.0000
  C   C105      1.0  0.01558  0.03002  0.64756  1.0000
  H   H168      1.0  0.11471  0.20391  0.61798  1.0000
  C   C106      1.0  0.08688  0.36468  0.63348  1.0000
  N   N9        1.0  0.22807  0.14846  0.45989  1.0000
  C   C107      1.0  0.11525  0.06472  0.63043  1.0000
  H   H169      1.0  0.15411  0.02297  0.64458  1.0000
  C   C108      1.0  0.16897  0.02033  0.64879  1.0000
  H   H170      1.0  0.20400  0.17415  0.49274  1.0000
  S   S47       1.0  0.25458  0.04202  0.48666  1.0000
  C   C109      1.0  0.23735  0.11224  0.53236  1.0000
  S   S48       1.0  0.01445  0.99479  0.65266  1.0000
  C   C110      1.0  0.07599  0.07626  0.65095  1.0000
  C   C111      1.0  0.23305  0.06677  0.51817  1.0000
  C   C112      1.0  0.22761  0.08791  0.53230  1.0000
  H   H171      1.0  0.22549  0.04796  0.51839  1.0000
  H   H172      1.0  0.21596  0.08528  0.54321  1.0000
  C   C113      1.0  0.21980  0.00375  0.64435  1.0000
  C   C114      1.0  0.21580  0.02074  0.62706  1.0000
  C   C115      1.0  0.21592  0.04928  0.62911  1.0000
  C   C116      1.0  0.22069  0.06109  0.64825  1.0000
  H   H173      1.0  0.01525  0.09716  0.48891  1.0000
  H   H174      1.0  0.24057  0.08660  0.43474  1.0000
  H   H175      1.0  0.10943  0.34860  0.65214  1.0000
  C   C117      1.0  0.25444  0.07494  0.57468  1.0000
  C   C118      1.0  0.14258  0.20988  0.60654  1.0000
  H   H176      1.0  0.09596  0.36109  0.61923  1.0000
  H   H177      1.0  0.07057  0.99640  0.66039  1.0000
  H   H178      1.0  0.25807  0.14030  0.36119  1.0000
  H   H179      1.0  0.01363  0.14051  0.50676  1.0000
  C   C119      1.0  0.19997  0.25906  0.63622  1.0000
  C   C120      1.0  0.19209  0.28529  0.63255  1.0000
  H   H180      1.0  0.18276  0.28837  0.61952  1.0000
  H   H181      1.0  0.17877  0.47048  0.61836  1.0000
  S   S49       1.0  0.22203  0.46478  0.63824  1.0000
  H   H182      1.0  0.20385  0.14438  0.50884  1.0000
  C   C121      1.0  0.23850  0.09916  0.44920  1.0000
  H   H183      1.0  0.10608  0.25030  0.62012  1.0000
  C   C122      1.0  0.21237  0.15571  0.49699  1.0000
  C   C123      1.0  0.13752  0.13374  0.64510  1.0000
  C   C124      1.0  0.12977  0.13418  0.62500  1.0000
  C   C125      1.0  0.11052  0.13906  0.62319  1.0000
  C   C126      1.0  0.09920  0.14420  0.64124  1.0000
  H   H184      1.0  0.15221  0.12927  0.64677  1.0000
  H   H185      1.0  0.10439  0.13931  0.60772  1.0000
  H   H186      1.0  0.08445  0.14794  0.63953  1.0000
  C   C127      1.0  0.10886  0.43262  0.62242  1.0000
  C   C128      1.0  0.12687  0.42065  0.62205  1.0000
  C   C129      1.0  0.13773  0.42036  0.64031  1.0000
  H   H187      1.0  0.24156  0.08822  0.57468  1.0000
  H   H188      1.0  0.08683  0.23830  0.64809  1.0000
  C   C130      1.0  0.10202  0.44510  0.64096  1.0000
  H   H189      1.0  0.13230  0.41109  0.60772  1.0000
  H   H190      1.0  0.15143  0.41059  0.64000  1.0000
  H   H191      1.0  0.08844  0.45514  0.64127  1.0000
  H   H192      1.0  0.04380  0.34269  0.61646  1.0000
  S   S50       1.0  0.04485  0.98739  0.60160  1.0000
  H   H193      1.0  0.22411  0.11865  0.48496  1.0000
  H   H194      1.0  0.09222  0.20274  0.64267  1.0000
  C   C131      1.0  0.09630  0.06520  0.61951  1.0000
  H   H195      1.0  0.22729  0.44784  0.42023  1.0000
  H   H196      1.0  0.21826  0.23558  0.65620  1.0000
  H   H197      1.0  0.21246  0.06201  0.61579  1.0000
  H   H198      1.0  0.17749  0.03565  0.64042  1.0000
  H   H199      1.0  0.07934  0.38444  0.63071  1.0000
  H   H200      1.0  0.01508  0.45070  0.40806  1.0000
  H   H201      1.0  0.12615  0.07071  0.61864  1.0000
  H   H202      1.0  0.22515  0.16125  0.50526  1.0000
  H   H203      1.0  0.09445  0.08646  0.61358  1.0000
  H   H204      1.0  0.23714  0.19364  0.48296  1.0000
  C   C132      1.0  0.19640  0.30773  0.64535  1.0000
  H   H205      1.0  0.20368  0.16655  0.44526  1.0000
  H   H206      1.0  0.02683  0.35053  0.57050  1.0000
  H   H207      1.0  0.21817  0.44723  0.39429  1.0000
  H   H208      1.0  0.20324  0.12942  0.47240  1.0000
  C   C133      1.0  0.22751  0.18679  0.43166  1.0000
  H   H209      1.0  0.06237  0.37871  0.66151  1.0000
  C   C134      1.0  0.25782  0.09407  0.50376  1.0000
  C   C135      1.0  0.02553  0.34124  0.64387  1.0000
  H   H210      1.0  0.05611  0.10254  0.62078  1.0000
  C   C136      1.0  0.14601  0.23858  0.64793  1.0000
  H   H211      1.0  0.15971  0.19755  0.64801  1.0000
  C   C137      1.0  0.21681  0.13679  0.47807  1.0000
  C   C138      1.0  0.21766  0.17268  0.45057  1.0000
  C   C139      1.0  0.01265  0.35952  0.56805  1.0000
  H   H212      1.0  0.04437  0.46545  0.48455  1.0000
  C   C140      1.0  0.15709  0.21512  0.65866  1.0000
  H   H213      1.0  0.09788  0.05201  0.60522  1.0000
  H   H214      1.0  0.15495  0.24687  0.63491  1.0000
  H   H215      1.0  0.23096  0.16841  0.35115  1.0000
  C   C141      1.0  0.02431  0.46843  0.40799  1.0000
  C   C142      1.0  0.23033  0.45341  0.40347  1.0000
  H   H216      1.0  0.01302  0.43796  0.44058  1.0000
  C   C143      1.0  0.21209  0.25553  0.65310  1.0000
  H   H217      1.0  0.14326  0.06027  0.66433  1.0000
  H   H218      1.0  0.21553  0.12265  0.43657  1.0000
  H   H219      1.0  0.02762  0.42651  0.47390  1.0000
  H   H220      1.0  0.04440  0.08498  0.60068  1.0000
  H   H221      1.0  0.24261  0.03851  0.56131  1.0000
  C   C144      1.0  0.03804  0.32991  0.62883  1.0000
  H   H222      1.0  0.13950  0.22762  0.59617  1.0000
  H   H223      1.0  0.26014  0.13382  0.51791  1.0000
  H   H224      1.0  0.06244  0.44623  0.47146  1.0000
  C   C145      1.0  0.11477  0.22388  0.65872  1.0000
  C   C146      1.0  0.06290  0.05814  0.61856  1.0000
  H   H225      1.0  0.13196  0.18853  0.63386  1.0000
  H   H226      1.0  0.07681  0.34809  0.63438  1.0000
  H   H227      1.0  0.21962  0.20588  0.42765  1.0000
  H   H228      1.0  0.10863  0.29772  0.63136  1.0000
  H   H229      1.0  0.09497  0.02398  0.64878  1.0000
  H   H230      1.0  0.19038  0.32775  0.64210  1.0000
  H   H231      1.0  0.06831  0.09235  0.59643  1.0000
  H   H232      1.0  0.22314  0.12537  0.35775  1.0000
  C   C147      1.0  0.22954  0.12691  0.44286  1.0000
  C   C148      1.0  0.04328  0.30195  0.62995  1.0000
  H   H233      1.0  0.06102  0.07608  0.65595  1.0000
  H   H234      1.0  0.01711  0.14742  0.47094  1.0000
  H   H235      1.0  0.15946  0.46527  0.63598  1.0000
  C   C149      1.0  0.08219  0.02754  0.63960  1.0000
  H   H236      1.0  0.22936  0.08742  0.46008  1.0000
  S   S51       1.0  0.01483  0.12249  0.63665  1.0000
  C   C150      1.0  0.09403  0.21958  0.65397  1.0000
  C   C151      1.0  0.12619  0.13899  0.66314  1.0000
  C   C152      1.0  0.10700  0.14442  0.66130  1.0000
  H   H237      1.0  0.23800  0.13406  0.42909  1.0000
  C   C153      1.0  0.11284  0.44483  0.65916  1.0000
  C   C154      1.0  0.05795  0.08628  0.60873  1.0000
  H   H238      1.0  0.14483  0.25515  0.65984  1.0000
  H   H239      1.0  0.25713  0.15523  0.45259  1.0000
  C   C155      1.0  0.22529  0.04401  0.66535  1.0000
  S   S52       1.0  0.25843  0.28135  0.36015  1.0000
  H   H240      1.0  0.25572  0.05717  0.61546  1.0000
  C   C156      1.0  0.11902  0.25580  0.62833  1.0000
  H   H241      1.0  0.07839  0.09764  0.64583  1.0000
  C   C157      1.0  0.24812  0.06971  0.50373  1.0000
  H   H242      1.0  0.07618  0.31204  0.65718  1.0000
  H   H243      1.0  0.01659  0.99268  0.33881  1.0000
  H   H244      1.0  0.03911  0.46133  0.40712  1.0000
  H   H245      1.0  0.11550  0.08008  0.64320  1.0000
  H   H246      1.0  0.15713  0.21059  0.61194  1.0000
  H   H247      1.0  0.08436  0.01415  0.62552  1.0000
  C   C158      1.0  0.03608  0.28492  0.64603  1.0000
  H   H248      1.0  0.21448  0.18880  0.46236  1.0000
  H   H249      1.0  0.22784  0.17400  0.41724  1.0000
  C   C159      1.0  0.01420  0.43830  0.47392  1.0000
  C   C160      1.0  0.12842  0.20760  0.62516  1.0000
  H   H250      1.0  0.24187  0.19273  0.43529  1.0000
  H   H251      1.0  0.25320  0.13853  0.47683  1.0000
  H   H252      1.0  0.12888  0.26246  0.61560  1.0000
  Fe  Fe24      1.0  0.02695  0.15098  0.66050  1.0000
  Fe  Fe25      1.0  0.21126  0.43637  0.66382  1.0000
  H   H253      1.0  0.20709  0.10074  0.34923  1.0000
  H   H254      1.0  0.20942  0.18411  0.34476  1.0000
  S   S53       1.0  0.19128  0.40383  0.65491  1.0000
  H   H255      1.0  0.21299  0.45601  0.34887  1.0000
  C   C161      1.0  0.24749  0.15503  0.46658  1.0000
  S   S54       1.0  0.25557  0.03049  0.42633  1.0000
  S   S55       1.0  0.04406  0.25018  0.64714  1.0000
  H   H256      1.0  0.23623  0.04390  0.58842  1.0000
  H   H257      1.0  0.25787  0.17843  0.49296  1.0000
  C   C162      1.0  0.06595  0.01585  0.65290  1.0000
  C   C163      1.0  0.24795  0.04526  0.57674  1.0000
  H   H258      1.0  0.04641  0.44735  0.44107  1.0000
  C   C164      1.0  0.25242  0.11518  0.51793  1.0000
  H   H259      1.0  0.11988  0.20442  0.66602  1.0000
  H   H260      1.0  0.25603  0.12540  0.59005  1.0000
  H   H261      1.0  0.05409  0.01096  0.64284  1.0000
  H   H262      1.0  0.12695  0.28954  0.64913  1.0000
  H   H263      1.0  0.17100  0.22260  0.66293  1.0000
  H   H264      1.0  0.17388  0.00018  0.64251  1.0000
  H   H265      1.0  0.25242  0.10121  0.45615  1.0000
  H   H266      1.0  0.24357  0.08911  0.61295  1.0000
  C   C165      1.0  0.01812  0.32416  0.65974  1.0000
  H   H267      1.0  0.26071  0.07721  0.55861  1.0000
  C   C166      1.0  0.01581  0.08690  0.64086  1.0000
  H   H268      1.0  0.17546  0.07199  0.65923  1.0000
  S   S56       1.0  0.01881  0.37648  0.64373  1.0000
  C   C167      1.0  0.13066  0.43231  0.65896  1.0000
  C   C168      1.0  0.02337  0.29621  0.66087  1.0000
  H   H269      1.0  0.10364  0.27756  0.65422  1.0000
  C   C169      1.0  0.09922  0.36611  0.65308  1.0000
  C   C170      1.0  0.25780  0.07933  0.61264  1.0000
  C   C171      1.0  0.22722  0.46245  0.35284  1.0000
  H   H270      1.0  0.25928  0.03081  0.58141  1.0000
  C   C172      1.0  0.21787  0.11509  0.34361  1.0000
  C   C173      1.0  0.20869  0.30428  0.66208  1.0000
  C   C174      1.0  0.02174  0.04740  0.66330  1.0000
  H   H271      1.0  0.06101  0.02959  0.66577  1.0000
  H   H272      1.0  0.01299  0.45166  0.48792  1.0000
  H   H273      1.0  0.23350  0.44556  0.36211  1.0000
  H   H274      1.0  0.25879  0.19615  0.46840  1.0000
  C   C175      1.0  0.01232  0.98114  0.35306  1.0000
  H   H275      1.0  0.05835  0.33608  0.66666  1.0000
  H   H276      1.0  0.23398  0.21736  0.34683  1.0000
  H   H277      1.0  0.01138  0.05997  0.51413  1.0000
  H   H278      1.0  0.01281  0.09194  0.52705  1.0000
  H   H279      1.0  0.01462  0.37989  0.56073  1.0000
  H   H280      1.0  0.01847  0.97703  0.50110  1.0000
  H   H281      1.0  0.02212  0.98729  0.36541  1.0000
  C   C176      1.0  0.04468  0.46767  0.44881  1.0000
  C   C177      1.0  0.21641  0.27799  0.66590  1.0000
  H   H282      1.0  0.25893  0.46172  0.37389  1.0000
  H   H283      1.0  0.01461  0.11554  0.45677  1.0000
  H   H284      1.0  0.22929  0.10248  0.33616  1.0000
  C   C178      1.0  0.05398  0.46554  0.47068  1.0000
  Fe  Fe26      1.0  0.03477  0.47447  0.62742  1.0000
  H   H285      1.0  0.18177  0.47476  0.64590  1.0000
  H   H286      1.0  0.19621  0.14409  0.33568  1.0000
  C   C179      1.0  0.01158  0.45388  0.45297  1.0000
  Fe  Fe27      1.0  0.03754  0.21167  0.66680  1.0000
  N   N10       1.0  0.22888  0.36396  0.94494  1.0000
  Fe  Fe28      1.0  0.02501  0.17482  0.70458  1.0000
  H   H287      1.0  0.01317  0.33327  0.94928  1.0000
  S   S57       1.0  0.03912  0.13696  0.69117  1.0000
  S   S58       1.0  0.05012  0.20120  0.69832  1.0000
  H   H288      1.0  0.09825  0.32547  0.68136  1.0000
  H   H289      1.0  0.14324  0.01882  0.71528  1.0000
  C   C180      1.0  0.22867  0.39917  0.91452  1.0000
  Fe  Fe29      1.0  0.20811  0.42473  0.71115  1.0000
  C   C181      1.0  0.24603  0.99041  0.78802  1.0000
  S   S59       1.0  0.21428  0.43457  0.74560  1.0000
  Fe  Fe30      1.0  0.17414  0.42033  0.68233  1.0000
  S   S60       1.0  0.14322  0.43130  0.68257  1.0000
  H   H290      1.0  0.12302  0.05833  0.70492  1.0000
  S   S61       1.0  0.18730  0.39187  0.70599  1.0000
  H   H291      1.0  0.20526  0.33321  0.72795  1.0000
  H   H292      1.0  0.13233  0.13907  0.67860  1.0000
  C   C182      1.0  0.24811  0.46135  0.74481  1.0000
  H   H293      1.0  0.01906  0.19199  0.80056  1.0000
  C   C183      1.0  0.22952  0.35802  0.73237  1.0000
  H   H294      1.0  0.21264  0.97762  0.75156  1.0000
  H   H295      1.0  0.12231  0.34519  0.69569  1.0000
  H   H296      1.0  0.01945  0.20793  0.87117  1.0000
  H   H297      1.0  0.23285  0.37787  0.99055  1.0000
  C   C184      1.0  0.01565  0.13684  0.83395  1.0000
  H   H298      1.0  0.18313  0.11176  0.67902  1.0000
  H   H299      1.0  0.16418  0.99752  0.71396  1.0000
  C   C185      1.0  0.25762  0.33547  0.74897  1.0000
  H   H300      1.0  0.10731  0.45418  0.67351  1.0000
  C   C186      1.0  0.22400  0.34300  0.92867  1.0000
  H   H301      1.0  0.10416  0.40194  0.68622  1.0000
  H   H302      1.0  0.02310  0.20624  0.83505  1.0000
  C   C187      1.0  0.06061  0.38799  0.69436  1.0000
  S   S62       1.0  0.19317  0.45430  0.68981  1.0000
  H   H303      1.0  0.22592  0.27498  0.67877  1.0000
  H   H304      1.0  0.24372  0.39456  0.91191  1.0000
  C   C188      1.0  0.23037  0.99451  0.77521  1.0000
  H   H305      1.0  0.09667  0.37918  0.70631  1.0000
  H   H306      1.0  0.22225  0.01337  0.77655  1.0000
  H   H307      1.0  0.01770  0.28345  0.67332  1.0000
  C   C189      1.0  0.23299  0.45576  0.77901  1.0000
  C   C190      1.0  0.01189  0.12651  0.75626  1.0000
  H   H308      1.0  0.03759  0.17876  0.84233  1.0000
  H   H309      1.0  0.09965  0.05744  0.66942  1.0000
  H   H310      1.0  0.02341  0.35745  0.96628  1.0000
  C   C191      1.0  0.25370  0.38003  0.78323  1.0000
  H   H311      1.0  0.13734  0.03163  0.68009  1.0000
  H   H312      1.0  0.23096  0.35489  0.77557  1.0000
  H   H313      1.0  0.01710  0.39278  0.99126  1.0000
  H   H314      1.0  0.13028  0.37787  0.70289  1.0000
  H   H315      1.0  0.24953  0.40308  0.73513  1.0000
  C   C192      1.0  0.13372  0.07010  0.69610  1.0000
  H   H316      1.0  0.11536  0.23932  0.67150  1.0000
  C   C193      1.0  0.21858  0.35687  0.96526  1.0000
  C   C194      1.0  0.21896  0.37756  0.98344  1.0000
  C   C195      1.0  0.08721  0.07101  0.67126  1.0000
  H   H317      1.0  0.01653  0.08955  0.77436  1.0000
  H   H318      1.0  0.15983  0.01928  0.73595  1.0000
  C   C196      1.0  0.17162  0.02033  0.67296  1.0000
  C   C197      1.0  0.24762  0.46921  0.78880  1.0000
  H   H319      1.0  0.12598  0.08614  0.68713  1.0000
  H   H320      1.0  0.22146  0.44844  0.78858  1.0000
  H   H321      1.0  0.07604  0.40633  0.66854  1.0000
  C   C198      1.0  0.25802  0.38382  0.73662  1.0000
  S   S63       1.0  0.25692  0.02383  0.86665  1.0000
  H   H322      1.0  0.25127  0.32296  0.76187  1.0000
  N   N11       1.0  0.16522  0.04589  0.68464  1.0000
  H   H323      1.0  0.22631  0.42141  0.91185  1.0000
  C   C199      1.0  0.01600  0.18749  0.86508  1.0000
  Fe  Fe31      1.0  0.20603  0.37739  0.67899  1.0000
  C   C200      1.0  0.21504  0.33771  0.74078  1.0000
  H   H324      1.0  0.16666  0.05945  0.71740  1.0000
  H   H325      1.0  0.04345  0.16433  0.78394  1.0000
  C   C201      1.0  0.22199  0.39145  0.93709  1.0000
  H   H326      1.0  0.04144  0.13738  0.80272  1.0000
  C   C202      1.0  0.23308  0.45186  0.75697  1.0000
  H   H327      1.0  0.05592  0.36792  0.70026  1.0000
  H   H328      1.0  0.13027  0.36922  0.67567  1.0000
  H   H329      1.0  0.22792  0.00251  0.67690  1.0000
  H   H330      1.0  0.22648  0.29956  0.92142  1.0000
  H   H331      1.0  0.22609  0.40815  0.94764  1.0000
  H   H332      1.0  0.03044  0.13317  0.83843  1.0000
  H   H333      1.0  0.15015  0.20819  0.67349  1.0000
  C   C203      1.0  0.17695  0.06896  0.67652  1.0000
  H   H334      1.0  0.14209  0.08093  0.70763  1.0000
  H   H335      1.0  0.20644  0.39248  0.93726  1.0000
  H   H336      1.0  0.22077  0.38832  0.90241  1.0000
  C   C204      1.0  0.08546  0.33878  0.68251  1.0000
  C   C205      1.0  0.25978  0.31617  0.72968  1.0000
  C   C206      1.0  0.14483  0.05128  0.68042  1.0000
  H   H337      1.0  0.09211  0.09079  0.67719  1.0000
  H   H338      1.0  0.22889  0.38864  0.76576  1.0000
  H   H339      1.0  0.20359  0.35353  0.96207  1.0000
  H   H340      1.0  0.20923  0.34590  0.92380  1.0000
  C   C207      1.0  0.02262  0.18520  0.84177  1.0000
  H   H341      1.0  0.22153  0.31807  0.74587  1.0000
  N   N12       1.0  0.08947  0.36712  0.67452  1.0000
  S   S64       1.0  0.25164  0.01624  0.80643  1.0000
  H   H342      1.0  0.18438  0.03613  0.70971  1.0000
  C   C208      1.0  0.15834  0.01786  0.71855  1.0000
  H   H343      1.0  0.07803  0.06297  0.68409  1.0000
  H   H344      1.0  0.01972  0.05476  0.73646  1.0000
  H   H345      1.0  0.25739  0.37261  0.70267  1.0000
  H   H346      1.0  0.23264  0.34534  0.91391  1.0000
  N   N13       1.0  0.01223  0.16636  0.82773  1.0000
  H   H347      1.0  0.02509  0.12475  0.74768  1.0000
  H   H348      1.0  0.24701  0.38207  0.79919  1.0000
  S   S65       1.0  0.21496  0.33192  0.67863  1.0000
  S   S66       1.0  0.22777  0.40882  0.68558  1.0000
  C   C209      1.0  0.17299  0.09738  0.68612  1.0000
  H   H349      1.0  0.15898  0.10549  0.68203  1.0000
  H   H350      1.0  0.20939  0.37069  0.99634  1.0000
  H   H351      1.0  0.20651  0.34668  0.75399  1.0000
  N   N14       1.0  0.24625  0.36157  0.74602  1.0000
  H   H352      1.0  0.06820  0.39867  0.70679  1.0000
  H   H353      1.0  0.01741  0.40435  0.95624  1.0000
  S   S67       1.0  0.09331  0.15109  0.68441  1.0000
  H   H354      1.0  0.25294  0.39688  0.97031  1.0000
  Fe  Fe32      1.0  0.06280  0.16414  0.68194  1.0000
  C   C210      1.0  0.07220  0.38536  0.67362  1.0000
  C   C211      1.0  0.25906  0.38872  0.95544  1.0000
  C   C212      1.0  0.22651  0.31291  0.93556  1.0000
  H   H355      1.0  0.17499  0.09792  0.70340  1.0000
  C   C213      1.0  0.23897  0.37116  0.76743  1.0000
  H   H356      1.0  0.16402  0.00226  0.67893  1.0000
  H   H357      1.0  0.01340  0.12317  0.82024  1.0000
  C   C214      1.0  0.10249  0.37988  0.68988  1.0000
  H   H358      1.0  0.23985  0.30911  0.94366  1.0000
  H   H359      1.0  0.19194  0.06406  0.67906  1.0000
  C   C215      1.0  0.07035  0.32305  0.67122  1.0000
  H   H360      1.0  0.18665  0.01568  0.67576  1.0000
  H   H361      1.0  0.23345  0.35165  0.71611  1.0000
  H   H362      1.0  0.08192  0.33870  0.69974  1.0000
  C   C216      1.0  0.24977  0.36261  0.94778  1.0000
  H   H363      1.0  0.01586  0.32483  0.97650  1.0000
  H   H364      1.0  0.25823  0.32590  0.71402  1.0000
  H   H365      1.0  0.22918  0.05290  0.68018  1.0000
  H   H366      1.0  0.02301  0.17170  0.87500  1.0000
  H   H367      1.0  0.25905  0.40049  0.77912  1.0000
  H   H368      1.0  0.22198  0.37797  0.73020  1.0000
  C   C217      1.0  0.12235  0.36692  0.69082  1.0000
  H   H369      1.0  0.22415  0.33731  0.97202  1.0000
  H   H370      1.0  0.05006  0.17028  0.81050  1.0000
  C   C218      1.0  0.16922  0.04100  0.70770  1.0000
  H   H371      1.0  0.21409  0.39836  0.97893  1.0000
  H   H372      1.0  0.04781  0.40055  0.69124  1.0000
  H   H373      1.0  0.25370  0.34591  0.95889  1.0000
  H   H374      1.0  0.24841  0.45850  0.72786  1.0000
  C   C219      1.0  0.03983  0.15982  0.80076  1.0000
  H   H375      1.0  0.24723  0.47231  0.80572  1.0000
  C   C220      1.0  0.01960  0.17011  0.80536  1.0000
  H   H376      1.0  0.21486  0.30658  0.94618  1.0000
  H   H377      1.0  0.06427  0.30783  0.68229  1.0000
  H   H378      1.0  0.25868  0.40507  0.94329  1.0000
  H   H379      1.0  0.24998  0.29907  0.73117  1.0000
  H   H380      1.0  0.02711  0.08889  0.67189  1.0000
  C   C221      1.0  0.01254  0.34192  0.96549  1.0000
  H   H381      1.0  0.25721  0.35708  0.93269  1.0000
  H   H382      1.0  0.02631  0.03887  0.67818  1.0000
  H   H383      1.0  0.08663  0.21366  0.66884  1.0000
  S   S68       1.0  0.01154  0.18781  0.67389  1.0000
  Fe  Fe33      1.0  0.03513  0.71045  0.08370  1.0000
  Fe  Fe34      1.0  0.06963  0.69672  0.11092  1.0000
  S   S69       1.0  0.05231  0.68712  0.13967  1.0000
  S   S70       1.0  0.10103  0.69060  0.10886  1.0000
  Fe  Fe35      1.0  0.03427  0.66408  0.11777  1.0000
  C   C222      1.0  0.22928  0.72096  0.32921  1.0000
  Fe  Fe36      1.0  0.03538  0.72474  0.13038  1.0000
  H   H384      1.0  0.10821  0.82315  0.09590  1.0000
  S   S71       1.0  0.05255  0.67221  0.08919  1.0000
  S   S72       1.0  0.05417  0.73572  0.10303  1.0000
  C   C223      1.0  0.23178  0.85363  0.00370  1.0000
  S   S73       1.0  0.05139  0.96137  0.21199  1.0000
  Fe  Fe37      1.0  0.02995  0.91466  0.17088  1.0000
  S   S74       1.0  0.04418  0.89812  0.19956  1.0000
  S   S75       1.0  0.02989  0.72274  0.04918  1.0000
  Fe  Fe38      1.0  0.02833  0.93141  0.21718  1.0000
  Fe  Fe39      1.0  0.06565  0.92947  0.19136  1.0000
  S   S76       1.0  0.09669  0.91850  0.19162  1.0000
  S   S77       1.0  0.05227  0.94438  0.16169  1.0000
  Fe  Fe40      1.0  0.17399  0.89960  0.10374  1.0000
  S   S78       1.0  0.19199  0.91233  0.13009  1.0000
  S   S79       1.0  0.14261  0.90625  0.10509  1.0000
  Fe  Fe41      1.0  0.20789  0.88490  0.07406  1.0000
  S   S80       1.0  0.22829  0.89714  0.09868  1.0000
  S   S81       1.0  0.21398  0.87560  0.03900  1.0000
  Fe  Fe42      1.0  0.20915  0.87466  0.12129  1.0000
  S   S82       1.0  0.21713  0.84703  0.14861  1.0000
  Fe  Fe43      1.0  0.20913  0.93373  0.10530  1.0000
  H   H385      1.0  0.02546  0.74046  0.00634  1.0000
  S   S83       1.0  0.18982  0.86041  0.09639  1.0000
  S   S84       1.0  0.19004  0.92287  0.07924  1.0000
  Fe  Fe44      1.0  0.18368  0.66908  0.18401  1.0000
  S   S85       1.0  0.19589  0.66093  0.15192  1.0000
  S   S86       1.0  0.15255  0.67779  0.18883  1.0000
  Fe  Fe45      1.0  0.22195  0.66395  0.20453  1.0000
  S   S87       1.0  0.23655  0.65451  0.17309  1.0000
  S   S88       1.0  0.23813  0.66429  0.23559  1.0000
  Fe  Fe46      1.0  0.21832  0.68898  0.16089  1.0000
  S   S89       1.0  0.22700  0.71937  0.13569  1.0000
  Fe  Fe47      1.0  0.21262  0.62663  0.16673  1.0000
  S   S90       1.0  0.21014  0.58902  0.14529  1.0000
  S   S91       1.0  0.20513  0.69985  0.19232  1.0000
  S   S92       1.0  0.19915  0.63364  0.19894  1.0000
  H   H386      1.0  0.25266  0.70530  0.01000  1.0000
  C   C224      1.0  0.24657  0.69159  0.25101  1.0000
  C   C225      1.0  0.24169  0.71897  0.24706  1.0000
  H   H387      1.0  0.16636  0.96955  0.10075  1.0000
  C   C226      1.0  0.03113  0.83731  0.16684  1.0000
  C   C227      1.0  0.02249  0.84901  0.14926  1.0000
  H   H388      1.0  0.21602  0.63496  0.30450  1.0000
  C   C228      1.0  0.03366  0.80884  0.16845  1.0000
  H   H389      1.0  0.04575  0.92534  0.31111  1.0000
  C   C229      1.0  0.22596  0.49700  0.14105  1.0000
  C   C230      1.0  0.21594  0.51019  0.12507  1.0000
  C   C231      1.0  0.21141  0.53835  0.12661  1.0000
  C   C232      1.0  0.21674  0.55371  0.14415  1.0000
  C   C233      1.0  0.22678  0.54049  0.16010  1.0000
  C   C234      1.0  0.23144  0.51237  0.15846  1.0000
  H   H390      1.0  0.21175  0.49877  0.11147  1.0000
  H   H391      1.0  0.20369  0.54836  0.11415  1.0000
  H   H392      1.0  0.23103  0.55197  0.17365  1.0000
  H   H393      1.0  0.03786  0.51172  0.26272  1.0000
  C   C235      1.0  0.22247  0.75458  0.13929  1.0000
  C   C236      1.0  0.22350  0.77217  0.12176  1.0000
  C   C237      1.0  0.22138  0.80057  0.12434  1.0000
  C   C238      1.0  0.21863  0.81154  0.14456  1.0000
  C   C239      1.0  0.21757  0.79394  0.16209  1.0000
  C   C240      1.0  0.21925  0.76552  0.15945  1.0000
  H   H394      1.0  0.22615  0.76384  0.10614  1.0000
  H   H395      1.0  0.22234  0.81401  0.11075  1.0000
  H   H396      1.0  0.21552  0.80238  0.17777  1.0000
  H   H397      1.0  0.21863  0.75219  0.17309  1.0000
  H   H398      1.0  0.13226  0.96673  0.15959  1.0000
  C   C241      1.0  0.23097  0.85397  0.02597  1.0000
  C   C242      1.0  0.24376  0.83761  0.03703  1.0000
  C   C243      1.0  0.16917  0.48073  0.11917  1.0000
  H   H399      1.0  0.25143  0.77338  0.18403  1.0000
  H   H400      1.0  0.24338  0.83765  0.05413  1.0000
  H   H401      1.0  0.23197  0.77685  0.00500  1.0000
  C   C244      1.0  0.13095  0.91167  0.12959  1.0000
  C   C245      1.0  0.13827  0.90166  0.14851  1.0000
  C   C246      1.0  0.12775  0.90426  0.16750  1.0000
  C   C247      1.0  0.10997  0.91702  0.16773  1.0000
  C   C248      1.0  0.10307  0.92797  0.14892  1.0000
  C   C249      1.0  0.11341  0.92502  0.12991  1.0000
  H   H402      1.0  0.15178  0.89126  0.14841  1.0000
  H   H403      1.0  0.13329  0.89594  0.18202  1.0000
  H   H404      1.0  0.08967  0.93845  0.14890  1.0000
  H   H405      1.0  0.10771  0.93292  0.11534  1.0000
  H   H406      1.0  0.12666  0.83838  0.11029  1.0000
  H   H407      1.0  0.04299  0.57617  0.18895  1.0000
  H   H408      1.0  0.15542  0.95476  0.13442  1.0000
  C   C250      1.0  0.11459  0.68606  0.13155  1.0000
  C   C251      1.0  0.10769  0.69256  0.15183  1.0000
  C   C252      1.0  0.11933  0.68948  0.16937  1.0000
  C   C253      1.0  0.13788  0.67988  0.16674  1.0000
  C   C254      1.0  0.14450  0.67280  0.14650  1.0000
  C   C255      1.0  0.13299  0.67611  0.12900  1.0000
  H   H409      1.0  0.09350  0.70033  0.15396  1.0000
  H   H410      1.0  0.11403  0.69489  0.18499  1.0000
  H   H411      1.0  0.15852  0.66483  0.14421  1.0000
  H   H412      1.0  0.13840  0.67094  0.11337  1.0000
  C   C256      1.0  0.03180  0.59119  0.13796  1.0000
  C   C257      1.0  0.03632  0.59527  0.15910  1.0000
  C   C258      1.0  0.03975  0.57268  0.17259  1.0000
  H   H413      1.0  0.01645  0.83755  0.28262  1.0000
  C   C259      1.0  0.01981  0.80326  0.13438  1.0000
  H   H414      1.0  0.22468  0.74276  0.33024  1.0000
  C   C260      1.0  0.03877  0.54568  0.16521  1.0000
  H   H415      1.0  0.21946  0.75879  0.29769  1.0000
  H   H416      1.0  0.17543  0.50065  0.11551  1.0000
  C   C261      1.0  0.03932  0.49703  0.24950  1.0000
  H   H417      1.0  0.18454  0.70333  0.32009  1.0000
  H   H418      1.0  0.02717  0.56072  0.11436  1.0000
  C   C262      1.0  0.17283  0.51386  0.15857  1.0000
  C   C263      1.0  0.16625  0.53355  0.17626  1.0000
  S   S93       1.0  0.01532  0.70098  0.11087  1.0000
  H   H419      1.0  0.18834  0.51410  0.15802  1.0000
  H   H420      1.0  0.16809  0.52384  0.14377  1.0000
  H   H421      1.0  0.17279  0.55359  0.17332  1.0000
  H   H422      1.0  0.17072  0.52683  0.19213  1.0000
  H   H423      1.0  0.11284  0.81397  0.12311  1.0000
  N   N15       1.0  0.08091  0.84752  0.12941  1.0000
  C   C264      1.0  0.07097  0.87384  0.13590  1.0000
  C   C265      1.0  0.08373  0.83073  0.14921  1.0000
  C   C266      1.0  0.06856  0.83293  0.11436  1.0000
  C   C267      1.0  0.09911  0.85470  0.11870  1.0000
  C   C268      1.0  0.06442  0.89270  0.11770  1.0000
  C   C269      1.0  0.09565  0.84359  0.16633  1.0000
  H   H424      1.0  0.05848  0.86960  0.14599  1.0000
  H   H425      1.0  0.07990  0.88635  0.14587  1.0000
  H   H426      1.0  0.09024  0.81044  0.14576  1.0000
  H   H427      1.0  0.06996  0.82615  0.15671  1.0000
  H   H428      1.0  0.05358  0.83657  0.11877  1.0000
  H   H429      1.0  0.07025  0.84118  0.09801  1.0000
  H   H430      1.0  0.09659  0.86686  0.10411  1.0000
  H   H431      1.0  0.10718  0.86869  0.12848  1.0000
  H   H432      1.0  0.07630  0.90112  0.10852  1.0000
  H   H433      1.0  0.05472  0.88262  0.10702  1.0000
  H   H434      1.0  0.05647  0.91040  0.12453  1.0000
  H   H435      1.0  0.10974  0.84878  0.16029  1.0000
  H   H436      1.0  0.08861  0.86182  0.17354  1.0000
  H   H437      1.0  0.09760  0.82861  0.17938  1.0000
  C   C270      1.0  0.01691  0.83182  0.13298  1.0000
  C   C271      1.0  0.02793  0.79164  0.15234  1.0000
  C   C272      1.0  0.22738  0.94996  0.04258  1.0000
  C   C273      1.0  0.25703  0.82100  0.02592  1.0000
  H   H438      1.0  0.24855  0.75235  0.01446  1.0000
  H   H439      1.0  0.23264  0.72409  0.23410  1.0000
  H   H440      1.0  0.16860  0.93906  0.16627  1.0000
  N   N16       1.0  0.16646  0.48483  0.16010  1.0000
  H   H441      1.0  0.03558  0.85004  0.17947  1.0000
  H   H442      1.0  0.05264  0.50140  0.24101  1.0000
  H   H443      1.0  0.22065  0.70282  0.00042  1.0000
  H   H444      1.0  0.15097  0.53746  0.17604  1.0000
  H   H445      1.0  0.14249  0.49721  0.19359  1.0000
  H   H446      1.0  0.25924  0.80760  0.15766  1.0000
  H   H447      1.0  0.22561  0.49555  0.06847  1.0000
  H   H448      1.0  0.02221  0.83870  0.22632  1.0000
  C   C274      1.0  0.16421  0.95333  0.17908  1.0000
  H   H449      1.0  0.01784  0.83502  0.01345  1.0000
  H   H450      1.0  0.06544  0.79156  0.12749  1.0000
  H   H451      1.0  0.04752  0.95791  0.29885  1.0000
  H   H452      1.0  0.06239  0.79446  0.09970  1.0000
  H   H453      1.0  0.23932  0.50246  0.17085  1.0000
  H   H454      1.0  0.02527  0.51976  0.22551  1.0000
  C   C275      1.0  0.24818  0.73976  0.26020  1.0000
  H   H455      1.0  0.22408  0.74418  0.01294  1.0000
  N   N17       1.0  0.16153  0.76278  0.14878  1.0000
  C   C276      1.0  0.16515  0.77119  0.17123  1.0000
  C   C277      1.0  0.16880  0.78498  0.13448  1.0000
  C   C278      1.0  0.17227  0.73631  0.14459  1.0000
  C   C279      1.0  0.14081  0.75897  0.14689  1.0000
  C   C280      1.0  0.16079  0.74986  0.18854  1.0000
  C   C281      1.0  0.16014  0.81376  0.13817  1.0000
  C   C282      1.0  0.17678  0.72903  0.12131  1.0000
  C   C283      1.0  0.13307  0.75536  0.12456  1.0000
  H   H456      1.0  0.18003  0.77663  0.17292  1.0000
  H   H457      1.0  0.15678  0.78985  0.17563  1.0000
  H   H458      1.0  0.16721  0.78021  0.11753  1.0000
  H   H459      1.0  0.18412  0.78653  0.13622  1.0000
  H   H460      1.0  0.18601  0.73625  0.15244  1.0000
  H   H461      1.0  0.16488  0.71878  0.15173  1.0000
  H   H462      1.0  0.13651  0.74050  0.15584  1.0000
  H   H463      1.0  0.13250  0.77568  0.15481  1.0000
  H   H464      1.0  0.14592  0.74423  0.18896  1.0000
  H   H465      1.0  0.16974  0.73122  0.18680  1.0000
  H   H466      1.0  0.16377  0.75856  0.20424  1.0000
  H   H467      1.0  0.16576  0.82319  0.15254  1.0000
  H   H468      1.0  0.16405  0.82719  0.12469  1.0000
  H   H469      1.0  0.14473  0.81374  0.13930  1.0000
  H   H470      1.0  0.18754  0.74252  0.11443  1.0000
  H   H471      1.0  0.16440  0.72957  0.11129  1.0000
  H   H472      1.0  0.18284  0.70793  0.12063  1.0000
  H   H473      1.0  0.13416  0.73373  0.11954  1.0000
  H   H474      1.0  0.13945  0.76848  0.11233  1.0000
  H   H475      1.0  0.11803  0.76149  0.12482  1.0000
  N   N18       1.0  0.09410  0.60552  0.13930  1.0000
  C   C284      1.0  0.08052  0.62778  0.14667  1.0000
  C   C285      1.0  0.09642  0.60858  0.11563  1.0000
  C   C286      1.0  0.11242  0.60978  0.15003  1.0000
  C   C287      1.0  0.08606  0.57847  0.14556  1.0000
  C   C288      1.0  0.07829  0.63155  0.17085  1.0000
  C   C289      1.0  0.07875  0.60421  0.10274  1.0000
  C   C290      1.0  0.13035  0.59830  0.13899  1.0000
  C   C291      1.0  0.09683  0.55252  0.13812  1.0000
  H   H476      1.0  0.08461  0.64785  0.13997  1.0000
  H   H477      1.0  0.06629  0.62436  0.14080  1.0000
  H   H478      1.0  0.10722  0.59431  0.10896  1.0000
  H   H479      1.0  0.10156  0.62929  0.11161  1.0000
  H   H480      1.0  0.11489  0.63197  0.15184  1.0000
  H   H481      1.0  0.11203  0.60135  0.16641  1.0000
  H   H482      1.0  0.08492  0.57657  0.16305  1.0000
  H   H483      1.0  0.07135  0.57697  0.14060  1.0000
  H   H484      1.0  0.09135  0.63805  0.17813  1.0000
  H   H485      1.0  0.06769  0.64807  0.17402  1.0000
  H   H486      1.0  0.07313  0.61304  0.17892  1.0000
  H   H487      1.0  0.08229  0.60658  0.08566  1.0000
  H   H488      1.0  0.07324  0.58346  0.10498  1.0000
  H   H489      1.0  0.06760  0.61965  0.10637  1.0000
  H   H490      1.0  0.14226  0.60067  0.14971  1.0000
  H   H491      1.0  0.13374  0.61019  0.12447  1.0000
  H   H492      1.0  0.12966  0.57642  0.13514  1.0000
  H   H493      1.0  0.10786  0.54658  0.14941  1.0000
  H   H494      1.0  0.10292  0.55422  0.12199  1.0000
  H   H495      1.0  0.08688  0.53558  0.13718  1.0000
  N   N19       1.0  0.21491  0.70399  0.31872  1.0000
  C   C292      1.0  0.21194  0.71554  0.29683  1.0000
  C   C293      1.0  0.22274  0.67525  0.31615  1.0000
  H   H496      1.0  0.23182  0.94320  0.05855  1.0000
  H   H497      1.0  0.02577  0.48449  0.22125  1.0000
  H   H498      1.0  0.02294  0.80242  0.22753  1.0000
  C   C294      1.0  0.21154  0.65656  0.30186  1.0000
  H   H499      1.0  0.21444  0.66113  0.28487  1.0000
  H   H500      1.0  0.19571  0.75252  0.30689  1.0000
  H   H501      1.0  0.22452  0.71177  0.28670  1.0000
  C   C295      1.0  0.01267  0.74609  0.01483  1.0000
  H   H502      1.0  0.15385  0.48190  0.11720  1.0000
  H   H503      1.0  0.23720  0.67555  0.30926  1.0000
  H   H504      1.0  0.24250  0.72073  0.31959  1.0000
  H   H505      1.0  0.20200  0.75116  0.27931  1.0000
  C   C296      1.0  0.25882  0.90928  0.04644  1.0000
  H   H506      1.0  0.22427  0.66466  0.33156  1.0000
  C   C297      1.0  0.25939  0.73353  0.27770  1.0000
  H   H507      1.0  0.19631  0.65844  0.30509  1.0000
  S   S94       1.0  0.01843  0.88484  0.14718  1.0000
  C   C298      1.0  0.23966  0.48668  0.06442  1.0000
  H   H508      1.0  0.21403  0.97580  0.14984  1.0000
  H   H509      1.0  0.25945  0.96809  0.05283  1.0000
  C   C299      1.0  0.25239  0.92270  0.02562  1.0000
  S   S95       1.0  0.02959  0.75591  0.15643  1.0000
  H   H510      1.0  0.02710  0.87421  0.25809  1.0000
  C   C300      1.0  0.02326  0.50007  0.23379  1.0000
  N   N20       1.0  0.24383  0.95117  0.02733  1.0000
  S   S96       1.0  0.01293  0.94699  0.18863  1.0000
  H   H511      1.0  0.08543  0.79454  0.10967  1.0000
  H   H512      1.0  0.03349  0.52104  0.13808  1.0000
  C   C301      1.0  0.16314  0.97411  0.13484  1.0000
  H   H513      1.0  0.03988  0.80002  0.18243  1.0000
  S   S97       1.0  0.02655  0.61881  0.12031  1.0000
  C   C302      1.0  0.11218  0.83091  0.11159  1.0000
  H   H514      1.0  0.12266  0.50345  0.17772  1.0000
  C   C303      1.0  0.07090  0.80163  0.11292  1.0000
  H   H515      1.0  0.24411  0.76080  0.25711  1.0000
  H   H516      1.0  0.01517  0.79018  0.12193  1.0000
  C   C304      1.0  0.03440  0.54159  0.14405  1.0000
  C   C305      1.0  0.03083  0.56419  0.13060  1.0000
  H   H517      1.0  0.24249  0.90864  0.01826  1.0000
  S   S98       1.0  0.04286  0.51810  0.18328  1.0000
  H   H518      1.0  0.17799  0.96791  0.13735  1.0000
  H   H519      1.0  0.13987  0.49814  0.14763  1.0000
  C   C306      1.0  0.20695  0.74631  0.29545  1.0000
  H   H520      1.0  0.25859  0.73723  0.20890  1.0000
  Fe  Fe48      1.0  0.03687  0.97530  0.18232  1.0000
  H   H521      1.0  0.01814  0.88585  0.00741  1.0000
  H   H522      1.0  0.03674  0.61582  0.16517  1.0000
  C   C307      1.0  0.19650  0.70536  0.33086  1.0000
  H   H523      1.0  0.17360  0.94908  0.19250  1.0000
  C   C308      1.0  0.25783  0.82064  0.00365  1.0000
  C   C309      1.0  0.01963  0.95031  0.31112  1.0000
  H   H524      1.0  0.20397  0.97255  0.05689  1.0000
  C   C310      1.0  0.04101  0.94700  0.31245  1.0000
  C   C311      1.0  0.25837  0.97005  0.03533  1.0000
  C   C312      1.0  0.13444  0.48880  0.18061  1.0000
  C   C313      1.0  0.14547  0.48355  0.15961  1.0000
  H   H525      1.0  0.20055  0.70495  0.28879  1.0000
  H   H526      1.0  0.21736  0.93457  0.03726  1.0000
  C   C314      1.0  0.23577  0.75472  0.00500  1.0000
  H   H527      1.0  0.14991  0.94863  0.18477  1.0000
  H   H528      1.0  0.01661  0.97242  0.30894  1.0000
  H   H529      1.0  0.01531  0.55184  0.24580  1.0000
  H   H530      1.0  0.25895  0.76065  0.14245  1.0000
  H   H531      1.0  0.24681  0.50216  0.05459  1.0000
  H   H532      1.0  0.17097  0.48264  0.19411  1.0000
  H   H533      1.0  0.25149  0.72857  0.16989  1.0000
  C   C315      1.0  0.25000  0.48099  0.08509  1.0000
  C   C316      1.0  0.01389  0.87653  0.26657  1.0000
  H   H534      1.0  0.01549  0.94095  0.29595  1.0000
  H   H535      1.0  0.24678  0.90298  0.05640  1.0000
  H   H536      1.0  0.25098  0.50124  0.09275  1.0000
  C   C317      1.0  0.23697  0.95886  0.00567  1.0000
  H   H537      1.0  0.25612  0.70248  0.20160  1.0000
  C   C318      1.0  0.25801  0.68541  0.26830  1.0000
  H   H538      1.0  0.04633  0.95610  0.32706  1.0000
  C   C319      1.0  0.01347  0.82067  0.22902  1.0000
  H   H539      1.0  0.22580  0.94483  0.00094  1.0000
  C   C320      1.0  0.01293  0.90808  0.32978  1.0000
  H   H540      1.0  0.01195  0.89926  0.31366  1.0000
  Fe  Fe49      1.0  0.03168  0.95770  0.57981  1.0000
  Fe  Fe50      1.0  0.06539  0.95374  0.60984  1.0000
  S   S99       1.0  0.04852  0.93612  0.63647  1.0000
  C   C321      1.0  0.02064  0.55340  0.63378  1.0000
  Fe  Fe51      1.0  0.03577  0.90966  0.61204  1.0000
  C   C322      1.0  0.23047  0.84448  0.58950  1.0000
  H   H541      1.0  0.26055  0.77637  0.40204  1.0000
  C   C323      1.0  0.22568  0.49049  0.36404  1.0000
  S   S100      1.0  0.05415  0.92564  0.58575  1.0000
  H   H542      1.0  0.03147  0.86463  0.65739  1.0000
  H   H543      1.0  0.18030  0.68898  0.35728  1.0000
  H   H544      1.0  0.01498  0.88345  0.51273  1.0000
  H   H545      1.0  0.19580  0.87205  0.61905  1.0000
  H   H546      1.0  0.03924  0.76755  0.63557  1.0000
  H   H547      1.0  0.25203  0.90967  0.38736  1.0000
  C   C324      1.0  0.25882  0.48411  0.37587  1.0000
  H   H548      1.0  0.19079  0.90727  0.61462  1.0000
  H   H549      1.0  0.20470  0.68281  0.36006  1.0000
  H   H550      1.0  0.24672  0.72428  0.35653  1.0000
  C   C325      1.0  0.22991  0.85449  0.63479  1.0000
  Fe  Fe52      1.0  0.17809  0.65129  0.61483  1.0000
  S   S101      1.0  0.18995  0.65572  0.64689  1.0000
  S   S102      1.0  0.14667  0.65085  0.61181  1.0000
  Fe  Fe53      1.0  0.21643  0.64935  0.59263  1.0000
  S   S103      1.0  0.23085  0.65422  0.62372  1.0000
  S   S104      1.0  0.23521  0.64824  0.56265  1.0000
  Fe  Fe54      1.0  0.21070  0.62342  0.63611  1.0000
  H   H551      1.0  0.23456  0.82612  0.41281  1.0000
  Fe  Fe55      1.0  0.20881  0.68652  0.63191  1.0000
  H   H552      1.0  0.25526  0.53839  0.54883  1.0000
  S   S105      1.0  0.19750  0.61649  0.60481  1.0000
  S   S106      1.0  0.19570  0.68408  0.60000  1.0000
  H   H553      1.0  0.25902  0.76058  0.46421  1.0000
  H   H554      1.0  0.14081  0.54883  0.62874  1.0000
  C   C326      1.0  0.24138  0.52620  0.38341  1.0000
  S   S107      1.0  0.03433  0.86297  0.61088  1.0000
  H   H555      1.0  0.22451  0.86227  0.65034  1.0000
  H   H556      1.0  0.01987  0.91494  0.52468  1.0000
  H   H557      1.0  0.23463  0.82500  0.59730  1.0000
  S   S108      1.0  0.09651  0.95999  0.61126  1.0000
  C   C327      1.0  0.17172  0.47808  0.63309  1.0000
  H   H558      1.0  0.23424  0.84221  0.57246  1.0000
  H   H559      1.0  0.17909  0.51877  0.62511  1.0000
  C   C328      1.0  0.25224  0.89072  0.63053  1.0000
  C   C329      1.0  0.24039  0.62290  0.54304  1.0000
  H   H560      1.0  0.24011  0.49567  0.55938  1.0000
  H   H561      1.0  0.19179  0.66314  0.34172  1.0000
  C   C330      1.0  0.23613  0.57837  0.52712  1.0000
  C   C331      1.0  0.23061  0.59865  0.54195  1.0000
  N   N21       1.0  0.09554  0.86413  0.64748  1.0000
  H   H562      1.0  0.21895  0.59539  0.55271  1.0000
  C   C332      1.0  0.22076  0.49978  0.64447  1.0000
  H   H563      1.0  0.02032  0.50891  0.55185  1.0000
  H   H564      1.0  0.01211  0.54634  0.52676  1.0000
  H   H565      1.0  0.23794  0.69098  0.35375  1.0000
  C   C333      1.0  0.21649  0.54714  0.63309  1.0000
  C   C334      1.0  0.21763  0.51910  0.62840  1.0000
  H   H566      1.0  0.07292  0.63771  0.63636  1.0000
  C   C335      1.0  0.03478  0.83731  0.63100  1.0000
  H   H567      1.0  0.21365  0.56190  0.62075  1.0000
  H   H568      1.0  0.21575  0.51230  0.61238  1.0000
  C   C336      1.0  0.24546  0.83306  0.63955  1.0000
  C   C337      1.0  0.18943  0.79724  0.64168  1.0000
  C   C338      1.0  0.19583  0.76990  0.63927  1.0000
  C   C339      1.0  0.22392  0.54216  0.39181  1.0000
  H   H569      1.0  0.10748  0.80970  0.66073  1.0000
  H   H570      1.0  0.22612  0.56437  0.38965  1.0000
  C   C340      1.0  0.07734  0.53988  0.62661  1.0000
  H   H571      1.0  0.19144  0.75796  0.62604  1.0000
  H   H572      1.0  0.05117  0.63606  0.62333  1.0000
  H   H573      1.0  0.14546  0.48781  0.66586  1.0000
  S   S109      1.0  0.21812  0.59090  0.66028  1.0000
  H   H574      1.0  0.21812  0.84338  0.62821  1.0000
  H   H575      1.0  0.03801  0.80452  0.60849  1.0000
  C   C341      1.0  0.13294  0.65413  0.63520  1.0000
  C   C342      1.0  0.11536  0.66732  0.63439  1.0000
  C   C343      1.0  0.10405  0.67011  0.65275  1.0000
  C   C344      1.0  0.23303  0.48442  0.40210  1.0000
  H   H576      1.0  0.11054  0.67569  0.61956  1.0000
  H   H577      1.0  0.09073  0.68074  0.65194  1.0000
  S   S110      1.0  0.18183  0.92185  0.66238  1.0000
  H   H578      1.0  0.12279  0.84995  0.65774  1.0000
  C   C345      1.0  0.13828  0.95956  0.65335  1.0000
  H   H579      1.0  0.08980  0.82773  0.62977  1.0000
  H   H580      1.0  0.10271  0.61478  0.64058  1.0000
  H   H581      1.0  0.07871  0.51894  0.61998  1.0000
  C   C346      1.0  0.24091  0.86891  0.59848  1.0000
  H   H582      1.0  0.13193  0.77058  0.65855  1.0000
  C   C347      1.0  0.20801  0.75812  0.65389  1.0000
  H   H583      1.0  0.15322  0.96153  0.65262  1.0000
  C   C348      1.0  0.02310  0.59878  0.64931  1.0000
  H   H584      1.0  0.25807  0.82156  0.48152  1.0000
  C   C349      1.0  0.03155  0.52574  0.46136  1.0000
  H   H585      1.0  0.03045  0.84805  0.54767  1.0000
  H   H586      1.0  0.04056  0.87817  0.53558  1.0000
  C   C350      1.0  0.03692  0.80970  0.62508  1.0000
  C   C351      1.0  0.03764  0.78863  0.64041  1.0000
  H   H587      1.0  0.21707  0.90677  0.63690  1.0000
  H   H588      1.0  0.07160  0.88455  0.63370  1.0000
  H   H589      1.0  0.17995  0.80604  0.63030  1.0000
  H   H590      1.0  0.09143  0.90448  0.63337  1.0000
  H   H591      1.0  0.24910  0.89605  0.64738  1.0000
  H   H592      1.0  0.04475  0.86958  0.56247  1.0000
  C   C352      1.0  0.03331  0.84359  0.65252  1.0000
  H   H593      1.0  0.13360  0.49692  0.64246  1.0000
  C   C353      1.0  0.09944  0.95482  0.65475  1.0000
  S   S111      1.0  0.21595  0.72339  0.65232  1.0000
  C   C354      1.0  0.08539  0.59002  0.66004  1.0000
  C   C355      1.0  0.03398  0.86965  0.55011  1.0000
  H   H594      1.0  0.02788  0.94280  0.35515  1.0000
  C   C356      1.0  0.24233  0.51200  0.57110  1.0000
  S   S112      1.0  0.04867  0.47799  0.59529  1.0000
  C   C357      1.0  0.01697  0.88708  0.55802  1.0000
  H   H595      1.0  0.20239  0.88846  0.59410  1.0000
  C   C358      1.0  0.14064  0.50571  0.65632  1.0000
  C   C359      1.0  0.03046  0.54183  0.65062  1.0000
  C   C360      1.0  0.20135  0.89066  0.61152  1.0000
  H   H596      1.0  0.19428  0.72581  0.33825  1.0000
  H   H597      1.0  0.15975  0.59030  0.63114  1.0000
  H   H598      1.0  0.13054  0.72440  0.64845  1.0000
  C   C361      1.0  0.24319  0.81279  0.40216  1.0000
  C   C362      1.0  0.13904  0.64343  0.65447  1.0000
  C   C363      1.0  0.14378  0.71955  0.65665  1.0000
  H   H599      1.0  0.24090  0.57380  0.57846  1.0000
  H   H600      1.0  0.24443  0.80088  0.45348  1.0000
  H   H601      1.0  0.11038  0.58027  0.64149  1.0000
  H   H602      1.0  0.23906  0.88622  0.58717  1.0000
  S   S113      1.0  0.18634  0.84746  0.66087  1.0000
  H   H603      1.0  0.22402  0.91742  0.61116  1.0000
  H   H604      1.0  0.24290  0.48975  0.41467  1.0000
  H   H605      1.0  0.24515  0.53593  0.36800  1.0000
  C   C364      1.0  0.09242  0.81517  0.66213  1.0000
  H   H606      1.0  0.10385  0.55036  0.61408  1.0000
  C   C365      1.0  0.08700  0.88310  0.63133  1.0000
  H   H607      1.0  0.22943  0.52509  0.57142  1.0000
  H   H608      1.0  0.15248  0.63299  0.65527  1.0000
  C   C366      1.0  0.01369  0.94990  0.35043  1.0000
  C   C367      1.0  0.09006  0.87496  0.60791  1.0000
  H   H609      1.0  0.02106  0.49320  0.48053  1.0000
  C   C368      1.0  0.25024  0.56399  0.59023  1.0000
  H   H610      1.0  0.21117  0.49307  0.37051  1.0000
  H   H611      1.0  0.02834  0.50644  0.42296  1.0000
  C   C369      1.0  0.01988  0.49988  0.46389  1.0000
  H   H612      1.0  0.25924  0.49665  0.34217  1.0000
  C   C370      1.0  0.19525  0.81329  0.65858  1.0000
  H   H613      1.0  0.13528  0.96424  0.61968  1.0000
  C   C371      1.0  0.25351  0.78963  0.41422  1.0000
  N   N22       1.0  0.23562  0.87787  0.62070  1.0000
  H   H614      1.0  0.15656  0.77181  0.65774  1.0000
  H   H615      1.0  0.15664  0.70595  0.62699  1.0000
  H   H616      1.0  0.08517  0.55644  0.59640  1.0000
  H   H617      1.0  0.25433  0.84017  0.65248  1.0000
  S   S114      1.0  0.01745  0.63419  0.64886  1.0000
  C   C372      1.0  0.12806  0.96124  0.63468  1.0000
  H   H618      1.0  0.21513  0.84697  0.59068  1.0000
  H   H619      1.0  0.07811  0.86316  0.60235  1.0000
  H   H620      1.0  0.10304  0.86289  0.60474  1.0000
  H   H621      1.0  0.09123  0.89374  0.59809  1.0000
  H   H622      1.0  0.06233  0.54552  0.62609  1.0000
  H   H623      1.0  0.15676  0.50968  0.61636  1.0000
  H   H624      1.0  0.12707  0.60801  0.58682  1.0000
  S   S115      1.0  0.03473  0.50638  0.65325  1.0000
  S   S116      1.0  0.21928  0.96803  0.64130  1.0000
  H   H625      1.0  0.22704  0.50601  0.35120  1.0000
  C   C373      1.0  0.22296  0.50863  0.66520  1.0000
  C   C374      1.0  0.22003  0.89919  0.62058  1.0000
  H   H626      1.0  0.25304  0.53085  0.39399  1.0000
  H   H627      1.0  0.12538  0.90094  0.65419  1.0000
  H   H628      1.0  0.23907  0.81384  0.64513  1.0000
  H   H629      1.0  0.04669  0.52118  0.45964  1.0000
  H   H630      1.0  0.17335  0.71566  0.64566  1.0000
  C   C375      1.0  0.21915  0.55601  0.65374  1.0000
  N   N23       1.0  0.23957  0.49571  0.38105  1.0000
  H   H631      1.0  0.22869  0.55950  0.52674  1.0000
  H   H632      1.0  0.12100  0.57338  0.59055  1.0000
  H   H633      1.0  0.21118  0.53712  0.38323  1.0000
  H   H634      1.0  0.23354  0.80355  0.39091  1.0000
  H   H635      1.0  0.25288  0.82529  0.39254  1.0000
  C   C376      1.0  0.11635  0.86048  0.64397  1.0000
  H   H636      1.0  0.02683  0.53846  0.44785  1.0000
  H   H637      1.0  0.24247  0.77704  0.42166  1.0000
  H   H638      1.0  0.08451  0.95249  0.65540  1.0000
  H   H639      1.0  0.17364  0.56288  0.62047  1.0000
  C   C377      1.0  0.08663  0.83681  0.64559  1.0000
  S   S117      1.0  0.02488  0.96528  0.54492  1.0000
  C   C378      1.0  0.12717  0.88696  0.64056  1.0000
  C   C379      1.0  0.15937  0.72100  0.63952  1.0000
  H   H640      1.0  0.14269  0.69795  0.66164  1.0000
  C   C380      1.0  0.23428  0.71290  0.35195  1.0000
  C   C381      1.0  0.25664  0.81277  0.44796  1.0000
  H   H641      1.0  0.22174  0.53890  0.40906  1.0000
  C   C382      1.0  0.10863  0.95864  0.63526  1.0000
  H   H642      1.0  0.25512  0.74296  0.43957  1.0000
  H   H643      1.0  0.14233  0.88179  0.63905  1.0000
  H   H644      1.0  0.15955  0.74126  0.63170  1.0000
  C   C383      1.0  0.25524  0.62696  0.52848  1.0000
  H   H645      1.0  0.08212  0.53822  0.64310  1.0000
  H   H646      1.0  0.11978  0.84676  0.63041  1.0000
  H   H647      1.0  0.06400  0.48219  0.47258  1.0000
  H   H648      1.0  0.12822  0.59385  0.61275  1.0000
  C   C384      1.0  0.16612  0.50849  0.63018  1.0000
  N   N24       1.0  0.08877  0.58896  0.61883  1.0000
  C   C385      1.0  0.09976  0.60386  0.60189  1.0000
  C   C386      1.0  0.06892  0.59991  0.61814  1.0000
  C   C387      1.0  0.08942  0.55906  0.61311  1.0000
  C   C388      1.0  0.09770  0.59358  0.63986  1.0000
  C   C389      1.0  0.12013  0.59378  0.59805  1.0000
  C   C390      1.0  0.06630  0.63092  0.62173  1.0000
  H   H649      1.0  0.07153  0.64291  0.60803  1.0000
  H   H650      1.0  0.02940  0.53857  0.47569  1.0000
  H   H651      1.0  0.09265  0.60303  0.58641  1.0000
  H   H652      1.0  0.10065  0.62592  0.60570  1.0000
  H   H653      1.0  0.05972  0.58987  0.62989  1.0000
  H   H654      1.0  0.06270  0.59521  0.60263  1.0000
  H   H655      1.0  0.07120  0.83905  0.64631  1.0000
  H   H656      1.0  0.02225  0.90754  0.56199  1.0000
  H   H657      1.0  0.24121  0.54975  0.59895  1.0000
  C   C391      1.0  0.25941  0.52844  0.56394  1.0000
  Fe  Fe56      1.0  0.02705  0.96801  0.62685  1.0000
  H   H658      1.0  0.07335  0.57684  0.65836  1.0000
  C   C392      1.0  0.25134  0.58208  0.51297  1.0000
  H   H659      1.0  0.24231  0.59393  0.61417  1.0000
  H   H660      1.0  0.12318  0.89777  0.62582  1.0000
  C   C393      1.0  0.16612  0.57001  0.63499  1.0000
  H   H661      1.0  0.25017  0.93467  0.62289  1.0000
  H   H662      1.0  0.24404  0.50193  0.58662  1.0000
  C   C394      1.0  0.15057  0.55053  0.64208  1.0000
  H   H663      1.0  0.08459  0.79630  0.65933  1.0000
  H   H664      1.0  0.01561  0.54043  0.62148  1.0000
  N   N25       1.0  0.15704  0.52246  0.64918  1.0000
  H   H665      1.0  0.22293  0.71901  0.36330  1.0000
  H   H666      1.0  0.21928  0.49361  0.40703  1.0000
  H   H667      1.0  0.25015  0.83217  0.44210  1.0000
  N   N26       1.0  0.02449  0.47714  0.44850  1.0000
  H   H668      1.0  0.08048  0.61021  0.66628  1.0000
  H   H669      1.0  0.25601  0.86303  0.59717  1.0000
  H   H670      1.0  0.25441  0.82815  0.62551  1.0000
  H   H671      1.0  0.05336  0.48178  0.43913  1.0000
  C   C395      1.0  0.02017  0.48803  0.42670  1.0000
  C   C396      1.0  0.03689  0.55885  0.66644  1.0000
  S   S118      1.0  0.01243  0.94006  0.60468  1.0000
  C   C397      1.0  0.01681  0.58179  0.63327  1.0000
  H   H672      1.0  0.14238  0.56152  0.65458  1.0000
  C   C398      1.0  0.19346  0.68377  0.34841  1.0000
  H   H673      1.0  0.17622  0.57340  0.64767  1.0000
  C   C399      1.0  0.25531  0.58619  0.60612  1.0000
  H   H674      1.0  0.25772  0.52217  0.61724  1.0000
  H   H675      1.0  0.11665  0.53451  0.65929  1.0000
  S   S119      1.0  0.25928  0.53466  0.43815  1.0000
  H   H676      1.0  0.02152  0.47961  0.39301  1.0000
  H   H677      1.0  0.01252  0.87775  0.57331  1.0000
  S   S120      1.0  0.25923  0.55415  0.49678  1.0000
  H   H678      1.0  0.18487  0.53069  0.65986  1.0000
  H   H679      1.0  0.02753  0.90379  0.33464  1.0000
  H   H680      1.0  0.06260  0.89046  0.66678  1.0000
  C   C400      1.0  0.03622  0.79490  0.66195  1.0000
  C   C401      1.0  0.26068  0.60674  0.51354  1.0000
  C   C402      1.0  0.25948  0.91669  0.61952  1.0000
  S   S121      1.0  0.05344  0.69137  0.66416  1.0000
  C   C403      1.0  0.03349  0.58714  0.66562  1.0000
  C   C404      1.0  0.17133  0.52350  0.66623  1.0000
  Fe  Fe57      1.0  0.06565  0.67536  0.69423  1.0000
  Fe  Fe58      1.0  0.02768  0.67837  0.71896  1.0000
  H   H681      1.0  0.22341  0.76542  0.68208  1.0000
  S   S122      1.0  0.04331  0.64499  0.70137  1.0000
  S   S123      1.0  0.05155  0.70737  0.71499  1.0000
  H   H682      1.0  0.17600  0.74027  0.67548  1.0000
  H   H683      1.0  0.23720  0.92286  0.86055  1.0000
  H   H684      1.0  0.21510  0.93931  0.85742  1.0000
  Fe  Fe59      1.0  0.20904  0.92361  0.71421  1.0000
  Fe  Fe60      1.0  0.03826  0.72245  0.68487  1.0000
  S   S124      1.0  0.22764  0.92209  0.74335  1.0000
  Fe  Fe61      1.0  0.17167  0.93706  0.69372  1.0000
  S   S125      1.0  0.14173  0.95312  0.69649  1.0000
  C   C405      1.0  0.07161  0.87779  0.67715  1.0000
  S   S126      1.0  0.18251  0.89980  0.71106  1.0000
  C   C406      1.0  0.24130  0.58150  0.75305  1.0000
  H   H685      1.0  0.14365  0.80930  0.67845  1.0000
  H   H686      1.0  0.22581  0.58319  0.75447  1.0000
  C   C407      1.0  0.23819  0.96043  0.84349  1.0000
  S   S127      1.0  0.09643  0.66298  0.69555  1.0000
  H   H687      1.0  0.22867  0.66509  0.96208  1.0000
  H   H688      1.0  0.23601  0.86392  0.84841  1.0000
  H   H689      1.0  0.24625  0.96897  0.97358  1.0000
  H   H690      1.0  0.03086  0.63480  0.84664  1.0000
  H   H691      1.0  0.24071  0.97114  0.85853  1.0000
  H   H692      1.0  0.22950  0.73863  0.93969  1.0000
  C   C408      1.0  0.03517  0.67579  0.81798  1.0000
  C   C409      1.0  0.20766  0.80168  0.67302  1.0000
  C   C410      1.0  0.24402  0.59094  0.79091  1.0000
  H   H693      1.0  0.21392  0.55952  0.78762  1.0000
  H   H694      1.0  0.15923  0.52731  0.69832  1.0000
  H   H695      1.0  0.02086  0.72284  0.86646  1.0000
  H   H696      1.0  0.19060  0.90644  0.80479  1.0000
  C   C411      1.0  0.13058  0.73126  0.69154  1.0000
  H   H697      1.0  0.15698  0.78766  0.69534  1.0000
  C   C412      1.0  0.22493  0.97430  0.76092  1.0000
  H   H698      1.0  0.09403  0.58087  0.67273  1.0000
  H   H699      1.0  0.09716  0.89750  0.66960  1.0000
  C   C413      1.0  0.25650  0.96602  0.78591  1.0000
  H   H700      1.0  0.03875  0.59975  0.67781  1.0000
  C   C414      1.0  0.14448  0.76697  0.66830  1.0000
  H   H701      1.0  0.22536  0.88349  0.86994  1.0000
  H   H702      1.0  0.22678  0.75278  0.97307  1.0000
  N   N27       1.0  0.22458  0.91530  0.83026  1.0000
  H   H703      1.0  0.21170  0.90160  0.78874  1.0000
  C   C415      1.0  0.21304  0.89223  0.83870  1.0000
  H   H704      1.0  0.24278  0.62615  0.75640  1.0000
  H   H705      1.0  0.25201  0.95700  0.83563  1.0000
  H   H706      1.0  0.22908  0.59752  0.79015  1.0000
  H   H707      1.0  0.21078  0.66203  0.98187  1.0000
  C   C416      1.0  0.01224  0.56911  0.71725  1.0000
  C   C417      1.0  0.25106  0.94581  0.77160  1.0000
  H   H708      1.0  0.25042  0.92268  0.81318  1.0000
  C   C418      1.0  0.20291  0.91655  0.79768  1.0000
  H   H709      1.0  0.18354  0.70190  0.69830  1.0000
  H   H710      1.0  0.22303  0.94613  0.80561  1.0000
  H   H711      1.0  0.24461  0.59751  0.82489  1.0000
  H   H712      1.0  0.15760  0.55878  0.68323  1.0000
  H   H713      1.0  0.01543  0.59893  0.86630  1.0000
  C   C419      1.0  0.24312  0.90554  0.82094  1.0000
  C   C420      1.0  0.21394  0.77426  0.67069  1.0000
  C   C421      1.0  0.22078  0.54115  0.78058  1.0000
  H   H714      1.0  0.17487  0.50265  0.67207  1.0000
  H   H715      1.0  0.16526  0.74457  0.70061  1.0000
  C   C422      1.0  0.24513  0.83714  0.99258  1.0000
  C   C423      1.0  0.21370  0.93209  0.81441  1.0000
  H   H716      1.0  0.16953  0.68909  0.67803  1.0000
  C   C424      1.0  0.24216  0.54322  0.77791  1.0000
  S   S128      1.0  0.22154  0.90677  0.68351  1.0000
  C   C425      1.0  0.01235  0.62313  0.76892  1.0000
  H   H717      1.0  0.13015  0.53141  0.68308  1.0000
  H   H718      1.0  0.02752  0.57236  0.71682  1.0000
  C   C426      1.0  0.11042  0.73816  0.68481  1.0000
  H   H719      1.0  0.08884  0.82167  0.67851  1.0000
  H   H720      1.0  0.10066  0.73243  0.69790  1.0000
  C   C427      1.0  0.24761  0.58063  0.81355  1.0000
  C   C428      1.0  0.16622  0.54022  0.68620  1.0000
  H   H721      1.0  0.01240  0.62128  0.83200  1.0000
  H   H722      1.0  0.25441  0.68925  0.95374  1.0000
  C   C429      1.0  0.16927  0.70289  0.69180  1.0000
  C   C430      1.0  0.10964  0.95371  0.67351  1.0000
  C   C431      1.0  0.24915  0.71063  0.95615  1.0000
  H   H723      1.0  0.22197  0.86619  0.99495  1.0000
  H   H724      1.0  0.13173  0.78727  0.69651  1.0000
  H   H725      1.0  0.19750  0.93148  0.78586  1.0000
  H   H726      1.0  0.02815  0.84553  0.97780  1.0000
  H   H727      1.0  0.24410  0.56662  0.74003  1.0000
  H   H728      1.0  0.19992  0.90048  0.84637  1.0000
  C   C432      1.0  0.22275  0.87309  0.85480  1.0000
  H   H729      1.0  0.23177  0.86795  0.80652  1.0000
  H   H730      1.0  0.13284  0.74169  0.70682  1.0000
  H   H731      1.0  0.21346  0.85593  0.85870  1.0000
  H   H732      1.0  0.20310  0.94559  0.82263  1.0000
  C   C433      1.0  0.16443  0.73274  0.68574  1.0000
  C   C434      1.0  0.23513  0.94962  0.75919  1.0000
  H   H733      1.0  0.25616  0.87001  0.80559  1.0000
  H   H734      1.0  0.25930  0.92708  0.77014  1.0000
  H   H735      1.0  0.15964  0.69505  0.70422  1.0000
  H   H736      1.0  0.03805  0.68446  0.80199  1.0000
  H   H737      1.0  0.23449  0.65828  0.98935  1.0000
  H   H738      1.0  0.24260  0.89109  0.78807  1.0000
  H   H739      1.0  0.04459  0.55007  0.67945  1.0000
  H   H740      1.0  0.22436  0.54339  0.68580  1.0000
  H   H741      1.0  0.13083  0.70906  0.69543  1.0000
  C   C435      1.0  0.01394  0.67251  0.82082  1.0000
  C   C436      1.0  0.24308  0.88256  0.80434  1.0000
  C   C437      1.0  0.14416  0.78870  0.68588  1.0000
  H   H742      1.0  0.02552  0.62071  0.76037  1.0000
  H   H743      1.0  0.22949  0.97449  0.83378  1.0000
  H   H744      1.0  0.06564  0.85732  0.67924  1.0000
  H   H745      1.0  0.01211  0.63013  0.88048  1.0000
  N   N28       1.0  0.14581  0.73767  0.67558  1.0000
  H   H746      1.0  0.13254  0.63801  0.68770  1.0000
  C   C438      1.0  0.22498  0.66985  0.97878  1.0000
  C   C439      1.0  0.23472  0.71716  0.93900  1.0000
  S   S129      1.0  0.19698  0.96198  0.69951  1.0000
  H   H747      1.0  0.25177  0.61021  0.78909  1.0000
  C   C440      1.0  0.09209  0.87627  0.66914  1.0000
  Fe  Fe62      1.0  0.20786  0.94396  0.66901  1.0000
  H   H748      1.0  0.02136  0.81076  0.97795  1.0000
  C   C441      1.0  0.22834  0.93357  0.84877  1.0000
  C   C442      1.0  0.25745  0.70411  0.99316  1.0000
  H   H749      1.0  0.10245  0.95076  0.68854  1.0000
  H   H750      1.0  0.21228  0.81369  0.68611  1.0000
  H   H751      1.0  0.20818  0.87900  0.82593  1.0000
  H   H752      1.0  0.21434  0.53706  0.76515  1.0000
  H   H753      1.0  0.24190  0.61431  0.72981  1.0000
  C   C443      1.0  0.01377  0.68084  0.86000  1.0000
  Fe  Fe63      1.0  0.19425  0.88562  0.67944  1.0000
  H   H754      1.0  0.10026  0.86500  0.68131  1.0000
  H   H755      1.0  0.17926  0.54787  0.69295  1.0000
  H   H756      1.0  0.22281  0.70326  0.93979  1.0000
  H   H757      1.0  0.24548  0.83704  0.97548  1.0000
  N   N29       1.0  0.24262  0.71520  0.97868  1.0000
  H   H758      1.0  0.04287  0.65589  0.81861  1.0000
  H   H759      1.0  0.10800  0.76021  0.68175  1.0000
  C   C444      1.0  0.12914  0.95560  0.67284  1.0000
  H   H760      1.0  0.11521  0.50490  0.67560  1.0000
  H   H761      1.0  0.22551  0.49388  0.67767  1.0000
  H   H762      1.0  0.02894  0.67752  0.86282  1.0000
  S   S130      1.0  0.03744  0.76944  0.68221  1.0000
  C   C445      1.0  0.01541  0.63461  0.84569  1.0000
  H   H763      1.0  0.03291  0.82765  0.68445  1.0000
  H   H764      1.0  0.04073  0.69009  0.82963  1.0000
  C   C446      1.0  0.01598  0.83214  0.97966  1.0000
  C   C447      1.0  0.23917  0.74542  0.98192  1.0000
  H   H765      1.0  0.10641  0.72618  0.67091  1.0000
  H   H766      1.0  0.23833  0.56374  0.81812  1.0000
  H   H767      1.0  0.24613  0.52908  0.76481  1.0000
  H   H768      1.0  0.24883  0.53358  0.79191  1.0000
  C   C448      1.0  0.22239  0.53667  0.66976  1.0000
  H   H769      1.0  0.24161  0.71425  0.92321  1.0000
  C   C449      1.0  0.25193  0.95837  0.98772  1.0000
  H   H770      1.0  0.01570  0.58536  0.78643  1.0000
  H   H771      1.0  0.25555  0.93713  0.98278  1.0000
  Fe  Fe64      1.0  0.03022  0.66279  0.67242  1.0000
  C   C450      1.0  0.03412  0.82253  0.66785  1.0000
  C   C451      1.0  0.11012  0.65951  0.67206  1.0000
  H   H772      1.0  0.25092  0.75732  0.97523  1.0000
  N   N30       1.0  0.24945  0.57124  0.77343  1.0000
  C   C452      1.0  0.22471  0.70077  0.98343  1.0000
  H   H773      1.0  0.25288  0.89907  0.83349  1.0000
  H   H774      1.0  0.07101  0.88762  0.69294  1.0000
  C   C453      1.0  0.12769  0.64620  0.67283  1.0000
  C   C454      1.0  0.24787  0.60973  0.74554  1.0000
  H   H775      1.0  0.21292  0.71040  0.97468  1.0000
  S   S131      1.0  0.01357  0.69547  0.69003  1.0000
  H   H776      1.0  0.21760  0.52409  0.79162  1.0000
  C   C455      1.0  0.12497  0.52037  0.66934  1.0000
  H   H777      1.0  0.26033  0.68205  0.99012  1.0000
  H   H778      1.0  0.26130  0.72350  0.95234  1.0000
  H   H779      1.0  0.46050  0.42278  0.02210  1.0000
  H   H780      1.0  0.45429  0.06558  0.18053  1.0000
  C   C456      1.0  0.26677  0.43915  0.07326  1.0000
  S   S132      1.0  0.47581  0.06530  0.29414  1.0000
  C   C457      1.0  0.46982  0.42634  0.00815  1.0000
  C   C458      1.0  0.48138  0.00303  0.00270  1.0000
  H   H781      1.0  0.26175  0.44066  0.05690  1.0000
  H   H782      1.0  0.49660  0.01009  0.29875  1.0000
  C   C459      1.0  0.49570  0.98464  0.03485  1.0000
  H   H783      1.0  0.48012  0.10982  0.13043  1.0000
  C   C460      1.0  0.48340  0.09183  0.27669  1.0000
  C   C461      1.0  0.26282  0.36549  0.01625  1.0000
  N   N31       1.0  0.51084  0.99457  0.32662  1.0000
  N   N32       1.0  0.26888  0.46674  0.08324  1.0000
  H   H784      1.0  0.44874  0.16304  0.20888  1.0000
  C   C462      1.0  0.47552  0.11827  0.27720  1.0000
  N   N33       1.0  0.46789  0.10396  0.18458  1.0000
  H   H785      1.0  0.43786  0.13073  0.20832  1.0000
  H   H786      1.0  0.46477  0.12338  0.28890  1.0000
  H   H787      1.0  0.26539  0.17190  0.26806  1.0000
  H   H788      1.0  0.48932  0.06004  0.01849  1.0000
  C   C463      1.0  0.48037  0.09410  0.20211  1.0000
  H   H789      1.0  0.45728  0.11506  0.14145  1.0000
  C   C464      1.0  0.47220  0.11710  0.14472  1.0000
  H   H790      1.0  0.28678  0.26482  0.20326  1.0000
  H   H791      1.0  0.47245  0.31504  0.33314  1.0000
  S   S133      1.0  0.50056  0.15726  0.22716  1.0000
  H   H792      1.0  0.42105  0.09065  0.17856  1.0000
  H   H793      1.0  0.27547  0.26658  0.15419  1.0000
  H   H794      1.0  0.49969  0.14150  0.03159  1.0000
  H   H795      1.0  0.29697  0.43147  0.06671  1.0000
  H   H796      1.0  0.28746  0.22822  0.22647  1.0000
  H   H797      1.0  0.48698  0.02183  0.32303  1.0000
  H   H798      1.0  0.51017  0.04264  0.00978  1.0000
  H   H799      1.0  0.44496  0.08489  0.20161  1.0000
  C   C465      1.0  0.50332  0.10567  0.24649  1.0000
  H   H800      1.0  0.49362  0.10543  0.16588  1.0000
  H   H801      1.0  0.47136  0.97803  0.32935  1.0000
  C   C466      1.0  0.48123  0.13804  0.26221  1.0000
  C   C467      1.0  0.43452  0.09608  0.17081  1.0000
  C   C468      1.0  0.49344  0.00351  0.31522  1.0000
  C   C469      1.0  0.48688  0.06382  0.20123  1.0000
  C   C470      1.0  0.47872  0.10018  0.16395  1.0000
  H   H802      1.0  0.47664  0.13507  0.02348  1.0000
  H   H803      1.0  0.43337  0.11834  0.16814  1.0000
  H   H804      1.0  0.47680  0.14511  0.18984  1.0000
  H   H805      1.0  0.47547  0.13896  0.14644  1.0000
  H   H806      1.0  0.47336  0.09665  0.21785  1.0000
  H   H807      1.0  0.45639  0.14383  0.17514  1.0000
  C   C471      1.0  0.45067  0.08699  0.18516  1.0000
  H   H808      1.0  0.26503  0.00659  0.01653  1.0000
  H   H809      1.0  0.36065  0.12777  0.32736  1.0000
  H   H810      1.0  0.47517  0.04996  0.20441  1.0000
  C   C472      1.0  0.46361  0.13387  0.18851  1.0000
  C   C473      1.0  0.26482  0.23013  0.18337  1.0000
  H   H811      1.0  0.49315  0.10653  0.20251  1.0000
  H   H812      1.0  0.43566  0.08553  0.15532  1.0000
  H   H813      1.0  0.28721  0.41120  0.08811  1.0000
  H   H814      1.0  0.47896  0.07842  0.15896  1.0000
  C   C474      1.0  0.48131  0.99965  0.02483  1.0000
  H   H815      1.0  0.49544  0.98223  0.05186  1.0000
  C   C475      1.0  0.28450  0.42057  0.07243  1.0000
  C   C476      1.0  0.45155  0.14064  0.20842  1.0000
  C   C477      1.0  0.49118  0.12678  0.02297  1.0000
  H   H816      1.0  0.47476  0.15824  0.26259  1.0000
  C   C478      1.0  0.49505  0.13190  0.24663  1.0000
  H   H817      1.0  0.49167  0.10743  0.03198  1.0000
  S   S134      1.0  0.50723  0.16870  0.16643  1.0000
  H   H818      1.0  0.26377  0.23337  0.23602  1.0000
  H   H819      1.0  0.48417  0.42062  0.01316  1.0000
  Fe  Fe65      1.0  0.45868  0.06522  0.32545  1.0000
  H   H820      1.0  0.47009  0.00885  0.03429  1.0000
  H   H821      1.0  0.49715  0.05991  0.21384  1.0000
  C   C479      1.0  0.27560  0.46182  0.10545  1.0000
  H   H822      1.0  0.43603  0.44907  0.00283  1.0000
  H   H823      1.0  0.45885  0.13551  0.22323  1.0000
  Fe  Fe66      1.0  0.27251  0.26547  0.33013  1.0000
  C   C480      1.0  0.49736  0.08574  0.26123  1.0000
  H   H824      1.0  0.28536  0.28896  0.17355  1.0000
  C   C481      1.0  0.27295  0.26304  0.21136  1.0000
  H   H825      1.0  0.49393  0.05836  0.18607  1.0000
  H   H826      1.0  0.29471  0.46868  0.04140  1.0000
  C   C482      1.0  0.27634  0.24374  0.23029  1.0000
  H   H827      1.0  0.50361  0.06542  0.26064  1.0000
  H   H828      1.0  0.33037  0.11192  0.33202  1.0000
  H   H829      1.0  0.27998  0.23087  0.17929  1.0000
  C   C483      1.0  0.27256  0.28390  0.16510  1.0000
  H   H830      1.0  0.28232  0.40343  0.06140  1.0000
  H   H831      1.0  0.27274  0.20930  0.29271  1.0000
  H   H832      1.0  0.46941  0.44849  0.00503  1.0000
  H   H833      1.0  0.46686  0.99074  0.30356  1.0000
  S   S135      1.0  0.29512  0.29639  0.33152  1.0000
  H   H834      1.0  0.26728  0.19969  0.20952  1.0000
  S   S136      1.0  0.44085  0.02863  0.33267  1.0000
  C   C484      1.0  0.47806  0.98224  0.31373  1.0000
  H   H835      1.0  0.46852  0.09090  0.00845  1.0000
  H   H836      1.0  0.26822  0.18590  0.18350  1.0000
  H   H837      1.0  0.28961  0.45149  0.10523  1.0000
  C   C485      1.0  0.26146  0.20199  0.19359  1.0000
  H   H838      1.0  0.26888  0.30180  0.15501  1.0000
  C   C486      1.0  0.26748  0.34509  0.00117  1.0000
  H   H839      1.0  0.26619  0.44774  0.11423  1.0000
  H   H840      1.0  0.28073  0.25580  0.24406  1.0000
  H   H841      1.0  0.27006  0.28393  0.21771  1.0000
  C   C487      1.0  0.50319  0.06313  0.01095  1.0000
  H   H842      1.0  0.27034  0.38432  0.01599  1.0000
  H   H843      1.0  0.30612  0.13900  0.33276  1.0000
  H   H844      1.0  0.27001  0.47660  0.03981  1.0000
  H   H845      1.0  0.46402  0.29742  0.53665  1.0000
  Fe  Fe67      1.0  0.44988  0.28214  0.46167  1.0000
  S   S137      1.0  0.46970  0.29815  0.43670  1.0000
  S   S138      1.0  0.45482  0.26844  0.49584  1.0000
  Fe  Fe68      1.0  0.41626  0.28953  0.43246  1.0000
  S   S139      1.0  0.43339  0.30612  0.40556  1.0000
  S   S140      1.0  0.38528  0.28217  0.43183  1.0000
  Fe  Fe69      1.0  0.45390  0.27241  0.41410  1.0000
  S   S141      1.0  0.46635  0.24754  0.38686  1.0000
  Fe  Fe70      1.0  0.44757  0.33078  0.43006  1.0000
  S   S142      1.0  0.45502  0.37606  0.42831  1.0000
  S   S143      1.0  0.43567  0.25426  0.43942  1.0000
  S   S144      1.0  0.42878  0.31647  0.45667  1.0000
  S   S145      1.0  0.27070  0.22124  0.40335  1.0000
  H   H846      1.0  0.46843  0.29594  0.35665  1.0000
  Fe  Fe71      1.0  0.42104  0.05864  0.34904  1.0000
  S   S146      1.0  0.43446  0.05369  0.38033  1.0000
  N   N34       1.0  0.49948  0.13304  0.54037  1.0000
  S   S147      1.0  0.47437  0.06032  0.35592  1.0000
  Fe  Fe72      1.0  0.45518  0.02567  0.36377  1.0000
  C   C488      1.0  0.28253  0.38451  0.38370  1.0000
  Fe  Fe73      1.0  0.45207  0.08862  0.36967  1.0000
  S   S148      1.0  0.45506  0.11971  0.39572  1.0000
  H   H847      1.0  0.46845  0.32935  0.60088  1.0000
  H   H848      1.0  0.28872  0.10766  0.34898  1.0000
  Fe  Fe74      1.0  0.27783  0.99861  0.41761  1.0000
  S   S149      1.0  0.29300  0.00486  0.44799  1.0000
  H   H849      1.0  0.32598  0.15981  0.37157  1.0000
  Fe  Fe75      1.0  0.27381  0.06144  0.41054  1.0000
  S   S150      1.0  0.28894  0.07133  0.43998  1.0000
  H   H850      1.0  0.33207  0.31344  0.39426  1.0000
  Fe  Fe76      1.0  0.30856  0.03701  0.42953  1.0000
  S   S151      1.0  0.33977  0.04329  0.43102  1.0000
  C   C489      1.0  0.27448  0.38141  0.40388  1.0000
  S   S152      1.0  0.29449  0.02924  0.39892  1.0000
  Fe  Fe77      1.0  0.31108  0.26540  0.35070  1.0000
  S   S153      1.0  0.29939  0.28086  0.38152  1.0000
  S   S154      1.0  0.34247  0.25940  0.34741  1.0000
  Fe  Fe78      1.0  0.28221  0.31063  0.36253  1.0000
  Fe  Fe79      1.0  0.27720  0.25022  0.37626  1.0000
  H   H851      1.0  0.34739  0.09563  0.38460  1.0000
  H   H852      1.0  0.51124  0.27012  0.55980  1.0000
  H   H853      1.0  0.26898  0.36191  0.40858  1.0000
  H   H854      1.0  0.40137  0.01666  0.42148  1.0000
  N   N35       1.0  0.26739  0.08412  0.59150  1.0000
  H   H855      1.0  0.33564  0.42404  0.41402  1.0000
  C   C490      1.0  0.26497  0.17603  0.37879  1.0000
  H   H856      1.0  0.37212  0.37647  0.42395  1.0000
  H   H857      1.0  0.45894  0.33079  0.52730  1.0000
  C   C491      1.0  0.28962  0.41014  0.37799  1.0000
  C   C492      1.0  0.28856  0.43239  0.39212  1.0000
  H   H858      1.0  0.29598  0.41279  0.36247  1.0000
  H   H859      1.0  0.29416  0.45182  0.38746  1.0000
  H   H860      1.0  0.36803  0.16895  0.41036  1.0000
  H   H861      1.0  0.29630  0.16702  0.34715  1.0000
  H   H862      1.0  0.51045  0.07794  0.55740  1.0000
  C   C493      1.0  0.35341  0.04632  0.40758  1.0000
  C   C494      1.0  0.34691  0.03807  0.38800  1.0000
  C   C495      1.0  0.35813  0.04086  0.36962  1.0000
  C   C496      1.0  0.37600  0.05165  0.37066  1.0000
  C   C497      1.0  0.38252  0.05980  0.39025  1.0000
  C   C498      1.0  0.37131  0.05702  0.40863  1.0000
  H   H863      1.0  0.33336  0.02920  0.38703  1.0000
  H   H864      1.0  0.35300  0.03435  0.35455  1.0000
  H   H865      1.0  0.39614  0.06847  0.39126  1.0000
  H   H866      1.0  0.37646  0.06342  0.42372  1.0000
  C   C499      1.0  0.37422  0.27464  0.40807  1.0000
  C   C500      1.0  0.38292  0.27857  0.38831  1.0000
  C   C501      1.0  0.37318  0.27357  0.36970  1.0000
  C   C502      1.0  0.35477  0.26456  0.37081  1.0000
  C   C503      1.0  0.34641  0.25973  0.39059  1.0000
  C   C504      1.0  0.35602  0.26499  0.40912  1.0000
  H   H867      1.0  0.39699  0.28591  0.38734  1.0000
  H   H868      1.0  0.37979  0.27711  0.35443  1.0000
  H   H869      1.0  0.33254  0.25173  0.39166  1.0000
  H   H870      1.0  0.34931  0.26155  0.42436  1.0000
  C   C505      1.0  0.46479  0.21165  0.38930  1.0000
  C   C506      1.0  0.46674  0.19492  0.37133  1.0000
  C   C507      1.0  0.46415  0.16651  0.37294  1.0000
  C   C508      1.0  0.45985  0.15471  0.39261  1.0000
  C   C509      1.0  0.45858  0.17136  0.41058  1.0000
  C   C510      1.0  0.46098  0.19963  0.40894  1.0000
  H   H871      1.0  0.46984  0.20400  0.35608  1.0000
  H   H872      1.0  0.46529  0.15384  0.35899  1.0000
  H   H873      1.0  0.45553  0.16237  0.42589  1.0000
  H   H874      1.0  0.46006  0.21204  0.42298  1.0000
  C   C511      1.0  0.45203  0.40258  0.40921  1.0000
  C   C512      1.0  0.45900  0.42854  0.41339  1.0000
  C   C513      1.0  0.45708  0.45024  0.39874  1.0000
  C   C514      1.0  0.44824  0.44616  0.37959  1.0000
  C   C515      1.0  0.44125  0.42018  0.37540  1.0000
  C   C516      1.0  0.44299  0.39859  0.39016  1.0000
  H   H875      1.0  0.46601  0.43189  0.42808  1.0000
  H   H876      1.0  0.49780  0.27880  0.34937  1.0000
  C   C517      1.0  0.33854  0.11459  0.38510  1.0000
  H   H877      1.0  0.43735  0.37891  0.38680  1.0000
  C   C518      1.0  0.47420  0.25058  0.50692  1.0000
  C   C519      1.0  0.49111  0.24643  0.49581  1.0000
  C   C520      1.0  0.44817  0.32792  0.35139  1.0000
  C   C521      1.0  0.39450  0.42715  0.41571  1.0000
  C   C522      1.0  0.48817  0.22907  0.53812  1.0000
  C   C523      1.0  0.47275  0.24135  0.52798  1.0000
  H   H878      1.0  0.48248  0.36393  0.33627  1.0000
  H   H879      1.0  0.26964  0.09646  0.49305  1.0000
  H   H880      1.0  0.46094  0.28883  0.58040  1.0000
  H   H881      1.0  0.45965  0.24419  0.53663  1.0000
  H   H882      1.0  0.41413  0.13951  0.37181  1.0000
  N   N36       1.0  0.48412  0.31496  0.57314  1.0000
  C   C524      1.0  0.48513  0.26992  0.59457  1.0000
  C   C525      1.0  0.32704  0.33193  0.40295  1.0000
  H   H883      1.0  0.30820  0.05121  0.57085  1.0000
  C   C526      1.0  0.33943  0.40829  0.40197  1.0000
  C   C527      1.0  0.33610  0.36150  0.37367  1.0000
  C   C528      1.0  0.40832  0.99054  0.38511  1.0000
  C   C529      1.0  0.38217  0.19456  0.38595  1.0000
  C   C530      1.0  0.33106  0.38088  0.40879  1.0000
  S   S155      1.0  0.28410  0.35747  0.36488  1.0000
  H   H884      1.0  0.33345  0.41555  0.38684  1.0000
  C   C531      1.0  0.29376  0.05958  0.56904  1.0000
  H   H885      1.0  0.35482  0.40689  0.40036  1.0000
  H   H886      1.0  0.36778  0.36277  0.38984  1.0000
  H   H887      1.0  0.48981  0.34820  0.41413  1.0000
  H   H888      1.0  0.37821  0.34153  0.42621  1.0000
  C   C532      1.0  0.50519  0.22544  0.52714  1.0000
  N   N37       1.0  0.33862  0.35612  0.39700  1.0000
  H   H889      1.0  0.30434  0.14457  0.37730  1.0000
  C   C533      1.0  0.40476  0.45425  0.41707  1.0000
  C   C534      1.0  0.35488  0.12993  0.34375  1.0000
  C   C535      1.0  0.33830  0.11085  0.34679  1.0000
  H   H890      1.0  0.27393  0.11648  0.55441  1.0000
  H   H891      1.0  0.40518  0.01289  0.38486  1.0000
  H   H892      1.0  0.47822  0.16858  0.50954  1.0000
  H   H893      1.0  0.33919  0.11778  0.41939  1.0000
  H   H894      1.0  0.37466  0.99715  0.39614  1.0000
  H   H895      1.0  0.35083  0.15169  0.34620  1.0000
  H   H896      1.0  0.39620  0.15503  0.41484  1.0000
  H   H897      1.0  0.37991  0.21646  0.38182  1.0000
  H   H898      1.0  0.31227  0.33570  0.39827  1.0000
  H   H899      1.0  0.33281  0.37897  0.42607  1.0000
  C   C536      1.0  0.27087  0.18589  0.39813  1.0000
  H   H900      1.0  0.27800  0.12264  0.60238  1.0000
  H   H901      1.0  0.32924  0.32192  0.35974  1.0000
  H   H902      1.0  0.38442  0.19535  0.43555  1.0000
  C   C537      1.0  0.50646  0.23377  0.50585  1.0000
  H   H903      1.0  0.40082  0.21857  0.44505  1.0000
  H   H904      1.0  0.34850  0.13158  0.38493  1.0000
  H   H905      1.0  0.32159  0.36879  0.37058  1.0000
  C   C538      1.0  0.36626  0.35581  0.42312  1.0000
  H   H906      1.0  0.27729  0.12492  0.42380  1.0000
  C   C539      1.0  0.34039  0.33718  0.35875  1.0000
  H   H907      1.0  0.31569  0.38301  0.40698  1.0000
  C   C540      1.0  0.31217  0.09384  0.36848  1.0000
  H   H908      1.0  0.48891  0.36754  0.61001  1.0000
  H   H909      1.0  0.31941  0.16924  0.33724  1.0000
  H   H910      1.0  0.37950  0.42967  0.41998  1.0000
  H   H911      1.0  0.43530  0.00685  0.41250  1.0000
  H   H912      1.0  0.40082  0.41227  0.42697  1.0000
  S   S156      1.0  0.38961  0.05499  0.34720  1.0000
  S   S157      1.0  0.28990  0.23291  0.34634  1.0000
  C   C541      1.0  0.32670  0.32327  0.42635  1.0000
  H   H913      1.0  0.36204  0.20511  0.41147  1.0000
  H   H914      1.0  0.47430  0.31104  0.38926  1.0000
  H   H915      1.0  0.43433  0.41682  0.36067  1.0000
  C   C542      1.0  0.50534  0.29211  0.36025  1.0000
  S   S158      1.0  0.44509  0.47260  0.36047  1.0000
  H   H916      1.0  0.49052  0.15269  0.48801  1.0000
  H   H917      1.0  0.30603  0.08609  0.33482  1.0000
  H   H918      1.0  0.45774  0.33431  0.56494  1.0000
  H   H919      1.0  0.47150  0.16207  0.58115  1.0000
  C   C543      1.0  0.35908  0.35019  0.40072  1.0000
  H   H920      1.0  0.47253  0.15441  0.54268  1.0000
  H   H921      1.0  0.48116  0.24829  0.59304  1.0000
  H   H922      1.0  0.50363  0.06142  0.61715  1.0000
  H   H923      1.0  0.34421  0.08955  0.34717  1.0000
  H   H924      1.0  0.39625  0.41797  0.39976  1.0000
  C   C544      1.0  0.48290  0.32981  0.59401  1.0000
  H   H925      1.0  0.28556  0.04298  0.56235  1.0000
  H   H926      1.0  0.42377  0.98832  0.38396  1.0000
  C   C545      1.0  0.48868  0.35990  0.59352  1.0000
  H   H927      1.0  0.36277  0.32859  0.39680  1.0000
  N   N38       1.0  0.40160  0.18977  0.39406  1.0000
  H   H928      1.0  0.41924  0.45027  0.41095  1.0000
  C   C546      1.0  0.40525  0.16072  0.40120  1.0000
  C   C547      1.0  0.40554  0.20916  0.41179  1.0000
  C   C548      1.0  0.29875  0.09015  0.35014  1.0000
  C   C549      1.0  0.41627  0.22540  0.36857  1.0000
  C   C550      1.0  0.46948  0.31827  0.53593  1.0000
  C   C551      1.0  0.39919  0.20092  0.43435  1.0000
  H   H929      1.0  0.43092  0.00968  0.44014  1.0000
  H   H930      1.0  0.42943  0.18884  0.38043  1.0000
  C   C552      1.0  0.42825  0.99691  0.42613  1.0000
  H   H931      1.0  0.46703  0.34593  0.38980  1.0000
  H   H932      1.0  0.41971  0.15837  0.40719  1.0000
  H   H933      1.0  0.42085  0.21204  0.41282  1.0000
  H   H934      1.0  0.39933  0.22976  0.40862  1.0000
  C   C553      1.0  0.40698  0.99535  0.42336  1.0000
  C   C554      1.0  0.41514  0.19541  0.37604  1.0000
  C   C555      1.0  0.26707  0.12927  0.39222  1.0000
  H   H935      1.0  0.28303  0.08391  0.63192  1.0000
  C   C556      1.0  0.40307  0.13856  0.38433  1.0000
  C   C557      1.0  0.27566  0.16726  0.41417  1.0000
  H   H936      1.0  0.48693  0.22270  0.55447  1.0000
  H   H937      1.0  0.49153  0.14055  0.58463  1.0000
  H   H938      1.0  0.29450  0.07633  0.55733  1.0000
  C   C558      1.0  0.32861  0.11552  0.40701  1.0000
  H   H939      1.0  0.40481  0.11818  0.39192  1.0000
  H   H940      1.0  0.50965  0.34690  0.66402  1.0000
  C   C559      1.0  0.28598  0.06879  0.59095  1.0000
  C   C560      1.0  0.30938  0.15476  0.34438  1.0000
  H   H941      1.0  0.49697  0.00457  0.35640  1.0000
  H   H942      1.0  0.38022  0.18408  0.37062  1.0000
  C   C561      1.0  0.39476  0.47013  0.38252  1.0000
  H   H943      1.0  0.40815  0.18398  0.44053  1.0000
  H   H944      1.0  0.30302  0.09710  0.38270  1.0000
  C   C562      1.0  0.31640  0.14402  0.36592  1.0000
  H   H945      1.0  0.42704  0.22659  0.35572  1.0000
  H   H946      1.0  0.28538  0.04984  0.60074  1.0000
  H   H947      1.0  0.48245  0.31894  0.52612  1.0000
  C   C563      1.0  0.47886  0.33197  0.38504  1.0000
  H   H948      1.0  0.47737  0.27463  0.56225  1.0000
  C   C564      1.0  0.50423  0.31377  0.56540  1.0000
  S   S159      1.0  0.27597  0.45765  0.42966  1.0000
  H   H949      1.0  0.35607  0.35286  0.43621  1.0000
  C   C565      1.0  0.26986  0.11448  0.58921  1.0000
  H   H950      1.0  0.31847  0.13293  0.40853  1.0000
  H   H951      1.0  0.49103  0.40400  0.35533  1.0000
  H   H952      1.0  0.29686  0.08119  0.59829  1.0000
  C   C566      1.0  0.26797  0.08952  0.63223  1.0000
  N   N39       1.0  0.32609  0.11624  0.36615  1.0000
  C   C567      1.0  0.27997  0.12433  0.56900  1.0000
  H   H953      1.0  0.47999  0.27689  0.61039  1.0000
  H   H954      1.0  0.42075  0.23919  0.38122  1.0000
  H   H955      1.0  0.49153  0.17316  0.55196  1.0000
  H   H956      1.0  0.32157  0.09610  0.41062  1.0000
  H   H957      1.0  0.34049  0.31487  0.43116  1.0000
  H   H958      1.0  0.47632  0.10611  0.53670  1.0000
  H   H959      1.0  0.50419  0.32523  0.33774  1.0000
  H   H960      1.0  0.31952  0.07380  0.37096  1.0000
  H   H961      1.0  0.38910  0.13957  0.37731  1.0000
  C   C568      1.0  0.27980  0.42960  0.41199  1.0000
  H   H962      1.0  0.34516  0.37819  0.36797  1.0000
  S   S160      1.0  0.46585  0.98703  0.38095  1.0000
  H   H963      1.0  0.32167  0.33982  0.43706  1.0000
  C   C569      1.0  0.27392  0.13900  0.41119  1.0000
  H   H964      1.0  0.41193  0.18336  0.36178  1.0000
  C   C570      1.0  0.50315  0.14428  0.51840  1.0000
  H   H965      1.0  0.31679  0.30637  0.42841  1.0000
  C   C571      1.0  0.49532  0.33758  0.39973  1.0000
  H   H966      1.0  0.38471  0.45351  0.38056  1.0000
  C   C572      1.0  0.37977  0.97834  0.40433  1.0000
  Fe  Fe80      1.0  0.27181  0.03882  0.45556  1.0000
  H   H967      1.0  0.49195  0.31959  0.60588  1.0000
  C   C573      1.0  0.49347  0.38402  0.36335  1.0000
  H   H968      1.0  0.47849  0.37325  0.58518  1.0000
  N   N40       1.0  0.48269  0.33392  0.36152  1.0000
  C   C574      1.0  0.47200  0.33080  0.55789  1.0000
  H   H969      1.0  0.40651  0.45839  0.43406  1.0000
  C   C575      1.0  0.36569  0.18766  0.40088  1.0000
  H   H970      1.0  0.47025  0.12707  0.57421  1.0000
  C   C576      1.0  0.27298  0.40387  0.41781  1.0000
  H   H971      1.0  0.49244  0.25333  0.47959  1.0000
  H   H972      1.0  0.27851  0.14695  0.56811  1.0000
  H   H973      1.0  0.28051  0.17482  0.42905  1.0000
  C   C577      1.0  0.47620  0.28709  0.57672  1.0000
  H   H974      1.0  0.35410  0.32713  0.36178  1.0000
  H   H975      1.0  0.36633  0.12387  0.35443  1.0000
  H   H976      1.0  0.35333  0.18353  0.39127  1.0000
  H   H977      1.0  0.29022  0.07200  0.35363  1.0000
  S   S161      1.0  0.43728  0.09551  0.33903  1.0000
  H   H978      1.0  0.47633  0.13211  0.50506  1.0000
  H   H979      1.0  0.40296  0.23307  0.36192  1.0000
  H   H980      1.0  0.46255  0.47003  0.40222  1.0000
  H   H981      1.0  0.49721  0.09427  0.52412  1.0000
  H   H982      1.0  0.36988  0.99744  0.43415  1.0000
  C   C578      1.0  0.47966  0.14465  0.57412  1.0000
  C   C579      1.0  0.48575  0.15232  0.55143  1.0000
  C   C580      1.0  0.46860  0.31716  0.35024  1.0000
  C   C581      1.0  0.49556  0.08464  0.55705  1.0000
  H   H983      1.0  0.26623  0.40136  0.43315  1.0000
  C   C582      1.0  0.48056  0.36302  0.35380  1.0000
  H   H984      1.0  0.48742  0.06598  0.55477  1.0000
  H   H985      1.0  0.43880  0.31133  0.34690  1.0000
  H   H986      1.0  0.46626  0.37139  0.35730  1.0000
  H   H987      1.0  0.50631  0.35058  0.39306  1.0000
  H   H988      1.0  0.44389  0.33471  0.36745  1.0000
  H   H989      1.0  0.48997  0.38754  0.38033  1.0000
  H   H990      1.0  0.49151  0.09285  0.57278  1.0000
  C   C583      1.0  0.48587  0.14952  0.50471  1.0000
  C   C584      1.0  0.49171  0.10480  0.53863  1.0000
  H   H991      1.0  0.29513  0.11933  0.56943  1.0000
  H   H992      1.0  0.50055  0.27036  0.59405  1.0000
  H   H993      1.0  0.38576  0.98357  0.36254  1.0000
  H   H994      1.0  0.40798  0.98977  0.35082  1.0000
  C   C585      1.0  0.26297  0.14784  0.37595  1.0000
  H   H995      1.0  0.47762  0.35137  0.55468  1.0000
  H   H996      1.0  0.36529  0.46526  0.44212  1.0000
  H   H997      1.0  0.26592  0.11191  0.63417  1.0000
  C   C586      1.0  0.40092  0.97923  0.36424  1.0000
  C   C587      1.0  0.50176  0.32263  0.35510  1.0000
  H   H998      1.0  0.26173  0.08006  0.64666  1.0000
  H   H999      1.0  0.44587  0.34495  0.34001  1.0000
  H   H1000     1.0  0.50169  0.31812  0.40554  1.0000
  H   H1001     1.0  0.50145  0.28714  0.53721  1.0000
  H   H1002     1.0  0.40843  0.46169  0.37649  1.0000
  C   C588      1.0  0.50504  0.98723  0.34897  1.0000
  C   C589      1.0  0.51042  0.28968  0.55096  1.0000
  H   H1003     1.0  0.50135  0.28681  0.37676  1.0000
  S   S162      1.0  0.51034  0.19128  0.59972  1.0000
  H   H1004     1.0  0.51061  0.16388  0.51913  1.0000
  N   N41       1.0  0.40082  0.97794  0.40533  1.0000
  S   S163      1.0  0.26275  0.09437  0.38829  1.0000
  H   H1005     1.0  0.34069  0.34460  0.34213  1.0000
  H   H1006     1.0  0.40121  0.98842  0.43880  1.0000
  H   H1007     1.0  0.36615  0.47218  0.40657  1.0000
  H   H1008     1.0  0.50289  0.36231  0.58659  1.0000
  H   H1009     1.0  0.50845  0.37860  0.36098  1.0000
  H   H1010     1.0  0.50778  0.33291  0.55684  1.0000
  C   C590      1.0  0.36858  0.97798  0.42546  1.0000
  H   H1011     1.0  0.26138  0.19024  0.36631  1.0000
  Fe  Fe81      1.0  0.45732  0.03202  0.95626  1.0000
  S   S164      1.0  0.47699  0.04625  0.93050  1.0000
  C   C591      1.0  0.50862  0.37018  0.85434  1.0000
  Fe  Fe82      1.0  0.42336  0.03869  0.92731  1.0000
  S   S165      1.0  0.44051  0.05329  0.89958  1.0000
  S   S166      1.0  0.39203  0.03359  0.92903  1.0000
  Fe  Fe83      1.0  0.46060  0.01930  0.90930  1.0000
  H   H1012     1.0  0.50279  0.40051  0.91533  1.0000
  Fe  Fe84      1.0  0.45524  0.07924  0.92303  1.0000
  S   S167      1.0  0.46289  0.12469  0.92280  1.0000
  S   S168      1.0  0.44233  0.00315  0.93548  1.0000
  S   S169      1.0  0.43665  0.06652  0.95027  1.0000
  Fe  Fe85      1.0  0.45459  0.27636  0.86178  1.0000
  S   S170      1.0  0.44266  0.29430  0.83184  1.0000
  S   S171      1.0  0.44980  0.22994  0.86326  1.0000
  Fe  Fe86      1.0  0.46421  0.33454  0.87662  1.0000
  S   S172      1.0  0.45246  0.35532  0.84811  1.0000
  S   S173      1.0  0.47797  0.36047  0.90109  1.0000
  Fe  Fe87      1.0  0.42911  0.32611  0.85311  1.0000
  S   S174      1.0  0.39850  0.33832  0.85109  1.0000
  Fe  Fe88      1.0  0.46736  0.32178  0.82977  1.0000
  S   S175      1.0  0.48843  0.32653  0.80211  1.0000
  S   S176      1.0  0.43986  0.30733  0.88295  1.0000
  S   S177      1.0  0.48030  0.30185  0.85834  1.0000
  C   C592      1.0  0.48584  0.27920  0.71027  1.0000
  C   C593      1.0  0.49892  0.12411  0.00002  1.0000
  Fe  Fe89      1.0  0.30973  0.01819  0.85465  1.0000
  S   S178      1.0  0.29781  0.02362  0.88733  1.0000
  S   S179      1.0  0.34123  0.01562  0.84974  1.0000
  H   H1013     1.0  0.47216  0.46223  0.97266  1.0000
  Fe  Fe90      1.0  0.27850  0.05522  0.87314  1.0000
  Fe  Fe91      1.0  0.27756  0.99206  0.87798  1.0000
  C   C594      1.0  0.46409  0.40826  0.98945  1.0000
  S   S180      1.0  0.29147  0.05153  0.84048  1.0000
  H   H1014     1.0  0.50693  0.25962  0.77050  1.0000
  Fe  Fe92      1.0  0.32014  0.30033  0.93070  1.0000
  S   S181      1.0  0.30959  0.28905  0.89915  1.0000
  S   S182      1.0  0.35019  0.31262  0.93376  1.0000
  Fe  Fe93      1.0  0.28207  0.29256  0.95256  1.0000
  Fe  Fe94      1.0  0.29547  0.25420  0.91576  1.0000
  Fe  Fe95      1.0  0.28483  0.31558  0.90807  1.0000
  H   H1015     1.0  0.42950  0.41977  0.97326  1.0000
  S   S183      1.0  0.30743  0.26433  0.94743  1.0000
  S   S184      1.0  0.29616  0.32918  0.93885  1.0000
  S   S185      1.0  0.27114  0.09279  0.89371  1.0000
  C   C595      1.0  0.29048  0.13738  0.87757  1.0000
  C   C596      1.0  0.29693  0.16430  0.87873  1.0000
  H   H1016     1.0  0.29463  0.12448  0.86436  1.0000
  H   H1017     1.0  0.30612  0.17184  0.86637  1.0000
  H   H1018     1.0  0.50250  0.45106  0.91318  1.0000
  C   C597      1.0  0.49223  0.11076  0.96363  1.0000
  N   N42       1.0  0.45948  0.42255  0.96897  1.0000
  H   H1019     1.0  0.47571  0.39297  0.98678  1.0000
  H   H1020     1.0  0.32701  0.47554  0.88973  1.0000
  H   H1021     1.0  0.27859  0.34822  0.98963  1.0000
  H   H1022     1.0  0.44915  0.36333  0.94067  1.0000
  H   H1023     1.0  0.47238  0.18096  0.92706  1.0000
  C   C598      1.0  0.38488  0.33333  0.87430  1.0000
  C   C599      1.0  0.36580  0.32850  0.87272  1.0000
  C   C600      1.0  0.35490  0.32292  0.89089  1.0000
  C   C601      1.0  0.36306  0.32164  0.91077  1.0000
  C   C602      1.0  0.38201  0.32739  0.91241  1.0000
  C   C603      1.0  0.39285  0.33340  0.89427  1.0000
  H   H1024     1.0  0.35947  0.32862  0.85735  1.0000
  H   H1025     1.0  0.34026  0.31939  0.88941  1.0000
  H   H1026     1.0  0.38837  0.32695  0.92775  1.0000
  H   H1027     1.0  0.40738  0.33804  0.89579  1.0000
  C   C604      1.0  0.49284  0.35243  0.78298  1.0000
  Fe  Fe96      1.0  0.27118  0.01767  0.83475  1.0000
  H   H1028     1.0  0.37484  0.18224  0.88966  1.0000
  S   S186      1.0  0.46346  0.02355  0.99114  1.0000
  C   C605      1.0  0.48351  0.39199  0.76189  1.0000
  C   C606      1.0  0.47954  0.37265  0.77788  1.0000
  H   H1029     1.0  0.48782  0.24731  0.75708  1.0000
  H   H1030     1.0  0.33303  0.39735  0.83497  1.0000
  H   H1031     1.0  0.46612  0.37323  0.78607  1.0000
  C   C607      1.0  0.37868  0.02740  0.90662  1.0000
  C   C608      1.0  0.38545  0.03232  0.88608  1.0000
  C   C609      1.0  0.37385  0.02858  0.86872  1.0000
  C   C610      1.0  0.35547  0.02002  0.87180  1.0000
  C   C611      1.0  0.34887  0.01476  0.89232  1.0000
  C   C612      1.0  0.36039  0.01852  0.90964  1.0000
  H   H1032     1.0  0.39948  0.03945  0.88361  1.0000
  H   H1033     1.0  0.37902  0.03282  0.85287  1.0000
  H   H1034     1.0  0.33491  0.00771  0.89492  1.0000
  H   H1035     1.0  0.35505  0.01475  0.92549  1.0000
  C   C613      1.0  0.47722  0.39647  0.89865  1.0000
  C   C614      1.0  0.46264  0.41064  0.88862  1.0000
  C   C615      1.0  0.46236  0.43943  0.88765  1.0000
  C   C616      1.0  0.47657  0.45422  0.89682  1.0000
  C   C617      1.0  0.49114  0.43995  0.90671  1.0000
  C   C618      1.0  0.49138  0.41130  0.90775  1.0000
  H   H1036     1.0  0.45151  0.39947  0.88174  1.0000
  H   H1037     1.0  0.45130  0.45025  0.87947  1.0000
  C   C619      1.0  0.33648  0.38968  0.91366  1.0000
  H   H1038     1.0  0.32141  0.42786  0.84556  1.0000
  C   C620      1.0  0.45859  0.15377  0.90619  1.0000
  C   C621      1.0  0.44918  0.15215  0.88712  1.0000
  C   C622      1.0  0.44663  0.17566  0.87432  1.0000
  C   C623      1.0  0.45335  0.20117  0.88037  1.0000
  C   C624      1.0  0.46246  0.20289  0.89962  1.0000
  C   C625      1.0  0.46509  0.17936  0.91237  1.0000
  H   H1039     1.0  0.44414  0.13271  0.88205  1.0000
  H   H1040     1.0  0.43960  0.17397  0.85947  1.0000
  H   H1041     1.0  0.46769  0.22227  0.90457  1.0000
  N   N43       1.0  0.48172  0.29297  0.73126  1.0000
  C   C626      1.0  0.47993  0.32339  0.72726  1.0000
  C   C627      1.0  0.46326  0.28402  0.74047  1.0000
  H   H1042     1.0  0.46230  0.14096  0.99172  1.0000
  H   H1043     1.0  0.27856  0.36202  0.71610  1.0000
  H   H1044     1.0  0.45380  0.12176  0.96989  1.0000
  C   C628      1.0  0.45772  0.29582  0.76238  1.0000
  C   C629      1.0  0.45699  0.12094  0.98699  1.0000
  H   H1045     1.0  0.27402  0.38392  0.95833  1.0000
  C   C630      1.0  0.51008  0.35180  0.77185  1.0000
  H   H1046     1.0  0.47895  0.33487  0.74236  1.0000
  H   H1047     1.0  0.46272  0.26156  0.74226  1.0000
  H   H1048     1.0  0.45180  0.28940  0.72945  1.0000
  H   H1049     1.0  0.49632  0.99366  0.97367  1.0000
  H   H1050     1.0  0.48474  0.13070  0.96118  1.0000
  C   C631      1.0  0.43605  0.45762  0.98659  1.0000
  C   C632      1.0  0.47340  0.44384  0.96267  1.0000
  C   C633      1.0  0.27585  0.38073  0.88681  1.0000
  H   H1051     1.0  0.43230  0.00632  0.85151  1.0000
  H   H1052     1.0  0.49868  0.42873  0.97896  1.0000
  H   H1053     1.0  0.50182  0.42489  0.86246  1.0000
  C   C634      1.0  0.50786  0.43195  0.84711  1.0000
  H   H1054     1.0  0.44392  0.28796  0.76737  1.0000
  C   C635      1.0  0.32734  0.45292  0.89080  1.0000
  C   C636      1.0  0.46993  0.42590  0.81821  1.0000
  H   H1055     1.0  0.47117  0.44732  0.82312  1.0000
  H   H1056     1.0  0.31413  0.44625  0.88408  1.0000
  H   H1057     1.0  0.43416  0.98689  0.87523  1.0000
  C   C637      1.0  0.45991  0.40169  0.95140  1.0000
  N   N44       1.0  0.33795  0.10807  0.90541  1.0000
  C   C638      1.0  0.32372  0.08591  0.90475  1.0000
  C   C639      1.0  0.34205  0.11656  0.88285  1.0000
  C   C640      1.0  0.32940  0.13178  0.91777  1.0000
  C   C641      1.0  0.35495  0.09637  0.91616  1.0000
  C   C642      1.0  0.31481  0.07756  0.92621  1.0000
  C   C643      1.0  0.35063  0.09415  0.86834  1.0000
  C   C644      1.0  0.33766  0.16016  0.91397  1.0000
  C   C645      1.0  0.37244  0.11394  0.91644  1.0000
  H   H1058     1.0  0.31205  0.09198  0.89426  1.0000
  H   H1059     1.0  0.32990  0.06685  0.89777  1.0000
  H   H1060     1.0  0.35159  0.13389  0.88181  1.0000
  H   H1061     1.0  0.32904  0.12436  0.87537  1.0000
  H   H1062     1.0  0.31432  0.13444  0.91423  1.0000
  H   H1063     1.0  0.32989  0.12765  0.93508  1.0000
  H   H1064     1.0  0.35165  0.09159  0.93301  1.0000
  H   H1065     1.0  0.35921  0.07616  0.90955  1.0000
  H   H1066     1.0  0.32529  0.06951  0.93740  1.0000
  H   H1067     1.0  0.30640  0.09449  0.93353  1.0000
  H   H1068     1.0  0.30493  0.06095  0.92351  1.0000
  H   H1069     1.0  0.34081  0.07748  0.86568  1.0000
  H   H1070     1.0  0.35378  0.10313  0.85255  1.0000
  H   H1071     1.0  0.35278  0.16052  0.91671  1.0000
  H   H1072     1.0  0.33077  0.17489  0.92517  1.0000
  H   H1073     1.0  0.33459  0.16804  0.89791  1.0000
  H   H1074     1.0  0.37227  0.12713  0.93066  1.0000
  H   H1075     1.0  0.37455  0.12648  0.90210  1.0000
  H   H1076     1.0  0.38502  0.10018  0.91696  1.0000
  N   N45       1.0  0.39008  0.24108  0.88689  1.0000
  C   C646      1.0  0.39977  0.26058  0.87198  1.0000
  C   C647      1.0  0.39657  0.24710  0.90886  1.0000
  C   C648      1.0  0.36928  0.24656  0.88547  1.0000
  C   C649      1.0  0.39534  0.21249  0.87988  1.0000
  C   C650      1.0  0.39299  0.26136  0.84899  1.0000
  H   H1077     1.0  0.38685  0.40488  0.88311  1.0000
  C   C651      1.0  0.35684  0.23795  0.90445  1.0000
  H   H1078     1.0  0.45528  0.42017  0.82167  1.0000
  H   H1079     1.0  0.39848  0.28175  0.87804  1.0000
  H   H1080     1.0  0.41498  0.25595  0.87088  1.0000
  H   H1081     1.0  0.38891  0.23547  0.92116  1.0000
  H   H1082     1.0  0.39345  0.26891  0.91287  1.0000
  H   H1083     1.0  0.36625  0.26883  0.88351  1.0000
  H   H1084     1.0  0.36370  0.23676  0.87118  1.0000
  H   H1085     1.0  0.38957  0.20841  0.86409  1.0000
  H   H1086     1.0  0.41069  0.20989  0.87705  1.0000
  H   H1087     1.0  0.37823  0.26851  0.84796  1.0000
  H   H1088     1.0  0.40136  0.27632  0.83988  1.0000
  H   H1089     1.0  0.39512  0.24144  0.84097  1.0000
  S   S187      1.0  0.29077  0.98415  0.84604  1.0000
  C   C652      1.0  0.44010  0.43538  0.96984  1.0000
  H   H1090     1.0  0.42663  0.25409  0.90279  1.0000
  H   H1091     1.0  0.34196  0.24031  0.90005  1.0000
  H   H1092     1.0  0.35864  0.25158  0.91819  1.0000
  H   H1093     1.0  0.40133  0.99194  0.85758  1.0000
  H   H1094     1.0  0.38884  0.19355  0.91122  1.0000
  H   H1095     1.0  0.44549  0.47502  0.98535  1.0000
  H   H1096     1.0  0.47757  0.40443  0.84651  1.0000
  H   H1097     1.0  0.45752  0.41187  0.93586  1.0000
  H   H1098     1.0  0.47787  0.28962  0.69746  1.0000
  H   H1099     1.0  0.36396  0.08570  0.87445  1.0000
  C   C653      1.0  0.27649  0.43782  0.89206  1.0000
  H   H1100     1.0  0.31755  0.40135  0.88051  1.0000
  C   C654      1.0  0.49750  0.28807  0.74628  1.0000
  C   C655      1.0  0.41747  0.24121  0.91273  1.0000
  S   S188      1.0  0.50490  0.41625  0.73074  1.0000
  C   C656      1.0  0.35233  0.39958  0.89876  1.0000
  H   H1101     1.0  0.50707  0.40640  0.79610  1.0000
  H   H1102     1.0  0.44357  0.11766  0.99562  1.0000
  H   H1103     1.0  0.33043  0.37066  0.90767  1.0000
  C   C657      1.0  0.44576  0.37858  0.95325  1.0000
  C   C658      1.0  0.49412  0.43440  0.96288  1.0000
  C   C659      1.0  0.27958  0.17155  0.91146  1.0000
  H   H1104     1.0  0.26522  0.39005  0.85595  1.0000
  C   C660      1.0  0.49602  0.99116  0.99067  1.0000
  H   H1105     1.0  0.47311  0.40755  0.75804  1.0000
  H   H1106     1.0  0.26628  0.44033  0.86037  1.0000
  H   H1107     1.0  0.48748  0.23581  0.72073  1.0000
  H   H1108     1.0  0.35997  0.41417  0.84609  1.0000
  H   H1109     1.0  0.39894  0.17130  0.89229  1.0000
  H   H1110     1.0  0.38290  0.43649  0.86858  1.0000
  H   H1111     1.0  0.48682  0.24105  0.69290  1.0000
  S   S189      1.0  0.47280  0.99047  0.88427  1.0000
  H   H1112     1.0  0.32515  0.40508  0.91627  1.0000
  C   C661      1.0  0.27874  0.12718  0.89353  1.0000
  C   C662      1.0  0.27092  0.42687  0.87292  1.0000
  C   C663      1.0  0.47074  0.09697  0.99169  1.0000
  C   C664      1.0  0.48119  0.24879  0.70834  1.0000
  H   H1113     1.0  0.35675  0.45124  0.88527  1.0000
  H   H1114     1.0  0.46588  0.24598  0.70825  1.0000
  C   C665      1.0  0.28254  0.42019  0.90818  1.0000
  H   H1115     1.0  0.50124  0.46944  0.82820  1.0000
  C   C666      1.0  0.50071  0.39123  0.75065  1.0000
  C   C667      1.0  0.38888  0.18885  0.89418  1.0000
  H   H1116     1.0  0.47052  0.45177  0.94648  1.0000
  H   H1117     1.0  0.32798  0.44764  0.90777  1.0000
  C   C668      1.0  0.28256  0.39175  0.90542  1.0000
  H   H1118     1.0  0.50489  0.29705  0.66858  1.0000
  H   H1119     1.0  0.49610  0.30168  0.76024  1.0000
  C   C669      1.0  0.50054  0.46162  0.84457  1.0000
  H   H1120     1.0  0.36179  0.38129  0.89686  1.0000
  H   H1121     1.0  0.47207  0.42439  0.80082  1.0000
  H   H1122     1.0  0.44645  0.36757  0.96855  1.0000
  H   H1123     1.0  0.50086  0.28098  0.70570  1.0000
  H   H1124     1.0  0.34362  0.45058  0.86200  1.0000
  N   N46       1.0  0.34694  0.41108  0.87738  1.0000
  C   C670      1.0  0.36267  0.40458  0.86175  1.0000
  C   C671      1.0  0.32974  0.39741  0.86973  1.0000
  H   H1125     1.0  0.36049  0.41451  0.90768  1.0000
  C   C672      1.0  0.27324  0.14454  0.91037  1.0000
  H   H1126     1.0  0.35916  0.21647  0.90923  1.0000
  C   C673      1.0  0.27034  0.39840  0.87044  1.0000
  H   H1127     1.0  0.36382  0.38222  0.85881  1.0000
  C   C674      1.0  0.26740  0.37804  0.71491  1.0000
  H   H1128     1.0  0.39252  0.40687  0.85565  1.0000
  H   H1129     1.0  0.33199  0.37480  0.86980  1.0000
  H   H1130     1.0  0.47381  0.39120  0.94992  1.0000
  H   H1131     1.0  0.49740  0.41727  0.95202  1.0000
  S   S190      1.0  0.26934  0.28004  0.92170  1.0000
  C   C675      1.0  0.32332  0.40552  0.84743  1.0000
  H   H1132     1.0  0.48095  0.38564  0.82274  1.0000
  H   H1133     1.0  0.42047  0.24604  0.92943  1.0000
  H   H1134     1.0  0.42138  0.21939  0.91031  1.0000
  C   C676      1.0  0.48312  0.40595  0.82998  1.0000
  C   C677      1.0  0.50074  0.25873  0.75456  1.0000
  H   H1135     1.0  0.49626  0.05970  0.97812  1.0000
  H   H1136     1.0  0.30954  0.39644  0.84473  1.0000
  H   H1137     1.0  0.28707  0.42857  0.92293  1.0000
  H   H1138     1.0  0.34235  0.38445  0.92932  1.0000
  H   H1139     1.0  0.51085  0.12524  0.93872  1.0000
  C   C678      1.0  0.34443  0.44175  0.87823  1.0000
  S   S191      1.0  0.30147  0.21456  0.89699  1.0000
  H   H1140     1.0  0.27538  0.18445  0.92464  1.0000
  C   C679      1.0  0.29159  0.18158  0.89569  1.0000
  C   C680      1.0  0.38220  0.41393  0.86796  1.0000
  N   N47       1.0  0.50364  0.41218  0.82979  1.0000
  H   H1141     1.0  0.28710  0.37846  0.91800  1.0000
  H   H1142     1.0  0.48518  0.09590  0.95348  1.0000
  H   H1143     1.0  0.49670  0.14464  0.99270  1.0000
  H   H1144     1.0  0.43131  0.38606  0.95035  1.0000
  S   S192      1.0  0.27269  0.34531  0.88417  1.0000
  S   S193      1.0  0.27500  0.47325  0.89671  1.0000
  H   H1145     1.0  0.43661  0.44438  0.95414  1.0000
  H   H1146     1.0  0.46771  0.28916  0.77463  1.0000
  H   H1147     1.0  0.45627  0.31839  0.76227  1.0000
  H   H1148     1.0  0.46680  0.32860  0.71886  1.0000
  H   H1149     1.0  0.50162  0.44034  0.80300  1.0000
  H   H1150     1.0  0.50285  0.45154  0.95742  1.0000
  C   C681      1.0  0.50200  0.07552  0.98861  1.0000
  H   H1151     1.0  0.41304  0.98801  0.89958  1.0000
  H   H1152     1.0  0.49390  0.36398  0.85426  1.0000
  H   H1153     1.0  0.26543  0.36497  0.78452  1.0000
  H   H1154     1.0  0.42178  0.46634  0.98418  1.0000
  H   H1155     1.0  0.45205  0.39619  0.99517  1.0000
  H   H1156     1.0  0.51053  0.24704  0.74394  1.0000
  H   H1157     1.0  0.46596  0.07934  0.98245  1.0000
  H   H1158     1.0  0.27424  0.39687  0.70924  1.0000
  N   N48       1.0  0.49099  0.10207  0.98654  1.0000
  H   H1159     1.0  0.26973  0.38862  0.74705  1.0000
  H   H1160     1.0  0.26411  0.13696  0.92278  1.0000
  H   H1161     1.0  0.27188  0.34012  0.75431  1.0000
  H   H1162     1.0  0.27395  0.30641  0.72965  1.0000
  S   S194      1.0  0.26245  0.29457  0.98190  1.0000
  C   C682      1.0  0.26281  0.47460  0.75462  1.0000
  C   C683      1.0  0.43105  0.98549  0.85830  1.0000
  H   H1163     1.0  0.48604  0.46400  0.85094  1.0000
  H   H1164     1.0  0.50945  0.47533  0.85365  1.0000
  H   H1165     1.0  0.51116  0.38195  0.86885  1.0000
  H   H1166     1.0  0.49663  0.32873  0.69773  1.0000
  C   C684      1.0  0.49594  0.33625  0.71420  1.0000
  C   C685      1.0  0.50979  0.42210  0.80819  1.0000
  H   H1167     1.0  0.49328  0.35866  0.71317  1.0000
  H   H1168     1.0  0.50969  0.33315  0.72158  1.0000
  H   H1169     1.0  0.51098  0.29399  0.73883  1.0000
  H   H1170     1.0  0.49837  0.63407  0.01053  1.0000
  H   H1171     1.0  0.48319  0.96297  0.30629  1.0000
  C   C686      1.0  0.28191  0.73487  0.13174  1.0000
  S   S195      1.0  0.47201  0.56422  0.29013  1.0000
  C   C687      1.0  0.51040  0.97289  0.02283  1.0000
  H   H1172     1.0  0.46801  0.83687  0.01653  1.0000
  H   H1173     1.0  0.30863  0.78931  0.18179  1.0000
  H   H1174     1.0  0.48865  0.71308  0.30657  1.0000
  H   H1175     1.0  0.44353  0.61525  0.20922  1.0000
  C   C688      1.0  0.47310  0.59199  0.18716  1.0000
  C   C689      1.0  0.48120  0.59272  0.27634  1.0000
  C   C690      1.0  0.47157  0.61791  0.27548  1.0000
  C   C691      1.0  0.47857  0.63924  0.26279  1.0000
  H   H1176     1.0  0.45503  0.56230  0.23263  1.0000
  H   H1177     1.0  0.47550  0.90854  0.02609  1.0000
  H   H1178     1.0  0.50635  0.91801  0.00295  1.0000
  H   H1179     1.0  0.45856  0.62078  0.28429  1.0000
  C   C692      1.0  0.49496  0.64318  0.32274  1.0000
  C   C693      1.0  0.49791  0.58927  0.26443  1.0000
  H   H1180     1.0  0.32389  0.76450  0.16871  1.0000
  H   H1181     1.0  0.30236  0.73014  0.16976  1.0000
  C   C694      1.0  0.29612  0.74976  0.17570  1.0000
  H   H1182     1.0  0.28030  0.77691  0.14055  1.0000
  H   H1183     1.0  0.43170  0.58318  0.20691  1.0000
  N   N49       1.0  0.47078  0.56985  0.20357  1.0000
  H   H1184     1.0  0.47759  0.62435  0.21101  1.0000
  S   S196      1.0  0.43251  0.53303  0.32804  1.0000
  N   N50       1.0  0.50981  0.66428  0.32029  1.0000
  H   H1185     1.0  0.47389  0.51074  0.04151  1.0000
  C   C695      1.0  0.50021  0.58086  0.01445  1.0000
  H   H1186     1.0  0.46006  0.86995  0.02552  1.0000
  H   H1187     1.0  0.26790  0.92256  0.05558  1.0000
  H   H1188     1.0  0.45699  0.53099  0.20581  1.0000
  H   H1189     1.0  0.28226  0.81155  0.16823  1.0000
  H   H1190     1.0  0.45638  0.84123  0.04201  1.0000
  H   H1191     1.0  0.29717  0.47855  0.07638  1.0000
  C   C696      1.0  0.48512  0.50211  0.01028  1.0000
  C   C697      1.0  0.46649  0.85029  0.03060  1.0000
  H   H1192     1.0  0.49347  0.83400  0.03786  1.0000
  H   H1193     1.0  0.48775  0.87605  0.00200  1.0000
  S   S197      1.0  0.50960  0.68045  0.17589  1.0000
  H   H1194     1.0  0.46271  0.59897  0.00824  1.0000
  C   C698      1.0  0.49520  0.63568  0.25073  1.0000
  H   H1195     1.0  0.27889  0.71467  0.20558  1.0000
  H   H1196     1.0  0.45976  0.59728  0.17925  1.0000
  S   S198      1.0  0.26557  0.76045  0.29490  1.0000
  C   C699      1.0  0.26664  0.77678  0.18180  1.0000
  H   H1197     1.0  0.49465  0.56016  0.01227  1.0000
  H   H1198     1.0  0.46303  0.89346  0.06074  1.0000
  H   H1199     1.0  0.47094  0.65856  0.26211  1.0000
  H   H1200     1.0  0.50870  0.66293  0.28617  1.0000
  C   C700      1.0  0.48468  0.49985  0.03248  1.0000
  H   H1201     1.0  0.27240  0.96391  0.02871  1.0000
  H   H1202     1.0  0.49714  0.48139  0.06020  1.0000
  C   C701      1.0  0.46120  0.54626  0.19363  1.0000
  H   H1203     1.0  0.26697  0.89024  0.04265  1.0000
  H   H1204     1.0  0.50547  0.56988  0.26497  1.0000
  H   H1205     1.0  0.44795  0.55335  0.18634  1.0000
  H   H1206     1.0  0.26675  0.80829  0.03466  1.0000
  H   H1207     1.0  0.48104  0.65310  0.32589  1.0000
  H   H1208     1.0  0.49648  0.57865  0.21895  1.0000
  C   C702      1.0  0.48190  0.61852  0.19474  1.0000
  H   H1209     1.0  0.26390  0.49692  0.12379  1.0000
  C   C703      1.0  0.44079  0.59533  0.21693  1.0000
  C   C704      1.0  0.26503  0.72050  0.19931  1.0000
  C   C705      1.0  0.50493  0.61063  0.25179  1.0000
  H   H1210     1.0  0.29713  0.74760  0.19316  1.0000
  H   H1211     1.0  0.27217  0.77795  0.19809  1.0000
  H   H1212     1.0  0.49934  0.55604  0.19776  1.0000
  H   H1213     1.0  0.47720  0.63585  0.18461  1.0000
  H   H1214     1.0  0.46377  0.51421  0.16996  1.0000
  H   H1215     1.0  0.47065  0.92776  0.06263  1.0000
  C   C706      1.0  0.45905  0.57971  0.22226  1.0000
  H   H1216     1.0  0.48515  0.51822  0.22016  1.0000
  C   C707      1.0  0.28315  0.48255  0.04704  1.0000
  H   H1217     1.0  0.47615  0.54382  0.16250  1.0000
  C   C708      1.0  0.48979  0.56131  0.21120  1.0000
  C   C709      1.0  0.30936  0.77294  0.16970  1.0000
  C   C710      1.0  0.48962  0.69500  0.29609  1.0000
  H   H1218     1.0  0.33139  0.66025  0.32428  1.0000
  C   C711      1.0  0.48549  0.85329  0.04132  1.0000
  H   H1219     1.0  0.48465  0.90059  0.07344  1.0000
  H   H1220     1.0  0.49735  0.61679  0.19387  1.0000
  H   H1221     1.0  0.48233  0.54209  0.24186  1.0000
  C   C712      1.0  0.49028  0.53726  0.22705  1.0000
  H   H1222     1.0  0.49535  0.92161  0.03757  1.0000
  H   H1223     1.0  0.28421  0.48124  0.13433  1.0000
  H   H1224     1.0  0.28051  0.50608  0.07588  1.0000
  H   H1225     1.0  0.27302  0.70096  0.29486  1.0000
  H   H1226     1.0  0.43291  0.59986  0.23189  1.0000
  N   N51       1.0  0.49657  0.87757  0.03446  1.0000
  H   H1227     1.0  0.28097  0.74172  0.11501  1.0000
  H   H1228     1.0  0.46709  0.59296  0.23273  1.0000
  H   H1229     1.0  0.26496  0.92243  0.01499  1.0000
  H   H1230     1.0  0.48233  0.58469  0.17389  1.0000
  H   H1231     1.0  0.30694  0.78186  0.15391  1.0000
  C   C713      1.0  0.47554  0.90627  0.06015  1.0000
  S   S199      1.0  0.30812  0.78522  0.33023  1.0000
  C   C714      1.0  0.27392  0.75781  0.14617  1.0000
  H   H1232     1.0  0.49324  0.63179  0.30785  1.0000
  C   C715      1.0  0.48587  0.90406  0.03855  1.0000
  C   C716      1.0  0.47246  0.53065  0.17617  1.0000
  Fe  Fe97      1.0  0.28203  0.76101  0.32571  1.0000
  H   H1233     1.0  0.50497  0.53306  0.23154  1.0000
  H   H1234     1.0  0.39518  0.80590  0.32864  1.0000
  N   N52       1.0  0.27601  0.75345  0.16964  1.0000
  H   H1235     1.0  0.48936  0.70271  0.27954  1.0000
  C   C717      1.0  0.26781  0.80563  0.17203  1.0000
  H   H1236     1.0  0.47711  0.68248  0.29851  1.0000
  Fe  Fe98      1.0  0.45567  0.56242  0.32175  1.0000
  C   C718      1.0  0.50086  0.87522  0.01111  1.0000
  S   S200      1.0  0.50369  0.66360  0.23564  1.0000
  H   H1237     1.0  0.28661  0.50282  0.11162  1.0000
  H   H1238     1.0  0.29680  0.73003  0.13469  1.0000
  H   H1239     1.0  0.27282  0.70945  0.16772  1.0000
  H   H1240     1.0  0.28588  0.70905  0.00347  1.0000
  H   H1241     1.0  0.30791  0.65112  0.32867  1.0000
  C   C719      1.0  0.50786  0.67820  0.29913  1.0000
  C   C720      1.0  0.27761  0.48744  0.11927  1.0000
  H   H1242     1.0  0.28644  0.50295  0.04042  1.0000
  H   H1243     1.0  0.48526  0.52041  0.18221  1.0000
  C   C721      1.0  0.26608  0.72759  0.17551  1.0000
  H   H1244     1.0  0.27356  0.71617  0.13306  1.0000
  H   H1245     1.0  0.48333  0.85259  0.05882  1.0000
  H   H1246     1.0  0.50745  0.85500  0.00720  1.0000
  C   C722      1.0  0.49788  0.48323  0.04315  1.0000
  C   C723      1.0  0.28274  0.48423  0.07149  1.0000
  H   H1247     1.0  0.48977  0.59148  0.02501  1.0000
  C   C724      1.0  0.26438  0.70617  0.28156  1.0000
  C   C725      1.0  0.51044  0.97624  0.00071  1.0000
  H   H1248     1.0  0.51085  0.87733  0.06427  1.0000
  H   H1249     1.0  0.26190  0.66433  0.27154  1.0000
  H   H1250     1.0  0.26184  0.82077  0.18351  1.0000
  H   H1251     1.0  0.51127  0.95156  0.31892  1.0000
  C   C726      1.0  0.38790  0.80467  0.34429  1.0000
  Fe  Fe99      1.0  0.46356  0.78831  0.44298  1.0000
  S   S201      1.0  0.47519  0.80212  0.41107  1.0000
  S   S202      1.0  0.48193  0.79133  0.47227  1.0000
  Fe  Fe100     1.0  0.42585  0.77541  0.42409  1.0000
  S   S203      1.0  0.43506  0.78802  0.39175  1.0000
  S   S204      1.0  0.39657  0.75988  0.42934  1.0000
  Fe  Fe101     1.0  0.46146  0.76467  0.39886  1.0000
  S   S205      1.0  0.47181  0.73541  0.37328  1.0000
  Fe  Fe102     1.0  0.44753  0.82468  0.40679  1.0000
  S   S206      1.0  0.43829  0.86388  0.38886  1.0000
  S   S207      1.0  0.45153  0.74972  0.43062  1.0000
  S   S208      1.0  0.43662  0.81316  0.43932  1.0000
  C   C727      1.0  0.39257  0.67453  0.41698  1.0000
  C   C728      1.0  0.27438  0.88009  0.38110  1.0000
  Fe  Fe103     1.0  0.41903  0.56531  0.34879  1.0000
  S   S209      1.0  0.43318  0.55065  0.37796  1.0000
  S   S210      1.0  0.38766  0.57287  0.35014  1.0000
  S   S211      1.0  0.47187  0.54670  0.34964  1.0000
  Fe  Fe104     1.0  0.44773  0.51920  0.35716  1.0000
  C   C729      1.0  0.40861  0.50208  0.40648  1.0000
  Fe  Fe105     1.0  0.45553  0.57951  0.36758  1.0000
  S   S212      1.0  0.46749  0.60811  0.39154  1.0000
  H   H1252     1.0  0.32500  0.59198  0.36133  1.0000
  H   H1253     1.0  0.32768  0.68275  0.35525  1.0000
  Fe  Fe106     1.0  0.28250  0.50330  0.43240  1.0000
  S   S213      1.0  0.29830  0.51737  0.46057  1.0000
  H   H1254     1.0  0.50435  0.76646  0.56302  1.0000
  Fe  Fe107     1.0  0.27614  0.56302  0.41774  1.0000
  S   S214      1.0  0.29123  0.58072  0.44489  1.0000
  H   H1255     1.0  0.27139  0.49518  0.60442  1.0000
  Fe  Fe108     1.0  0.31211  0.54657  0.43779  1.0000
  S   S215      1.0  0.34322  0.55443  0.43695  1.0000
  Fe  Fe109     1.0  0.27583  0.55025  0.46522  1.0000
  S   S216      1.0  0.29778  0.53039  0.40950  1.0000
  Fe  Fe110     1.0  0.31813  0.74953  0.34982  1.0000
  S   S217      1.0  0.30589  0.76628  0.37985  1.0000
  S   S218      1.0  0.34797  0.73306  0.34973  1.0000
  Fe  Fe111     1.0  0.29459  0.80130  0.36043  1.0000
  Fe  Fe112     1.0  0.28071  0.74312  0.37146  1.0000
  H   H1256     1.0  0.28388  0.58491  0.57702  1.0000
  C   C730      1.0  0.38367  0.88726  0.37349  1.0000
  H   H1257     1.0  0.38579  0.48382  0.35145  1.0000
  C   C731      1.0  0.29204  0.55948  0.55077  1.0000
  C   C732      1.0  0.36468  0.65389  0.35724  1.0000
  H   H1258     1.0  0.42404  0.94841  0.40466  1.0000
  H   H1259     1.0  0.36581  0.67143  0.43369  1.0000
  H   H1260     1.0  0.38689  0.66091  0.40480  1.0000
  H   H1261     1.0  0.46827  0.82938  0.61103  1.0000
  H   H1262     1.0  0.30317  0.54748  0.55872  1.0000
  H   H1263     1.0  0.49312  0.69934  0.65285  1.0000
  S   S219      1.0  0.51106  0.68730  0.60062  1.0000
  C   C733      1.0  0.32188  0.66207  0.35754  1.0000
  H   H1264     1.0  0.50830  0.65761  0.64051  1.0000
  C   C734      1.0  0.37295  0.48397  0.43789  1.0000
  H   H1265     1.0  0.26534  0.86519  0.37458  1.0000
  C   C735      1.0  0.35530  0.55983  0.41268  1.0000
  C   C736      1.0  0.34672  0.55646  0.39328  1.0000
  C   C737      1.0  0.35686  0.56024  0.37424  1.0000
  C   C738      1.0  0.37564  0.56739  0.37440  1.0000
  C   C739      1.0  0.38422  0.57092  0.39379  1.0000
  C   C740      1.0  0.37410  0.56706  0.41284  1.0000
  H   H1266     1.0  0.33232  0.55076  0.39290  1.0000
  H   H1267     1.0  0.35019  0.55731  0.35929  1.0000
  H   H1268     1.0  0.39859  0.57693  0.39410  1.0000
  H   H1269     1.0  0.38085  0.56969  0.42779  1.0000
  C   C741      1.0  0.38334  0.75197  0.40711  1.0000
  C   C742      1.0  0.39169  0.74807  0.38711  1.0000
  C   C743      1.0  0.38078  0.74161  0.36974  1.0000
  C   C744      1.0  0.36139  0.73964  0.37210  1.0000
  C   C745      1.0  0.35310  0.74289  0.39219  1.0000
  C   C746      1.0  0.36405  0.74883  0.40964  1.0000
  H   H1270     1.0  0.40658  0.74980  0.38498  1.0000
  H   H1271     1.0  0.38737  0.73870  0.35432  1.0000
  H   H1272     1.0  0.33830  0.74048  0.39440  1.0000
  H   H1273     1.0  0.35751  0.75135  0.42511  1.0000
  C   C747      1.0  0.46998  0.70034  0.37896  1.0000
  C   C748      1.0  0.46275  0.68308  0.36376  1.0000
  C   C749      1.0  0.46183  0.65488  0.36751  1.0000
  C   C750      1.0  0.46836  0.64356  0.38637  1.0000
  C   C751      1.0  0.47558  0.66084  0.40160  1.0000
  C   C752      1.0  0.47633  0.68916  0.39796  1.0000
  H   H1274     1.0  0.45779  0.69160  0.34904  1.0000
  H   H1275     1.0  0.45622  0.64198  0.35568  1.0000
  H   H1276     1.0  0.48071  0.65230  0.41624  1.0000
  H   H1277     1.0  0.48211  0.70229  0.40970  1.0000
  C   C753      1.0  0.44711  0.89748  0.38613  1.0000
  C   C754      1.0  0.43989  0.91490  0.37031  1.0000
  C   C755      1.0  0.44573  0.94210  0.36812  1.0000
  C   C756      1.0  0.45866  0.95246  0.38203  1.0000
  C   C757      1.0  0.46605  0.93495  0.39765  1.0000
  C   C758      1.0  0.46035  0.90767  0.39970  1.0000
  H   H1278     1.0  0.42973  0.90723  0.35961  1.0000
  H   H1279     1.0  0.27439  0.83848  0.41803  1.0000
  H   H1280     1.0  0.47614  0.94260  0.40844  1.0000
  H   H1281     1.0  0.46605  0.89463  0.41195  1.0000
  C   C759      1.0  0.49028  0.76551  0.49004  1.0000
  C   C760      1.0  0.48136  0.74068  0.49286  1.0000
  C   C761      1.0  0.48740  0.72197  0.50853  1.0000
  H   H1282     1.0  0.39133  0.80513  0.38983  1.0000
  H   H1283     1.0  0.31995  0.89045  0.39086  1.0000
  H   H1284     1.0  0.35759  0.62332  0.38045  1.0000
  H   H1285     1.0  0.46956  0.73612  0.48328  1.0000
  H   H1286     1.0  0.48016  0.70307  0.51076  1.0000
  H   H1287     1.0  0.38379  0.65107  0.44559  1.0000
  H   H1288     1.0  0.30643  0.58721  0.37986  1.0000
  H   H1289     1.0  0.37159  0.84184  0.34026  1.0000
  H   H1290     1.0  0.41420  0.63611  0.39682  1.0000
  C   C762      1.0  0.28072  0.81753  0.41938  1.0000
  H   H1291     1.0  0.31174  0.66805  0.41329  1.0000
  H   H1292     1.0  0.37625  0.64180  0.34948  1.0000
  H   H1293     1.0  0.48154  0.84946  0.59252  1.0000
  C   C763      1.0  0.30011  0.82051  0.42905  1.0000
  H   H1294     1.0  0.30704  0.66568  0.36245  1.0000
  H   H1295     1.0  0.30308  0.61109  0.35895  1.0000
  H   H1296     1.0  0.37247  0.50672  0.40851  1.0000
  N   N53       1.0  0.33221  0.64694  0.37473  1.0000
  S   S220      1.0  0.26568  0.58883  0.39040  1.0000
  C   C764      1.0  0.32036  0.62521  0.38476  1.0000
  H   H1297     1.0  0.47473  0.65406  0.63927  1.0000
  H   H1298     1.0  0.49774  0.74561  0.59821  1.0000
  H   H1299     1.0  0.40394  0.93683  0.39323  1.0000
  H   H1300     1.0  0.44018  0.95507  0.35577  1.0000
  H   H1301     1.0  0.40338  0.94462  0.44130  1.0000
  H   H1302     1.0  0.39992  0.52286  0.43597  1.0000
  C   C765      1.0  0.26945  0.66936  0.37583  1.0000
  H   H1303     1.0  0.30737  0.63422  0.39198  1.0000
  C   C766      1.0  0.50561  0.77095  0.50277  1.0000
  H   H1304     1.0  0.28769  0.55180  0.60311  1.0000
  H   H1305     1.0  0.31046  0.69224  0.39147  1.0000
  H   H1306     1.0  0.32794  0.61487  0.39791  1.0000
  H   H1307     1.0  0.30664  0.93519  0.40327  1.0000
  C   C767      1.0  0.27980  0.53627  0.59449  1.0000
  H   H1308     1.0  0.41471  0.91652  0.42903  1.0000
  C   C768      1.0  0.50722  0.68438  0.33816  1.0000
  H   H1309     1.0  0.30898  0.80187  0.42633  1.0000
  H   H1310     1.0  0.28363  0.81079  0.40283  1.0000
  H   H1311     1.0  0.26887  0.63116  0.35906  1.0000
  N   N54       1.0  0.37487  0.83653  0.37411  1.0000
  H   H1312     1.0  0.41909  0.49786  0.43909  1.0000
  C   C769      1.0  0.36849  0.86588  0.37706  1.0000
  C   C770      1.0  0.35829  0.81842  0.37657  1.0000
  C   C771      1.0  0.39026  0.82776  0.38881  1.0000
  H   H1313     1.0  0.35845  0.66737  0.34503  1.0000
  H   H1314     1.0  0.28460  0.76231  0.42401  1.0000
  C   C772      1.0  0.34814  0.81844  0.39825  1.0000
  C   C773      1.0  0.38913  0.83875  0.41173  1.0000
  H   H1315     1.0  0.39665  0.88207  0.38199  1.0000
  C   C774      1.0  0.38870  0.49298  0.36701  1.0000
  H   H1316     1.0  0.36231  0.86966  0.39298  1.0000
  H   H1317     1.0  0.35690  0.87109  0.36615  1.0000
  H   H1318     1.0  0.30731  0.83753  0.42090  1.0000
  H   H1319     1.0  0.36245  0.79676  0.37379  1.0000
  H   H1320     1.0  0.27056  0.68148  0.36160  1.0000
  H   H1321     1.0  0.34867  0.61783  0.35539  1.0000
  H   H1322     1.0  0.49761  0.80682  0.53505  1.0000
  H   H1323     1.0  0.26439  0.87612  0.63078  1.0000
  N   N55       1.0  0.26737  0.79842  0.43032  1.0000
  H   H1324     1.0  0.38299  0.68775  0.44866  1.0000
  C   C775      1.0  0.31357  0.60282  0.37006  1.0000
  H   H1325     1.0  0.34767  0.82372  0.36448  1.0000
  H   H1326     1.0  0.34240  0.83885  0.40276  1.0000
  H   H1327     1.0  0.35714  0.80965  0.41071  1.0000
  H   H1328     1.0  0.33601  0.80495  0.39732  1.0000
  H   H1329     1.0  0.39366  0.82217  0.42268  1.0000
  H   H1330     1.0  0.37519  0.84582  0.41743  1.0000
  H   H1331     1.0  0.39930  0.85517  0.41376  1.0000
  H   H1332     1.0  0.37584  0.50414  0.37246  1.0000
  C   C776      1.0  0.26835  0.68212  0.39557  1.0000
  C   C777      1.0  0.26697  0.66598  0.41389  1.0000
  H   H1333     1.0  0.29096  0.52445  0.58579  1.0000
  C   C778      1.0  0.26688  0.90548  0.38826  1.0000
  C   C779      1.0  0.33665  0.66702  0.39183  1.0000
  H   H1334     1.0  0.32508  0.69799  0.41327  1.0000
  H   H1335     1.0  0.42283  0.52987  0.42667  1.0000
  H   H1336     1.0  0.47731  0.76656  0.60202  1.0000
  H   H1337     1.0  0.44830  0.81112  0.54170  1.0000
  H   H1338     1.0  0.46676  0.80701  0.52171  1.0000
  C   C780      1.0  0.38084  0.67072  0.43752  1.0000
  H   H1339     1.0  0.38705  0.88997  0.35642  1.0000
  H   H1340     1.0  0.47885  0.74147  0.58082  1.0000
  H   H1341     1.0  0.34496  0.65676  0.40442  1.0000
  C   C781      1.0  0.40363  0.93250  0.42663  1.0000
  H   H1342     1.0  0.29877  0.57709  0.54287  1.0000
  H   H1343     1.0  0.50004  0.63122  0.35601  1.0000
  C   C782      1.0  0.27838  0.92571  0.39626  1.0000
  H   H1344     1.0  0.40109  0.68902  0.37748  1.0000
  H   H1345     1.0  0.29949  0.82542  0.44605  1.0000
  C   C783      1.0  0.50246  0.72766  0.52159  1.0000
  H   H1346     1.0  0.39010  0.92235  0.42489  1.0000
  C   C784      1.0  0.40862  0.94914  0.40669  1.0000
  S   S221      1.0  0.29359  0.72385  0.34244  1.0000
  N   N56       1.0  0.26642  0.54934  0.57916  1.0000
  S   S222      1.0  0.26783  0.71812  0.39782  1.0000
  C   C785      1.0  0.41262  0.51332  0.42853  1.0000
  H   H1347     1.0  0.50565  0.78880  0.58444  1.0000
  H   H1348     1.0  0.26450  0.57812  0.61866  1.0000
  H   H1349     1.0  0.44977  0.78165  0.52518  1.0000
  H   H1350     1.0  0.32596  0.62701  0.33471  1.0000
  H   H1351     1.0  0.28610  0.54726  0.53795  1.0000
  C   C786      1.0  0.31982  0.68186  0.40286  1.0000
  H   H1352     1.0  0.36348  0.50123  0.44279  1.0000
  H   H1353     1.0  0.40004  0.50759  0.36400  1.0000
  C   C787      1.0  0.50180  0.64730  0.65443  1.0000
  H   H1354     1.0  0.40265  0.51980  0.39771  1.0000
  S   S223      1.0  0.50818  0.70417  0.54233  1.0000
  H   H1355     1.0  0.42137  0.66700  0.37232  1.0000
  H   H1356     1.0  0.46078  0.82828  0.57057  1.0000
  C   C788      1.0  0.30509  0.89450  0.39011  1.0000
  C   C789      1.0  0.48255  0.63761  0.64768  1.0000
  H   H1357     1.0  0.39792  0.61751  0.42829  1.0000
  H   H1358     1.0  0.37107  0.66661  0.36939  1.0000
  H   H1359     1.0  0.40402  0.83412  0.38221  1.0000
  C   C790      1.0  0.27171  0.51616  0.61092  1.0000
  C   C791      1.0  0.35052  0.63410  0.36714  1.0000
  C   C792      1.0  0.38213  0.83379  0.35157  1.0000
  H   H1360     1.0  0.49078  0.81803  0.60371  1.0000
  H   H1361     1.0  0.28064  0.51571  0.62504  1.0000
  S   S224      1.0  0.26769  0.77949  0.35485  1.0000
  H   H1362     1.0  0.27361  0.51675  0.35902  1.0000
  H   H1363     1.0  0.49562  0.96957  0.34933  1.0000
  H   H1364     1.0  0.45864  0.79916  0.58629  1.0000
  H   H1365     1.0  0.26703  0.58329  0.55709  1.0000
  H   H1366     1.0  0.47406  0.63002  0.66120  1.0000
  S   S225      1.0  0.44040  0.59624  0.33949  1.0000
  H   H1367     1.0  0.38539  0.48524  0.44773  1.0000
  C   C793      1.0  0.26716  0.62464  0.39274  1.0000
  H   H1368     1.0  0.26825  0.48743  0.38933  1.0000
  C   C794      1.0  0.29358  0.87440  0.38195  1.0000
  N   N57       1.0  0.39593  0.47812  0.40550  1.0000
  N   N58       1.0  0.41355  0.67059  0.41828  1.0000
  C   C795      1.0  0.42245  0.68961  0.40241  1.0000
  C   C796      1.0  0.42015  0.67843  0.43987  1.0000
  C   C797      1.0  0.47823  0.82827  0.59733  1.0000
  C   C798      1.0  0.41953  0.64178  0.41252  1.0000
  H   H1369     1.0  0.48460  0.62053  0.63628  1.0000
  C   C799      1.0  0.44133  0.67538  0.44346  1.0000
  C   C800      1.0  0.26850  0.64080  0.37441  1.0000
  C   C801      1.0  0.41328  0.61925  0.42789  1.0000
  H   H1370     1.0  0.41979  0.71130  0.40710  1.0000
  H   H1371     1.0  0.43780  0.68666  0.40197  1.0000
  H   H1372     1.0  0.41349  0.66615  0.45257  1.0000
  H   H1373     1.0  0.41596  0.70009  0.44332  1.0000
  H   H1374     1.0  0.40402  0.95712  0.36231  1.0000
  H   H1375     1.0  0.37500  0.96103  0.39468  1.0000
  H   H1376     1.0  0.42285  0.70304  0.36964  1.0000
  H   H1377     1.0  0.43497  0.63995  0.41081  1.0000
  H   H1378     1.0  0.27244  0.60993  0.50289  1.0000
  H   H1379     1.0  0.26541  0.62515  0.42675  1.0000
  C   C802      1.0  0.49297  0.81698  0.55002  1.0000
  H   H1380     1.0  0.44950  0.68946  0.43342  1.0000
  H   H1381     1.0  0.44416  0.68091  0.46007  1.0000
  H   H1382     1.0  0.44667  0.65414  0.44118  1.0000
  C   C803      1.0  0.27686  0.57048  0.56648  1.0000
  H   H1383     1.0  0.42234  0.49687  0.39863  1.0000
  H   H1384     1.0  0.27498  0.73460  0.45473  1.0000
  H   H1385     1.0  0.41852  0.62215  0.44403  1.0000
  H   H1386     1.0  0.41924  0.59936  0.42220  1.0000
  H   H1387     1.0  0.38880  0.69565  0.41172  1.0000
  C   C804      1.0  0.41636  0.68666  0.37927  1.0000
  C   C805      1.0  0.29759  0.91997  0.39717  1.0000
  C   C806      1.0  0.46931  0.81273  0.57916  1.0000
  H   H1388     1.0  0.27074  0.51342  0.55944  1.0000
  C   C807      1.0  0.26848  0.49600  0.35596  1.0000
  N   N59       1.0  0.48223  0.79743  0.56392  1.0000
  C   C808      1.0  0.47035  0.78050  0.54987  1.0000
  C   C809      1.0  0.49554  0.77797  0.57488  1.0000
  H   H1389     1.0  0.49271  0.69289  0.33879  1.0000
  S   S226      1.0  0.30400  0.84264  0.37327  1.0000
  C   C810      1.0  0.45819  0.79641  0.53389  1.0000
  C   C811      1.0  0.48650  0.75686  0.58974  1.0000
  H   H1390     1.0  0.48387  0.83461  0.54519  1.0000
  H   H1391     1.0  0.28091  0.48296  0.35172  1.0000
  H   H1392     1.0  0.47917  0.76583  0.54048  1.0000
  H   H1393     1.0  0.46073  0.76766  0.55942  1.0000
  H   H1394     1.0  0.34543  0.68359  0.38534  1.0000
  H   H1395     1.0  0.35351  0.97634  0.42207  1.0000
  H   H1396     1.0  0.27365  0.84140  0.46526  1.0000
  H   H1397     1.0  0.28924  0.77760  0.44829  1.0000
  H   H1398     1.0  0.27881  0.80601  0.47175  1.0000
  H   H1399     1.0  0.26605  0.67561  0.42924  1.0000
  C   C812      1.0  0.27766  0.77296  0.43772  1.0000
  H   H1400     1.0  0.37244  0.96064  0.43581  1.0000
  C   C813      1.0  0.26574  0.75190  0.44971  1.0000
  H   H1401     1.0  0.39776  0.79445  0.35522  1.0000
  C   C814      1.0  0.26666  0.63733  0.41251  1.0000
  H   H1402     1.0  0.27325  0.92156  0.62601  1.0000
  C   C815      1.0  0.49794  0.62178  0.34041  1.0000
  C   C816      1.0  0.32209  0.64893  0.33532  1.0000
  H   H1403     1.0  0.37831  0.90735  0.37939  1.0000
  H   H1404     1.0  0.37560  0.79182  0.34203  1.0000
  H   H1405     1.0  0.50913  0.67412  0.35372  1.0000
  S   S227      1.0  0.26789  0.95747  0.40491  1.0000
  C   C817      1.0  0.26767  0.82088  0.46748  1.0000
  H   H1406     1.0  0.50977  0.60748  0.33657  1.0000
  H   H1407     1.0  0.50877  0.55722  0.61888  1.0000
  H   H1408     1.0  0.48531  0.60924  0.34197  1.0000
  C   C818      1.0  0.37653  0.48569  0.41369  1.0000
  H   H1409     1.0  0.39477  0.84616  0.34894  1.0000
  H   H1410     1.0  0.51059  0.62865  0.65665  1.0000
  H   H1411     1.0  0.50856  0.83850  0.57462  1.0000
  H   H1412     1.0  0.26141  0.91415  0.60221  1.0000
  H   H1413     1.0  0.26160  0.60404  0.59812  1.0000
  H   H1414     1.0  0.26284  0.64569  0.52904  1.0000
  C   C819      1.0  0.51084  0.82884  0.55902  1.0000
  H   H1415     1.0  0.43488  0.97658  0.42908  1.0000
  Fe  Fe113     1.0  0.46127  0.53160  0.96282  1.0000
  S   S228      1.0  0.48109  0.54607  0.93732  1.0000
  H   H1416     1.0  0.35570  0.91839  0.88340  1.0000
  Fe  Fe114     1.0  0.42752  0.53901  0.93341  1.0000
  S   S229      1.0  0.44501  0.55382  0.90599  1.0000
  S   S230      1.0  0.39603  0.53637  0.93428  1.0000
  Fe  Fe115     1.0  0.46469  0.51941  0.91587  1.0000
  H   H1417     1.0  0.33692  0.95477  0.88760  1.0000
  Fe  Fe116     1.0  0.45960  0.57936  0.92982  1.0000
  S   S231      1.0  0.46624  0.62523  0.93048  1.0000
  S   S232      1.0  0.44617  0.50319  0.94174  1.0000
  S   S233      1.0  0.44077  0.56626  0.95676  1.0000
  Fe  Fe117     1.0  0.46023  0.77203  0.86082  1.0000
  S   S234      1.0  0.44694  0.78525  0.83029  1.0000
  S   S235      1.0  0.46038  0.72504  0.86425  1.0000
  Fe  Fe118     1.0  0.46446  0.83287  0.87307  1.0000
  S   S236      1.0  0.45123  0.84913  0.84364  1.0000
  S   S237      1.0  0.47192  0.86199  0.89914  1.0000
  Fe  Fe119     1.0  0.43062  0.81603  0.85000  1.0000
  S   S238      1.0  0.39919  0.82192  0.84800  1.0000
  Fe  Fe120     1.0  0.46904  0.81698  0.82688  1.0000
  S   S239      1.0  0.48852  0.82169  0.79771  1.0000
  S   S240      1.0  0.44279  0.80164  0.88042  1.0000
  S   S241      1.0  0.48346  0.80200  0.85635  1.0000
  C   C820      1.0  0.39186  0.93512  0.85193  1.0000
  H   H1418     1.0  0.49876  0.66355  0.70753  1.0000
  Fe  Fe121     1.0  0.32021  0.51800  0.85040  1.0000
  S   S242      1.0  0.30272  0.53477  0.87728  1.0000
  S   S243      1.0  0.35171  0.51338  0.85077  1.0000
  Fe  Fe122     1.0  0.28619  0.50927  0.82213  1.0000
  Fe  Fe123     1.0  0.28693  0.55872  0.85280  1.0000
  Fe  Fe124     1.0  0.28382  0.50038  0.86956  1.0000
  H   H1419     1.0  0.35086  0.87754  0.93426  1.0000
  S   S244      1.0  0.30579  0.54391  0.82609  1.0000
  C   C821      1.0  0.51095  0.86527  0.74859  1.0000
  Fe  Fe125     1.0  0.31889  0.78747  0.92798  1.0000
  S   S245      1.0  0.30427  0.77172  0.89981  1.0000
  S   S246      1.0  0.34990  0.79448  0.92964  1.0000
  Fe  Fe126     1.0  0.28278  0.79151  0.95575  1.0000
  Fe  Fe127     1.0  0.28870  0.74467  0.92262  1.0000
  Fe  Fe128     1.0  0.28249  0.80412  0.90864  1.0000
  C   C822      1.0  0.27091  0.92432  0.89626  1.0000
  S   S247      1.0  0.30493  0.75859  0.95046  1.0000
  S   S248      1.0  0.29826  0.82149  0.93542  1.0000
  H   H1420     1.0  0.27614  0.55794  0.78586  1.0000
  H   H1421     1.0  0.48328  0.92629  0.80405  1.0000
  H   H1422     1.0  0.48861  0.60843  0.69175  1.0000
  H   H1423     1.0  0.41006  0.88888  0.86804  1.0000
  H   H1424     1.0  0.50169  0.61778  0.71377  1.0000
  H   H1425     1.0  0.38636  0.91670  0.85993  1.0000
  H   H1426     1.0  0.42023  0.95378  0.90783  1.0000
  C   C823      1.0  0.48382  0.59499  0.98246  1.0000
  C   C824      1.0  0.27894  0.55463  0.75218  1.0000
  H   H1427     1.0  0.50006  0.49001  0.98189  1.0000
  N   N60       1.0  0.50169  0.66582  0.67339  1.0000
  H   H1428     1.0  0.49540  0.86285  0.85425  1.0000
  H   H1429     1.0  0.47155  0.68294  0.93463  1.0000
  C   C825      1.0  0.38553  0.81432  0.87075  1.0000
  C   C826      1.0  0.36681  0.80733  0.86862  1.0000
  C   C827      1.0  0.35564  0.80131  0.88655  1.0000
  C   C828      1.0  0.36314  0.80239  0.90674  1.0000
  C   C829      1.0  0.38178  0.80964  0.90887  1.0000
  C   C830      1.0  0.39289  0.81571  0.89097  1.0000
  H   H1430     1.0  0.36097  0.80641  0.85303  1.0000
  H   H1431     1.0  0.34128  0.79579  0.88472  1.0000
  H   H1432     1.0  0.38763  0.81074  0.92445  1.0000
  H   H1433     1.0  0.40704  0.82201  0.89292  1.0000
  C   C831      1.0  0.49172  0.84731  0.77789  1.0000
  H   H1434     1.0  0.46977  0.63148  0.99714  1.0000
  H   H1435     1.0  0.38005  0.88095  0.89545  1.0000
  H   H1436     1.0  0.36586  0.94036  0.83501  1.0000
  H   H1437     1.0  0.32149  0.86180  0.85030  1.0000
  C   C832      1.0  0.47992  0.87043  0.77638  1.0000
  C   C833      1.0  0.49925  0.48802  0.99889  1.0000
  C   C834      1.0  0.28265  0.65817  0.86554  1.0000
  H   H1438     1.0  0.46796  0.87265  0.78701  1.0000
  C   C835      1.0  0.38406  0.52840  0.91114  1.0000
  C   C836      1.0  0.39354  0.52359  0.89190  1.0000
  C   C837      1.0  0.38346  0.51839  0.87358  1.0000
  C   C838      1.0  0.36389  0.51815  0.87436  1.0000
  C   C839      1.0  0.35446  0.52244  0.89369  1.0000
  C   C840      1.0  0.36452  0.52753  0.91200  1.0000
  H   H1439     1.0  0.40860  0.52410  0.89108  1.0000
  H   H1440     1.0  0.39087  0.51500  0.85870  1.0000
  H   H1441     1.0  0.33943  0.52208  0.89456  1.0000
  H   H1442     1.0  0.35713  0.53108  0.92687  1.0000
  C   C841      1.0  0.47108  0.89773  0.89486  1.0000
  C   C842      1.0  0.47071  0.90881  0.87446  1.0000
  C   C843      1.0  0.47148  0.93720  0.87139  1.0000
  C   C844      1.0  0.47166  0.95491  0.88875  1.0000
  C   C845      1.0  0.47127  0.94393  0.90921  1.0000
  C   C846      1.0  0.47128  0.91544  0.91222  1.0000
  H   H1443     1.0  0.47005  0.89543  0.86109  1.0000
  H   H1444     1.0  0.47168  0.94552  0.85553  1.0000
  H   H1445     1.0  0.47156  0.95735  0.92271  1.0000
  H   H1446     1.0  0.47153  0.90709  0.92808  1.0000
  C   C847      1.0  0.46383  0.65281  0.91196  1.0000
  C   C848      1.0  0.45869  0.64887  0.89101  1.0000
  C   C849      1.0  0.45773  0.67120  0.87678  1.0000
  C   C850      1.0  0.46168  0.69787  0.88324  1.0000
  C   C851      1.0  0.46640  0.70194  0.90432  1.0000
  C   C852      1.0  0.46754  0.67955  0.91851  1.0000
  H   H1447     1.0  0.45585  0.62852  0.88563  1.0000
  H   H1448     1.0  0.45411  0.66771  0.86053  1.0000
  H   H1449     1.0  0.46951  0.72223  0.90960  1.0000
  H   H1450     1.0  0.27568  0.73992  0.99360  1.0000
  H   H1451     1.0  0.30965  0.89726  0.87502  1.0000
  H   H1452     1.0  0.28355  0.60273  0.89803  1.0000
  C   C853      1.0  0.27324  0.88655  0.87152  1.0000
  H   H1453     1.0  0.26765  0.91267  0.92900  1.0000
  S   S249      1.0  0.28600  0.69789  0.92227  1.0000
  H   H1454     1.0  0.36550  0.95830  0.85941  1.0000
  H   H1455     1.0  0.26323  0.61053  0.74364  1.0000
  H   H1456     1.0  0.27510  0.87913  0.85553  1.0000
  C   C854      1.0  0.27049  0.56913  0.77194  1.0000
  H   H1457     1.0  0.28356  0.71315  0.97566  1.0000
  H   H1458     1.0  0.50161  0.72485  0.68457  1.0000
  N   N61       1.0  0.40566  0.94914  0.86557  1.0000
  H   H1459     1.0  0.28179  0.66355  0.84898  1.0000
  C   C855      1.0  0.42229  0.92995  0.86811  1.0000
  C   C856      1.0  0.40823  0.96740  0.90381  1.0000
  C   C857      1.0  0.26995  0.87726  0.90895  1.0000
  C   C858      1.0  0.41839  0.90192  0.87831  1.0000
  S   S250      1.0  0.27230  0.83247  0.88272  1.0000
  H   H1460     1.0  0.26859  0.86294  0.92192  1.0000
  C   C859      1.0  0.26263  0.47876  0.77664  1.0000
  C   C860      1.0  0.49557  0.93794  0.79872  1.0000
  H   H1461     1.0  0.47892  0.65308  0.69372  1.0000
  H   H1462     1.0  0.27445  0.92918  0.86260  1.0000
  H   H1463     1.0  0.41124  0.97217  0.83667  1.0000
  H   H1464     1.0  0.34013  0.85288  0.86738  1.0000
  H   H1465     1.0  0.50394  0.94187  0.83873  1.0000
  H   H1466     1.0  0.43189  0.89067  0.88047  1.0000
  H   H1467     1.0  0.41176  0.90389  0.89423  1.0000
  C   C861      1.0  0.33547  0.87595  0.93431  1.0000
  H   H1468     1.0  0.38955  0.93719  0.89326  1.0000
  N   N62       1.0  0.33240  0.89680  0.89688  1.0000
  C   C862      1.0  0.32589  0.86195  0.86701  1.0000
  S   S251      1.0  0.27443  0.79837  0.99064  1.0000
  H   H1469     1.0  0.47949  0.57370  0.98023  1.0000
  C   C863      1.0  0.28365  0.62389  0.89308  1.0000
  H   H1470     1.0  0.35815  0.91096  0.91020  1.0000
  H   H1471     1.0  0.26237  0.57410  0.81562  1.0000
  H   H1472     1.0  0.43307  0.93918  0.87788  1.0000
  N   N63       1.0  0.34259  0.61654  0.87144  1.0000
  C   C864      1.0  0.33416  0.64222  0.88126  1.0000
  C   C865      1.0  0.33419  0.59258  0.88287  1.0000
  C   C866      1.0  0.33685  0.61600  0.84864  1.0000
  C   C867      1.0  0.36358  0.61722  0.87309  1.0000
  C   C868      1.0  0.33843  0.66922  0.86975  1.0000
  C   C869      1.0  0.33561  0.59281  0.90717  1.0000
  C   C870      1.0  0.34355  0.59108  0.83556  1.0000
  C   C871      1.0  0.37431  0.58951  0.87421  1.0000
  H   H1473     1.0  0.31876  0.64103  0.88245  1.0000
  H   H1474     1.0  0.33883  0.64465  0.89779  1.0000
  H   H1475     1.0  0.34043  0.57289  0.87730  1.0000
  H   H1476     1.0  0.31907  0.59138  0.87932  1.0000
  H   H1477     1.0  0.32134  0.61747  0.84768  1.0000
  H   H1478     1.0  0.34217  0.63388  0.83974  1.0000
  H   H1479     1.0  0.36974  0.62877  0.85955  1.0000
  H   H1480     1.0  0.36766  0.62848  0.88744  1.0000
  H   H1481     1.0  0.35341  0.67070  0.86537  1.0000
  H   H1482     1.0  0.32982  0.67183  0.85547  1.0000
  H   H1483     1.0  0.33450  0.68657  0.88035  1.0000
  H   H1484     1.0  0.34970  0.59809  0.91239  1.0000
  H   H1485     1.0  0.32509  0.60724  0.91434  1.0000
  H   H1486     1.0  0.33249  0.57221  0.91351  1.0000
  H   H1487     1.0  0.49603  0.95756  0.80732  1.0000
  H   H1488     1.0  0.37818  0.97128  0.83669  1.0000
  H   H1489     1.0  0.33995  0.57141  0.84302  1.0000
  H   H1490     1.0  0.37185  0.57918  0.88959  1.0000
  H   H1491     1.0  0.38954  0.59298  0.87299  1.0000
  H   H1492     1.0  0.37098  0.57539  0.86138  1.0000
  C   C872      1.0  0.28470  0.64480  0.90827  1.0000
  C   C873      1.0  0.46712  0.60986  0.99362  1.0000
  C   C874      1.0  0.50004  0.62174  0.69659  1.0000
  C   C875      1.0  0.26930  0.90545  0.91292  1.0000
  C   C876      1.0  0.35297  0.90218  0.89531  1.0000
  H   H1493     1.0  0.36163  0.85846  0.89572  1.0000
  H   H1494     1.0  0.49917  0.87734  0.81281  1.0000
  C   C877      1.0  0.27185  0.86772  0.88822  1.0000
  H   H1495     1.0  0.27371  0.53379  0.75025  1.0000
  H   H1496     1.0  0.28390  0.70024  0.87578  1.0000
  H   H1497     1.0  0.33220  0.85704  0.94327  1.0000
  H   H1498     1.0  0.28540  0.63944  0.92484  1.0000
  S   S252      1.0  0.28132  0.60506  0.85160  1.0000
  H   H1499     1.0  0.33146  0.90466  0.86305  1.0000
  H   H1500     1.0  0.47461  0.90880  0.76032  1.0000
  H   H1501     1.0  0.31255  0.87126  0.91315  1.0000
  C   C878      1.0  0.49936  0.88864  0.74734  1.0000
  C   C879      1.0  0.32471  0.89152  0.87527  1.0000
  C   C880      1.0  0.39608  0.95569  0.88650  1.0000
  H   H1502     1.0  0.26476  0.96882  0.99210  1.0000
  C   C881      1.0  0.37451  0.95255  0.84560  1.0000
  H   H1503     1.0  0.44198  0.97244  0.85039  1.0000
  H   H1504     1.0  0.42927  0.92596  0.85245  1.0000
  C   C882      1.0  0.32265  0.92216  0.90570  1.0000
  H   H1505     1.0  0.33653  0.59177  0.82009  1.0000
  H   H1506     1.0  0.31608  0.84871  0.87592  1.0000
  H   H1507     1.0  0.32891  0.92845  0.92077  1.0000
  S   S253      1.0  0.27066  0.95944  0.90226  1.0000
  H   H1508     1.0  0.27435  0.48188  0.74504  1.0000
  C   C883      1.0  0.32267  0.94770  0.89125  1.0000
  H   H1509     1.0  0.32872  0.89316  0.94314  1.0000
  C   C884      1.0  0.28481  0.67253  0.90223  1.0000
  H   H1510     1.0  0.33329  0.85355  0.90577  1.0000
  S   S254      1.0  0.47827  0.48974  0.89239  1.0000
  C   C885      1.0  0.41143  0.97491  0.85416  1.0000
  C   C886      1.0  0.32796  0.87357  0.91177  1.0000
  C   C887      1.0  0.28256  0.63046  0.87157  1.0000
  C   C888      1.0  0.28388  0.67907  0.88072  1.0000
  N   N64       1.0  0.40559  0.72397  0.89684  1.0000
  C   C889      1.0  0.41861  0.74619  0.90285  1.0000
  C   C890      1.0  0.40770  0.72007  0.87325  1.0000
  C   C891      1.0  0.41151  0.69816  0.90839  1.0000
  C   C892      1.0  0.38609  0.73313  0.90345  1.0000
  C   C893      1.0  0.42079  0.75113  0.92674  1.0000
  C   C894      1.0  0.40283  0.74520  0.85944  1.0000
  C   C895      1.0  0.40631  0.67073  0.89857  1.0000
  C   C896      1.0  0.36999  0.71490  0.89727  1.0000
  H   H1511     1.0  0.43288  0.74199  0.89609  1.0000
  H   H1512     1.0  0.41392  0.76614  0.89616  1.0000
  H   H1513     1.0  0.39915  0.70331  0.86750  1.0000
  H   H1514     1.0  0.42228  0.71351  0.86906  1.0000
  H   H1515     1.0  0.42698  0.69684  0.90966  1.0000
  H   H1516     1.0  0.40593  0.69835  0.92497  1.0000
  H   H1517     1.0  0.38485  0.73506  0.92093  1.0000
  H   H1518     1.0  0.38278  0.75415  0.89778  1.0000
  H   H1519     1.0  0.42652  0.73290  0.93508  1.0000
  H   H1520     1.0  0.43093  0.76761  0.92876  1.0000
  H   H1521     1.0  0.40754  0.75830  0.93449  1.0000
  H   H1522     1.0  0.41280  0.76182  0.86142  1.0000
  H   H1523     1.0  0.40396  0.73931  0.84252  1.0000
  H   H1524     1.0  0.38836  0.75300  0.86239  1.0000
  H   H1525     1.0  0.40995  0.65396  0.90978  1.0000
  H   H1526     1.0  0.41465  0.66661  0.88386  1.0000
  H   H1527     1.0  0.39130  0.66951  0.89536  1.0000
  H   H1528     1.0  0.36791  0.69838  0.90910  1.0000
  H   H1529     1.0  0.37173  0.70624  0.88128  1.0000
  H   H1530     1.0  0.35695  0.72767  0.89663  1.0000
  C   C897      1.0  0.48374  0.89091  0.76121  1.0000
  C   C898      1.0  0.36602  0.87802  0.88891  1.0000
  C   C899      1.0  0.50304  0.88841  0.82723  1.0000
  H   H1531     1.0  0.49349  0.94335  0.78182  1.0000
  H   H1532     1.0  0.39884  0.92767  0.83702  1.0000
  C   C900      1.0  0.27300  0.91481  0.87551  1.0000
  H   H1533     1.0  0.31509  0.96466  0.89966  1.0000
  S   S255      1.0  0.28087  0.49748  0.78781  1.0000
  H   H1534     1.0  0.29429  0.55237  0.75396  1.0000
  H   H1535     1.0  0.51038  0.78990  0.67073  1.0000
  H   H1536     1.0  0.35874  0.59164  0.83196  1.0000
  H   H1537     1.0  0.30778  0.91813  0.90971  1.0000
  H   H1538     1.0  0.36739  0.87609  0.87145  1.0000
  H   H1539     1.0  0.31511  0.94459  0.87640  1.0000
  H   H1540     1.0  0.49003  0.89932  0.83260  1.0000
  N   N65       1.0  0.50214  0.59575  0.99363  1.0000
  H   H1541     1.0  0.48525  0.70605  0.70104  1.0000
  H   H1542     1.0  0.49292  0.64736  0.97224  1.0000
  C   C901      1.0  0.49447  0.65221  0.69331  1.0000
  S   S256      1.0  0.26540  0.77592  0.92930  1.0000
  H   H1543     1.0  0.27659  0.56654  0.73750  1.0000
  S   S257      1.0  0.26610  0.52565  0.84724  1.0000
  H   H1544     1.0  0.48518  0.60331  0.96613  1.0000
  H   H1545     1.0  0.50211  0.54308  0.97964  1.0000
  H   H1546     1.0  0.38445  0.97087  0.88442  1.0000
  H   H1547     1.0  0.27676  0.58962  0.77257  1.0000
  H   H1548     1.0  0.51046  0.84600  0.83578  1.0000
  C   C902      1.0  0.27659  0.71761  0.99114  1.0000
  H   H1549     1.0  0.26878  0.96275  0.79530  1.0000
  C   C903      1.0  0.48846  0.71344  0.68481  1.0000
  C   C904      1.0  0.50713  0.64421  0.97854  1.0000
  H   H1550     1.0  0.47726  0.72847  0.68056  1.0000
  H   H1551     1.0  0.47439  0.68394  0.66686  1.0000
  S   S258      1.0  0.46762  0.52257  0.99767  1.0000
  S   S259      1.0  0.30246  0.48211  0.84421  1.0000
  H   H1552     1.0  0.39961  0.96997  0.91853  1.0000
  C   C905      1.0  0.50777  0.86593  0.84373  1.0000
  C   C906      1.0  0.50714  0.84479  0.76376  1.0000
  C   C907      1.0  0.50744  0.62475  0.99784  1.0000
  S   S260      1.0  0.50455  0.91651  0.73016  1.0000
  H   H1553     1.0  0.45505  0.61006  0.98294  1.0000
  C   C908      1.0  0.48909  0.69016  0.66842  1.0000
  H   H1554     1.0  0.51126  0.91124  0.86799  1.0000
  C   C909      1.0  0.60496  0.23564  0.10826  1.0000
  H   H1555     1.0  0.60697  0.46225  0.18228  1.0000
  S   S261      1.0  0.60053  0.46552  0.10510  1.0000
  Fe  Fe129     1.0  0.54584  0.40171  0.11581  1.0000
  S   S262      1.0  0.56170  0.41540  0.08656  1.0000
  H   H1556     1.0  0.59717  0.05172  0.15694  1.0000
  Fe  Fe130     1.0  0.57069  0.45100  0.10567  1.0000
  H   H1557     1.0  0.56901  0.19053  0.07797  1.0000
  Fe  Fe131     1.0  0.53619  0.44176  0.07889  1.0000
  S   S263      1.0  0.55635  0.43645  0.13507  1.0000
  Fe  Fe132     1.0  0.52904  0.20049  0.16072  1.0000
  S   S264      1.0  0.54078  0.19451  0.19319  1.0000
  Fe  Fe133     1.0  0.52824  0.13783  0.15376  1.0000
  S   S265      1.0  0.54024  0.12745  0.18533  1.0000
  H   H1558     1.0  0.52098  0.02474  0.17214  1.0000
  C   C910      1.0  0.63242  0.46922  0.12795  1.0000
  Fe  Fe134     1.0  0.55936  0.16209  0.17779  1.0000
  S   S266      1.0  0.59059  0.16023  0.18149  1.0000
  S   S267      1.0  0.54881  0.16990  0.14537  1.0000
  Fe  Fe135     1.0  0.67121  0.18258  0.10096  1.0000
  S   S268      1.0  0.68161  0.19770  0.13166  1.0000
  S   S269      1.0  0.64156  0.16774  0.09843  1.0000
  Fe  Fe136     1.0  0.70950  0.18890  0.07819  1.0000
  S   S270      1.0  0.72207  0.20512  0.10800  1.0000
  S   S271      1.0  0.72910  0.18671  0.04879  1.0000
  Fe  Fe137     1.0  0.70679  0.17090  0.12426  1.0000
  S   S272      1.0  0.71744  0.14288  0.15039  1.0000
  Fe  Fe138     1.0  0.69550  0.23065  0.11263  1.0000
  S   S273      1.0  0.68816  0.27592  0.11966  1.0000
  S   S274      1.0  0.69559  0.15371  0.09448  1.0000
  S   S275      1.0  0.68383  0.21645  0.08175  1.0000
  H   H1559     1.0  0.71814  0.07081  0.05096  1.0000
  S   S276      1.0  0.73073  0.44782  0.18829  1.0000
  C   C911      1.0  0.52429  0.01784  0.32769  1.0000
  C   C912      1.0  0.75239  0.41603  0.24084  1.0000
  S   S277      1.0  0.69273  0.44381  0.16013  1.0000
  H   H1560     1.0  0.72680  0.47616  0.29461  1.0000
  Fe  Fe139     1.0  0.70893  0.41641  0.18205  1.0000
  S   S278      1.0  0.71845  0.37161  0.17771  1.0000
  C   C913      1.0  0.61873  0.25377  0.11992  1.0000
  S   S279      1.0  0.71971  0.01471  0.13617  1.0000
  S   S280      1.0  0.69157  0.42875  0.21070  1.0000
  Fe  Fe140     1.0  0.71236  0.46176  0.21584  1.0000
  H   H1561     1.0  0.60916  0.21410  0.11159  1.0000
  C   C914      1.0  0.53006  0.27353  0.14035  1.0000
  H   H1562     1.0  0.72351  0.05054  0.28887  1.0000
  N   N66       1.0  0.58442  0.24015  0.11315  1.0000
  H   H1563     1.0  0.59088  0.37881  0.13162  1.0000
  N   N67       1.0  0.75087  0.38649  0.23452  1.0000
  H   H1564     1.0  0.66536  0.02891  0.14938  1.0000
  H   H1565     1.0  0.58135  0.22457  0.16752  1.0000
  S   S281      1.0  0.72002  0.46804  0.25058  1.0000
  C   C915      1.0  0.57419  0.08040  0.15275  1.0000
  S   S282      1.0  0.52771  0.44529  0.04410  1.0000
  C   C916      1.0  0.71800  0.10716  0.14660  1.0000
  C   C917      1.0  0.72053  0.08947  0.16391  1.0000
  C   C918      1.0  0.72060  0.06094  0.16116  1.0000
  C   C919      1.0  0.71853  0.05006  0.14097  1.0000
  C   C920      1.0  0.71599  0.06774  0.12376  1.0000
  C   C921      1.0  0.71558  0.09612  0.12659  1.0000
  H   H1566     1.0  0.72242  0.09783  0.17947  1.0000
  H   H1567     1.0  0.72268  0.04740  0.17452  1.0000
  H   H1568     1.0  0.71413  0.05930  0.10822  1.0000
  H   H1569     1.0  0.71357  0.10949  0.11326  1.0000
  C   C922      1.0  0.69681  0.30207  0.13612  1.0000
  C   C923      1.0  0.68791  0.32810  0.13598  1.0000
  C   C924      1.0  0.69425  0.34958  0.14857  1.0000
  C   C925      1.0  0.70964  0.34531  0.16152  1.0000
  C   C926      1.0  0.71846  0.31926  0.16176  1.0000
  C   C927      1.0  0.71212  0.29779  0.14918  1.0000
  H   H1570     1.0  0.67612  0.33173  0.12590  1.0000
  H   H1571     1.0  0.68733  0.36945  0.14813  1.0000
  H   H1572     1.0  0.73036  0.31564  0.17166  1.0000
  H   H1573     1.0  0.71913  0.27798  0.14949  1.0000
  Fe  Fe141     1.0  0.71058  0.98407  0.16089  1.0000
  H   H1574     1.0  0.59250  0.33579  0.14599  1.0000
  C   C928      1.0  0.72435  0.13776  0.02740  1.0000
  C   C929      1.0  0.73534  0.16051  0.03027  1.0000
  H   H1575     1.0  0.62637  0.26686  0.10845  1.0000
  H   H1576     1.0  0.71149  0.13587  0.03649  1.0000
  H   H1577     1.0  0.56328  0.22792  0.13597  1.0000
  H   H1578     1.0  0.57881  0.39166  0.16393  1.0000
  C   C930      1.0  0.60404  0.16319  0.15801  1.0000
  C   C931      1.0  0.59889  0.15063  0.13927  1.0000
  C   C932      1.0  0.61050  0.15208  0.12109  1.0000
  C   C933      1.0  0.62724  0.16623  0.12148  1.0000
  C   C934      1.0  0.63208  0.17926  0.14009  1.0000
  C   C935      1.0  0.62065  0.17749  0.15832  1.0000
  H   H1579     1.0  0.58611  0.13948  0.13889  1.0000
  H   H1580     1.0  0.60653  0.14219  0.10669  1.0000
  H   H1581     1.0  0.64451  0.19099  0.14049  1.0000
  H   H1582     1.0  0.62461  0.18747  0.17269  1.0000
  H   H1583     1.0  0.75456  0.39669  0.20138  1.0000
  C   C936      1.0  0.72416  0.13196  0.28672  1.0000
  H   H1584     1.0  0.76032  0.18050  0.01976  1.0000
  H   H1585     1.0  0.70387  0.37750  0.24869  1.0000
  C   C937      1.0  0.73738  0.09284  0.26526  1.0000
  H   H1586     1.0  0.74535  0.41989  0.25645  1.0000
  H   H1587     1.0  0.58441  0.25798  0.15737  1.0000
  H   H1588     1.0  0.60814  0.30883  0.15364  1.0000
  H   H1589     1.0  0.75867  0.15114  0.07237  1.0000
  C   C938      1.0  0.71801  0.06628  0.30013  1.0000
  H   H1590     1.0  0.58392  0.28033  0.12798  1.0000
  H   H1591     1.0  0.58033  0.09485  0.16397  1.0000
  H   H1592     1.0  0.51410  0.10060  0.23483  1.0000
  Fe  Fe142     1.0  0.71275  0.47633  0.16876  1.0000
  S   S283      1.0  0.55313  0.36061  0.13236  1.0000
  H   H1593     1.0  0.58906  0.46119  0.14937  1.0000
  C   C939      1.0  0.54390  0.28292  0.15354  1.0000
  H   H1594     1.0  0.60268  0.23155  0.15419  1.0000
  C   C940      1.0  0.52935  0.31831  0.12253  1.0000
  H   H1595     1.0  0.60789  0.23841  0.09102  1.0000
  C   C941      1.0  0.73807  0.09167  0.06982  1.0000
  C   C942      1.0  0.75756  0.01814  0.27635  1.0000
  N   N68       1.0  0.58411  0.04056  0.12770  1.0000
  C   C943      1.0  0.58993  0.06159  0.14340  1.0000
  C   C944      1.0  0.60071  0.02190  0.12268  1.0000
  C   C945      1.0  0.56858  0.02365  0.13657  1.0000
  C   C946      1.0  0.57718  0.05516  0.10825  1.0000
  C   C947      1.0  0.61607  0.03419  0.10842  1.0000
  C   C948      1.0  0.52090  0.03311  0.15628  1.0000
  C   C949      1.0  0.57127  0.03678  0.08993  1.0000
  H   H1596     1.0  0.72339  0.37607  0.26586  1.0000
  H   H1597     1.0  0.60031  0.07538  0.13604  1.0000
  H   H1598     1.0  0.59639  0.00269  0.11513  1.0000
  H   H1599     1.0  0.72873  0.08909  0.08385  1.0000
  H   H1600     1.0  0.55571  0.03637  0.13868  1.0000
  H   H1601     1.0  0.56486  0.00750  0.12522  1.0000
  H   H1602     1.0  0.56458  0.06809  0.11220  1.0000
  H   H1603     1.0  0.58740  0.07009  0.10205  1.0000
  H   H1604     1.0  0.62100  0.05372  0.11463  1.0000
  H   H1605     1.0  0.62823  0.01963  0.10762  1.0000
  H   H1606     1.0  0.61129  0.03716  0.09199  1.0000
  H   H1607     1.0  0.75581  0.11806  0.24512  1.0000
  H   H1608     1.0  0.57091  0.18427  0.10546  1.0000
  S   S284      1.0  0.52079  0.97983  0.14321  1.0000
  H   H1609     1.0  0.55610  0.03283  0.09118  1.0000
  H   H1610     1.0  0.57891  0.01689  0.08918  1.0000
  H   H1611     1.0  0.57425  0.04704  0.07458  1.0000
  H   H1612     1.0  0.67231  0.06466  0.17492  1.0000
  N   N69       1.0  0.73729  0.10743  0.28623  1.0000
  H   H1613     1.0  0.72925  0.14867  0.27628  1.0000
  C   C950      1.0  0.52182  0.07232  0.13265  1.0000
  C   C951      1.0  0.57665  0.19656  0.09221  1.0000
  H   H1614     1.0  0.74793  0.07581  0.26523  1.0000
  H   H1615     1.0  0.59877  0.28571  0.09034  1.0000
  C   C952      1.0  0.57243  0.00908  0.15774  1.0000
  H   H1616     1.0  0.74850  0.99579  0.30389  1.0000
  H   H1617     1.0  0.56723  0.09308  0.14052  1.0000
  H   H1618     1.0  0.62680  0.38931  0.08340  1.0000
  C   C953      1.0  0.55058  0.30967  0.15100  1.0000
  H   H1619     1.0  0.70469  0.07506  0.29444  1.0000
  H   H1620     1.0  0.64470  0.04371  0.16113  1.0000
  H   H1621     1.0  0.56357  0.06896  0.16187  1.0000
  Fe  Fe143     1.0  0.52038  0.16024  0.19804  1.0000
  H   H1622     1.0  0.54948  0.26956  0.16564  1.0000
  C   C954      1.0  0.52056  0.01538  0.13892  1.0000
  C   C955      1.0  0.54336  0.32760  0.13549  1.0000
  S   S285      1.0  0.52258  0.10773  0.12788  1.0000
  H   H1623     1.0  0.61003  0.40647  0.10007  1.0000
  H   H1624     1.0  0.51209  0.28455  0.11464  1.0000
  C   C956      1.0  0.74428  0.00348  0.24290  1.0000
  H   H1625     1.0  0.63479  0.40973  0.10439  1.0000
  H   H1626     1.0  0.58037  0.30915  0.09822  1.0000
  H   H1627     1.0  0.65099  0.40838  0.17119  1.0000
  S   S286      1.0  0.64579  0.46633  0.19010  1.0000
  H   H1628     1.0  0.60184  0.40961  0.13445  1.0000
  H   H1629     1.0  0.71528  0.40816  0.25465  1.0000
  H   H1630     1.0  0.55817  0.23114  0.09854  1.0000
  C   C957      1.0  0.57848  0.26990  0.11407  1.0000
  H   H1631     1.0  0.59874  0.41080  0.17104  1.0000
  C   C958      1.0  0.61304  0.46591  0.12879  1.0000
  H   H1632     1.0  0.60819  0.31954  0.12666  1.0000
  H   H1633     1.0  0.74509  0.42968  0.22940  1.0000
  H   H1634     1.0  0.74324  0.00569  0.22595  1.0000
  C   C959      1.0  0.58748  0.23617  0.15403  1.0000
  C   C960      1.0  0.71776  0.38607  0.25156  1.0000
  H   H1635     1.0  0.53678  0.05169  0.31051  1.0000
  C   C961      1.0  0.51164  0.46840  0.03171  1.0000
  H   H1636     1.0  0.70171  0.11179  0.26926  1.0000
  H   H1637     1.0  0.59817  0.37424  0.17445  1.0000
  H   H1638     1.0  0.57532  0.28227  0.08071  1.0000
  C   C962      1.0  0.57348  0.22754  0.09573  1.0000
  C   C963      1.0  0.52282  0.29148  0.12492  1.0000
  H   H1639     1.0  0.62858  0.39643  0.17866  1.0000
  C   C964      1.0  0.63356  0.46651  0.16628  1.0000
  H   H1640     1.0  0.60758  0.01489  0.13744  1.0000
  H   H1641     1.0  0.62956  0.24060  0.12753  1.0000
  H   H1642     1.0  0.76059  0.13295  0.27734  1.0000
  C   C965      1.0  0.73332  0.06923  0.05405  1.0000
  Fe  Fe144     1.0  0.67701  0.45846  0.18906  1.0000
  H   H1643     1.0  0.75503  0.15800  0.09987  1.0000
  C   C966      1.0  0.52184  0.06151  0.15315  1.0000
  C   C967      1.0  0.74139  0.11051  0.24551  1.0000
  H   H1644     1.0  0.75244  0.14936  0.31365  1.0000
  H   H1645     1.0  0.56009  0.99691  0.16225  1.0000
  H   H1646     1.0  0.56130  0.31660  0.16126  1.0000
  H   H1647     1.0  0.71493  0.05537  0.31520  1.0000
  C   C968      1.0  0.73269  0.08797  0.30414  1.0000
  H   H1648     1.0  0.74706  0.33058  0.23854  1.0000
  H   H1649     1.0  0.52262  0.07496  0.16656  1.0000
  N   N70       1.0  0.66015  0.09990  0.15827  1.0000
  C   C969      1.0  0.66524  0.11416  0.13782  1.0000
  C   C970      1.0  0.66856  0.07119  0.15860  1.0000
  C   C971      1.0  0.66913  0.11517  0.17588  1.0000
  C   C972      1.0  0.63927  0.10056  0.16127  1.0000
  C   C973      1.0  0.66079  0.09924  0.11730  1.0000
  C   C974      1.0  0.65661  0.04799  0.15023  1.0000
  C   C975      1.0  0.66302  0.14538  0.17865  1.0000
  C   C976      1.0  0.63200  0.09054  0.18303  1.0000
  H   H1650     1.0  0.65803  0.13444  0.13680  1.0000
  H   H1651     1.0  0.68037  0.11849  0.13704  1.0000
  H   H1652     1.0  0.64784  0.37260  0.17282  1.0000
  H   H1653     1.0  0.68212  0.07047  0.14974  1.0000
  H   H1654     1.0  0.66673  0.10500  0.19143  1.0000
  H   H1655     1.0  0.68459  0.11469  0.17355  1.0000
  H   H1656     1.0  0.63346  0.12157  0.15891  1.0000
  H   H1657     1.0  0.63234  0.08902  0.14878  1.0000
  H   H1658     1.0  0.64584  0.09433  0.11652  1.0000
  H   H1659     1.0  0.66380  0.11294  0.10367  1.0000
  H   H1660     1.0  0.66988  0.08076  0.11504  1.0000
  C   C977      1.0  0.73040  0.38148  0.23176  1.0000
  H   H1661     1.0  0.65135  0.05193  0.13422  1.0000
  C   C978      1.0  0.74744  0.99804  0.28694  1.0000
  C   C979      1.0  0.58372  0.28735  0.09458  1.0000
  H   H1662     1.0  0.67059  0.15395  0.19210  1.0000
  H   H1663     1.0  0.64793  0.14783  0.18252  1.0000
  H   H1664     1.0  0.62965  0.10799  0.19401  1.0000
  H   H1665     1.0  0.64166  0.07544  0.19042  1.0000
  H   H1666     1.0  0.61859  0.08011  0.18120  1.0000
  N   N71       1.0  0.62063  0.37459  0.13759  1.0000
  C   C980      1.0  0.62339  0.36972  0.11414  1.0000
  C   C981      1.0  0.62208  0.34713  0.14840  1.0000
  C   C982      1.0  0.63613  0.39255  0.14457  1.0000
  C   C983      1.0  0.60180  0.38856  0.14101  1.0000
  C   C984      1.0  0.62377  0.39552  0.10002  1.0000
  C   C985      1.0  0.60674  0.32696  0.14314  1.0000
  C   C986      1.0  0.64085  0.39217  0.16822  1.0000
  C   C987      1.0  0.59432  0.39144  0.16397  1.0000
  H   H1667     1.0  0.63665  0.35787  0.11090  1.0000
  H   H1668     1.0  0.61204  0.35724  0.10790  1.0000
  H   H1669     1.0  0.62182  0.34895  0.16585  1.0000
  H   H1670     1.0  0.63587  0.33701  0.14456  1.0000
  H   H1671     1.0  0.64950  0.38703  0.13606  1.0000
  H   H1672     1.0  0.63301  0.41417  0.14035  1.0000
  C   C988      1.0  0.57872  0.22626  0.13355  1.0000
  Fe  Fe145     1.0  0.53177  0.46139  0.12395  1.0000
  H   H1673     1.0  0.69564  0.12110  0.29624  1.0000
  H   H1674     1.0  0.57451  0.02363  0.17075  1.0000
  H   H1675     1.0  0.66674  0.15790  0.16464  1.0000
  H   H1676     1.0  0.57682  0.23722  0.08022  1.0000
  S   S287      1.0  0.69314  0.99348  0.19003  1.0000
  H   H1677     1.0  0.58451  0.99458  0.15645  1.0000
  H   H1678     1.0  0.56306  0.27189  0.11616  1.0000
  H   H1679     1.0  0.59155  0.19086  0.08924  1.0000
  C   C989      1.0  0.76060  0.13011  0.31100  1.0000
  H   H1680     1.0  0.72783  0.36071  0.22597  1.0000
  H   H1681     1.0  0.72154  0.09962  0.01099  1.0000
  H   H1682     1.0  0.58237  0.20413  0.13296  1.0000
  H   H1683     1.0  0.61243  0.26687  0.13239  1.0000
  H   H1684     1.0  0.75391  0.06129  0.10000  1.0000
  H   H1685     1.0  0.72479  0.39504  0.21912  1.0000
  C   C990      1.0  0.75683  0.11726  0.28933  1.0000
  S   S288      1.0  0.51954  0.42574  0.10704  1.0000
  C   C991      1.0  0.75179  0.16285  0.01785  1.0000
  H   H1686     1.0  0.72402  0.08283  0.26238  1.0000
  H   H1687     1.0  0.74536  0.07609  0.30888  1.0000
  H   H1688     1.0  0.52526  0.02905  0.29340  1.0000
  H   H1689     1.0  0.74780  0.34527  0.20221  1.0000
  S   S289      1.0  0.52189  0.23940  0.14166  1.0000
  C   C992      1.0  0.75747  0.14241  0.00320  1.0000
  H   H1690     1.0  0.73600  0.04838  0.06031  1.0000
  C   C993      1.0  0.61414  0.46412  0.16712  1.0000
  H   H1691     1.0  0.75098  0.10863  0.10783  1.0000
  H   H1692     1.0  0.74015  0.09764  0.23121  1.0000
  C   C994      1.0  0.51226  0.47106  0.00952  1.0000
  C   C995      1.0  0.70359  0.12708  0.28174  1.0000
  H   H1693     1.0  0.73118  0.12775  0.24398  1.0000
  C   C996      1.0  0.73008  0.11726  0.01286  1.0000
  H   H1694     1.0  0.72383  0.14141  0.30268  1.0000
  C   C997      1.0  0.60396  0.46347  0.14846  1.0000
  C   C998      1.0  0.52068  0.02625  0.11845  1.0000
  C   C999      1.0  0.64270  0.46920  0.14664  1.0000
  H   H1695     1.0  0.52365  0.33170  0.11051  1.0000
  H   H1696     1.0  0.73347  0.11116  0.06240  1.0000
  C   C1000     1.0  0.73594  0.98068  0.27554  1.0000
  H   H1697     1.0  0.69719  0.14623  0.27537  1.0000
  C   C1001     1.0  0.75592  0.02065  0.25426  1.0000
  C   C1002     1.0  0.52112  0.05463  0.11535  1.0000
  H   H1698     1.0  0.65765  0.47139  0.14583  1.0000
  C   C1003     1.0  0.52449  0.03855  0.30919  1.0000
  H   H1699     1.0  0.53577  0.98727  0.28981  1.0000
  H   H1700     1.0  0.72804  0.09937  0.31860  1.0000
  H   H1701     1.0  0.73649  0.14450  0.08548  1.0000
  H   H1702     1.0  0.52102  0.06289  0.09946  1.0000
  C   C1004     1.0  0.75184  0.14353  0.08706  1.0000
  H   H1703     1.0  0.53886  0.00993  0.32960  1.0000
  H   H1704     1.0  0.52291  0.45984  0.00051  1.0000
  N   N72       1.0  0.75807  0.09293  0.07647  1.0000
  C   C1005     1.0  0.73422  0.98330  0.25348  1.0000
  H   H1705     1.0  0.52021  0.01280  0.10499  1.0000
  C   C1006     1.0  0.75896  0.11465  0.09329  1.0000
  H   H1706     1.0  0.74047  0.07206  0.03854  1.0000
  H   H1707     1.0  0.51207  0.07534  0.02119  1.0000
  H   H1708     1.0  0.63955  0.47129  0.11279  1.0000
  H   H1709     1.0  0.74340  0.33617  0.26652  1.0000
  H   H1710     1.0  0.75813  0.11584  0.32435  1.0000
  C   C1007     1.0  0.75326  0.33877  0.25291  1.0000
  C   C1008     1.0  0.75959  0.36871  0.25137  1.0000
  H   H1711     1.0  0.75660  0.37775  0.26728  1.0000
  C   C1009     1.0  0.76093  0.38288  0.21347  1.0000
  H   H1712     1.0  0.51198  0.05237  0.31013  1.0000
  H   H1713     1.0  0.51435  0.12136  0.00090  1.0000
  C   C1010     1.0  0.74673  0.11928  0.00081  1.0000
  C   C1011     1.0  0.69516  0.44012  0.46385  1.0000
  C   C1012     1.0  0.53917  0.03488  0.64658  1.0000
  H   H1714     1.0  0.72920  0.03376  0.64189  1.0000
  H   H1715     1.0  0.59498  0.98715  0.59575  1.0000
  Fe  Fe146     1.0  0.56389  0.19631  0.60441  1.0000
  S   S290      1.0  0.54547  0.18511  0.63220  1.0000
  S   S291      1.0  0.59491  0.20382  0.60378  1.0000
  Fe  Fe147     1.0  0.53098  0.20166  0.57397  1.0000
  Fe  Fe148     1.0  0.52670  0.21918  0.62008  1.0000
  H   H1716     1.0  0.51390  0.01838  0.63502  1.0000
  Fe  Fe149     1.0  0.53105  0.15783  0.60932  1.0000
  C   C1013     1.0  0.73411  0.25996  0.46085  1.0000
  S   S292      1.0  0.54593  0.23167  0.59367  1.0000
  S   S293      1.0  0.55090  0.16702  0.58225  1.0000
  H   H1717     1.0  0.74024  0.07825  0.65485  1.0000
  H   H1718     1.0  0.52473  0.29322  0.54462  1.0000
  H   H1719     1.0  0.59497  0.45234  0.63639  1.0000
  S   S294      1.0  0.71955  0.26358  0.64429  1.0000
  C   C1014     1.0  0.58387  0.98746  0.60822  1.0000
  H   H1720     1.0  0.61498  0.33190  0.59009  1.0000
  H   H1721     1.0  0.74389  0.43329  0.42584  1.0000
  Fe  Fe150     1.0  0.67319  0.42695  0.60367  1.0000
  S   S295      1.0  0.68168  0.44613  0.63377  1.0000
  S   S296      1.0  0.64357  0.41288  0.60050  1.0000
  Fe  Fe151     1.0  0.71241  0.43140  0.58287  1.0000
  S   S297      1.0  0.72352  0.45022  0.61249  1.0000
  S   S298      1.0  0.73152  0.43059  0.55314  1.0000
  Fe  Fe152     1.0  0.70689  0.41817  0.62971  1.0000
  H   H1722     1.0  0.66529  0.35135  0.66016  1.0000
  H   H1723     1.0  0.74082  0.36095  0.45498  1.0000
  S   S299      1.0  0.69124  0.01419  0.63428  1.0000
  S   S300      1.0  0.69772  0.39767  0.60027  1.0000
  S   S301      1.0  0.68670  0.45895  0.58338  1.0000
  C   C1015     1.0  0.72984  0.43682  0.43329  1.0000
  H   H1724     1.0  0.58335  0.30157  0.61677  1.0000
  H   H1725     1.0  0.69157  0.44588  0.44744  1.0000
  C   C1016     1.0  0.52097  0.97938  0.36405  1.0000
  C   C1017     1.0  0.75292  0.47140  0.46193  1.0000
  H   H1726     1.0  0.51258  0.13020  0.50911  1.0000
  C   C1018     1.0  0.68449  0.32310  0.60059  1.0000
  H   H1727     1.0  0.59720  0.32269  0.65961  1.0000
  S   S302      1.0  0.52501  0.37788  0.62889  1.0000
  H   H1728     1.0  0.51634  0.12423  0.56793  1.0000
  C   C1019     1.0  0.75311  0.40620  0.52144  1.0000
  H   H1729     1.0  0.67806  0.32929  0.58549  1.0000
  C   C1020     1.0  0.73931  0.40226  0.53730  1.0000
  C   C1021     1.0  0.73193  0.37628  0.53973  1.0000
  C   C1022     1.0  0.73818  0.35468  0.52641  1.0000
  S   S303      1.0  0.54739  0.00460  0.65981  1.0000
  H   H1730     1.0  0.52182  0.15454  0.55453  1.0000
  H   H1731     1.0  0.72135  0.37283  0.55185  1.0000
  H   H1732     1.0  0.73231  0.33475  0.52851  1.0000
  C   C1023     1.0  0.59020  0.46962  0.62622  1.0000
  H   H1733     1.0  0.65348  0.41064  0.64510  1.0000
  C   C1024     1.0  0.62943  0.20606  0.66375  1.0000
  C   C1025     1.0  0.71722  0.29918  0.64833  1.0000
  C   C1026     1.0  0.72460  0.31688  0.63298  1.0000
  C   C1027     1.0  0.72301  0.34534  0.63554  1.0000
  H   H1734     1.0  0.73171  0.30854  0.61909  1.0000
  H   H1735     1.0  0.72905  0.35876  0.62376  1.0000
  C   C1028     1.0  0.66688  0.27495  0.63871  1.0000
  C   C1029     1.0  0.51665  0.06071  0.62543  1.0000
  H   H1736     1.0  0.67236  0.25522  0.63221  1.0000
  C   C1030     1.0  0.70015  0.04576  0.64353  1.0000
  H   H1737     1.0  0.73601  0.28135  0.48994  1.0000
  N   N73       1.0  0.65369  0.32020  0.62246  1.0000
  H   H1738     1.0  0.73135  0.20648  0.48956  1.0000
  H   H1739     1.0  0.60754  0.05327  0.66363  1.0000
  H   H1740     1.0  0.67131  0.35520  0.61948  1.0000
  C   C1031     1.0  0.60808  0.20318  0.62698  1.0000
  C   C1032     1.0  0.62690  0.21025  0.62566  1.0000
  C   C1033     1.0  0.63758  0.21150  0.64396  1.0000
  H   H1741     1.0  0.75727  0.28122  0.52486  1.0000
  N   N74       1.0  0.73061  0.43124  0.45678  1.0000
  C   C1034     1.0  0.60002  0.19714  0.64673  1.0000
  H   H1742     1.0  0.63325  0.21474  0.61040  1.0000
  H   H1743     1.0  0.65206  0.21687  0.64277  1.0000
  H   H1744     1.0  0.53135  0.99559  0.36534  1.0000
  H   H1745     1.0  0.64517  0.00772  0.64131  1.0000
  C   C1035     1.0  0.60095  0.39545  0.64113  1.0000
  C   C1036     1.0  0.61184  0.39953  0.62268  1.0000
  C   C1037     1.0  0.63072  0.40584  0.62396  1.0000
  C   C1038     1.0  0.63883  0.40681  0.64384  1.0000
  H   H1746     1.0  0.64324  0.35249  0.60191  1.0000
  H   H1747     1.0  0.58642  0.39070  0.63986  1.0000
  H   H1748     1.0  0.60551  0.39820  0.60737  1.0000
  C   C1039     1.0  0.61532  0.03662  0.65509  1.0000
  C   C1040     1.0  0.52340  0.34255  0.63366  1.0000
  H   H1749     1.0  0.51389  0.31275  0.57889  1.0000
  H   H1750     1.0  0.75467  0.17015  0.48895  1.0000
  H   H1751     1.0  0.65882  0.27079  0.65353  1.0000
  C   C1041     1.0  0.69371  0.09270  0.65615  1.0000
  C   C1042     1.0  0.52743  0.08431  0.62607  1.0000
  H   H1752     1.0  0.66370  0.31534  0.66648  1.0000
  H   H1753     1.0  0.52120  0.03070  0.34193  1.0000
  H   H1754     1.0  0.57710  0.43957  0.60676  1.0000
  H   H1755     1.0  0.56562  0.32654  0.64029  1.0000
  H   H1756     1.0  0.67947  0.28610  0.64249  1.0000
  H   H1757     1.0  0.54042  0.13172  0.52806  1.0000
  H   H1758     1.0  0.62148  0.00509  0.61078  1.0000
  S   S304      1.0  0.75908  0.33044  0.49415  1.0000
  H   H1759     1.0  0.75417  0.22794  0.52772  1.0000
  C   C1043     1.0  0.52978  0.32405  0.61812  1.0000
  C   C1044     1.0  0.58621  0.45736  0.60445  1.0000
  H   H1760     1.0  0.67270  0.06446  0.64713  1.0000
  N   N75       1.0  0.74857  0.24111  0.49538  1.0000
  H   H1761     1.0  0.75828  0.38477  0.46030  1.0000
  H   H1762     1.0  0.58768  0.02027  0.65250  1.0000
  H   H1763     1.0  0.61395  0.33251  0.61818  1.0000
  C   C1045     1.0  0.51810  0.28601  0.63891  1.0000
  H   H1764     1.0  0.70499  0.41012  0.42939  1.0000
  H   H1765     1.0  0.57766  0.00834  0.60994  1.0000
  C   C1046     1.0  0.64385  0.33057  0.64236  1.0000
  S   S305      1.0  0.69098  0.19820  0.65612  1.0000
  H   H1766     1.0  0.74466  0.26713  0.54689  1.0000
  Fe  Fe153     1.0  0.53161  0.40396  0.65695  1.0000
  H   H1767     1.0  0.62578  0.46146  0.63234  1.0000
  C   C1047     1.0  0.65459  0.28941  0.62216  1.0000
  C   C1048     1.0  0.71923  0.04999  0.64585  1.0000
  C   C1049     1.0  0.71542  0.44704  0.46868  1.0000
  C   C1050     1.0  0.51476  0.33268  0.65208  1.0000
  S   S306      1.0  0.51922  0.11476  0.61305  1.0000
  H   H1768     1.0  0.74826  0.26239  0.45388  1.0000
  H   H1769     1.0  0.71979  0.25459  0.49079  1.0000
  H   H1770     1.0  0.71595  0.39276  0.45790  1.0000
  C   C1051     1.0  0.72546  0.07533  0.65324  1.0000
  H   H1771     1.0  0.68373  0.10896  0.65998  1.0000
  H   H1772     1.0  0.68150  0.32817  0.63385  1.0000
  H   H1773     1.0  0.70982  0.43290  0.40818  1.0000
  C   C1052     1.0  0.60888  0.39752  0.66105  1.0000
  H   H1774     1.0  0.76090  0.42976  0.45662  1.0000
  H   H1775     1.0  0.69816  0.33317  0.60084  1.0000
  H   H1776     1.0  0.71629  0.46927  0.46539  1.0000
  C   C1053     1.0  0.58413  0.31443  0.66663  1.0000
  C   C1054     1.0  0.71279  0.09696  0.65837  1.0000
  C   C1055     1.0  0.68749  0.06733  0.64882  1.0000
  H   H1777     1.0  0.64821  0.32109  0.58878  1.0000
  S   S307      1.0  0.52516  0.21042  0.53916  1.0000
  H   H1778     1.0  0.55469  0.32839  0.66631  1.0000
  C   C1056     1.0  0.72940  0.40134  0.46232  1.0000
  H   H1779     1.0  0.69200  0.41850  0.46714  1.0000
  C   C1057     1.0  0.64246  0.32990  0.60380  1.0000
  C   C1058     1.0  0.74905  0.44072  0.46474  1.0000
  C   C1059     1.0  0.74477  0.38249  0.45244  1.0000
  H   H1780     1.0  0.60559  0.28456  0.64009  1.0000
  H   H1781     1.0  0.56289  0.05789  0.65562  1.0000
  S   S308      1.0  0.51361  0.25095  0.64239  1.0000
  H   H1782     1.0  0.65303  0.99152  0.61749  1.0000
  C   C1060     1.0  0.75191  0.35864  0.51048  1.0000
  H   H1783     1.0  0.63730  0.35105  0.63955  1.0000
  C   C1061     1.0  0.71421  0.35634  0.65363  1.0000
  H   H1784     1.0  0.54548  0.11423  0.55219  1.0000
  C   C1062     1.0  0.62154  0.32316  0.60445  1.0000
  H   H1785     1.0  0.58373  0.26553  0.61122  1.0000
  H   H1786     1.0  0.73043  0.23285  0.52235  1.0000
  H   H1787     1.0  0.63215  0.31720  0.64693  1.0000
  H   H1788     1.0  0.62456  0.47159  0.60564  1.0000
  H   H1789     1.0  0.64046  0.28105  0.62472  1.0000
  C   C1063     1.0  0.51765  0.13318  0.55187  1.0000
  H   H1790     1.0  0.51953  0.23088  0.49716  1.0000
  C   C1064     1.0  0.71645  0.41959  0.42031  1.0000
  C   C1065     1.0  0.52244  0.03620  0.63559  1.0000
  H   H1791     1.0  0.55270  0.10080  0.63766  1.0000
  H   H1792     1.0  0.75043  0.43582  0.48186  1.0000
  H   H1793     1.0  0.72441  0.40359  0.41122  1.0000
  H   H1794     1.0  0.53199  0.28198  0.60855  1.0000
  H   H1795     1.0  0.74671  0.38571  0.43520  1.0000
  S   S309      1.0  0.55727  0.42859  0.65263  1.0000
  C   C1066     1.0  0.62797  0.40256  0.66230  1.0000
  H   H1796     1.0  0.72534  0.27750  0.45533  1.0000
  C   C1067     1.0  0.75943  0.38457  0.50817  1.0000
  H   H1797     1.0  0.58560  0.19134  0.64788  1.0000
  C   C1068     1.0  0.64306  0.98988  0.63112  1.0000
  C   C1069     1.0  0.55000  0.05844  0.64709  1.0000
  H   H1798     1.0  0.59825  0.03025  0.62875  1.0000
  C   C1070     1.0  0.60127  0.01899  0.64364  1.0000
  C   C1071     1.0  0.73414  0.25975  0.48524  1.0000
  H   H1799     1.0  0.74868  0.21222  0.46948  1.0000
  H   H1800     1.0  0.75914  0.42608  0.51962  1.0000
  H   H1801     1.0  0.68566  0.45249  0.47437  1.0000
  C   C1072     1.0  0.58028  0.28118  0.62347  1.0000
  H   H1802     1.0  0.53658  0.33159  0.60390  1.0000
  H   H1803     1.0  0.56584  0.23605  0.64910  1.0000
  H   H1804     1.0  0.59564  0.25280  0.64308  1.0000
  C   C1073     1.0  0.62305  0.98852  0.62277  1.0000
  H   H1805     1.0  0.62530  0.04590  0.64364  1.0000
  N   N76       1.0  0.60714  0.98985  0.63890  1.0000
  H   H1806     1.0  0.68752  0.30079  0.60091  1.0000
  C   C1074     1.0  0.74471  0.26970  0.52943  1.0000
  C   C1075     1.0  0.67270  0.33248  0.62005  1.0000
  H   H1807     1.0  0.56512  0.27961  0.62623  1.0000
  C   C1076     1.0  0.52724  0.29588  0.62078  1.0000
  C   C1077     1.0  0.53434  0.11846  0.54059  1.0000
  S   S310      1.0  0.71355  0.39185  0.65813  1.0000
  C   C1078     1.0  0.54422  0.08294  0.63693  1.0000
  C   C1079     1.0  0.56196  0.24269  0.66538  1.0000
  H   H1808     1.0  0.65889  0.28147  0.60627  1.0000
  H   H1809     1.0  0.52044  0.28699  0.35805  1.0000
  H   H1810     1.0  0.59912  0.44985  0.59617  1.0000
  H   H1811     1.0  0.57835  0.97716  0.64040  1.0000
  S   S311      1.0  0.76115  0.06239  0.35152  1.0000
  H   H1812     1.0  0.61938  0.30086  0.60409  1.0000
  H   H1813     1.0  0.72979  0.39840  0.47980  1.0000
  H   H1814     1.0  0.51311  0.33397  0.36227  1.0000
  H   H1815     1.0  0.53053  0.09879  0.53356  1.0000
  H   H1816     1.0  0.71714  0.44448  0.48608  1.0000
  H   H1817     1.0  0.72630  0.45875  0.43027  1.0000
  C   C1080     1.0  0.56785  0.33115  0.65707  1.0000
  C   C1081     1.0  0.74443  0.24138  0.51888  1.0000
  C   C1082     1.0  0.65570  0.33405  0.66216  1.0000
  C   C1083     1.0  0.59196  0.27495  0.64317  1.0000
  H   H1818     1.0  0.57091  0.35319  0.65798  1.0000
  H   H1819     1.0  0.72795  0.24124  0.45452  1.0000
  H   H1820     1.0  0.73207  0.28218  0.52564  1.0000
  H   H1821     1.0  0.55410  0.28368  0.65784  1.0000
  C   C1084     1.0  0.74605  0.21277  0.48690  1.0000
  N   N77       1.0  0.58387  0.28373  0.66435  1.0000
  C   C1085     1.0  0.70795  0.31020  0.66616  1.0000
  Fe  Fe154     1.0  0.69708  0.47643  0.61372  1.0000
  C   C1086     1.0  0.61064  0.19882  0.66507  1.0000
  H   H1822     1.0  0.75760  0.18771  0.51310  1.0000
  H   H1823     1.0  0.57661  0.47636  0.63356  1.0000
  H   H1824     1.0  0.57857  0.47216  0.59427  1.0000
  C   C1087     1.0  0.75884  0.18990  0.49570  1.0000
  C   C1088     1.0  0.51200  0.30453  0.65459  1.0000
  H   H1825     1.0  0.62481  0.98222  0.66607  1.0000
  Fe  Fe155     1.0  0.52641  0.41874  0.70328  1.0000
  Fe  Fe156     1.0  0.56553  0.40952  0.68313  1.0000
  H   H1826     1.0  0.72662  0.27712  0.72068  1.0000
  S   S312      1.0  0.55253  0.44354  0.70276  1.0000
  S   S313      1.0  0.54056  0.38300  0.68669  1.0000
  C   C1089     1.0  0.72452  0.36269  0.73396  1.0000
  S   S314      1.0  0.59540  0.39335  0.68451  1.0000
  H   H1827     1.0  0.53989  0.41119  0.80686  1.0000
  Fe  Fe157     1.0  0.70770  0.21290  0.71356  1.0000
  H   H1828     1.0  0.55940  0.27903  0.68458  1.0000
  S   S315      1.0  0.71422  0.22022  0.74847  1.0000
  Fe  Fe158     1.0  0.67358  0.20735  0.68534  1.0000
  S   S316      1.0  0.64197  0.20993  0.68715  1.0000
  H   H1829     1.0  0.69829  0.10888  0.94455  1.0000
  S   S317      1.0  0.68947  0.17755  0.70582  1.0000
  S   S318      1.0  0.69004  0.24320  0.69543  1.0000
  H   H1830     1.0  0.58413  0.32030  0.68366  1.0000
  H   H1831     1.0  0.71054  0.17763  0.89567  1.0000
  H   H1832     1.0  0.74753  0.38130  0.71533  1.0000
  H   H1833     1.0  0.75578  0.10609  0.73955  1.0000
  H   H1834     1.0  0.52734  0.37029  0.74743  1.0000
  H   H1835     1.0  0.69940  0.34719  0.68262  1.0000
  C   C1090     1.0  0.73209  0.38133  0.71619  1.0000
  Fe  Fe159     1.0  0.54275  0.46157  0.67182  1.0000
  H   H1836     1.0  0.74960  0.40479  0.90725  1.0000
  H   H1837     1.0  0.52308  0.43240  0.85018  1.0000
  C   C1091     1.0  0.72441  0.13043  0.95077  1.0000
  C   C1092     1.0  0.73965  0.37694  0.93276  1.0000
  H   H1838     1.0  0.70192  0.29677  0.67788  1.0000
  C   C1093     1.0  0.53049  0.42944  0.80571  1.0000
  H   H1839     1.0  0.70681  0.20647  0.92746  1.0000
  H   H1840     1.0  0.62426  0.27324  0.66691  1.0000
  H   H1841     1.0  0.73232  0.41914  0.92435  1.0000
  H   H1842     1.0  0.69265  0.15004  0.92937  1.0000
  C   C1094     1.0  0.72933  0.24725  0.78185  1.0000
  H   H1843     1.0  0.71673  0.24180  0.79041  1.0000
  C   C1095     1.0  0.72366  0.12189  0.72189  1.0000
  C   C1096     1.0  0.73197  0.23893  0.76069  1.0000
  S   S319      1.0  0.51577  0.43864  0.67324  1.0000
  C   C1097     1.0  0.75870  0.27116  0.78085  1.0000
  C   C1098     1.0  0.51434  0.38578  0.83403  1.0000
  H   H1844     1.0  0.60430  0.19436  0.68034  1.0000
  C   C1099     1.0  0.73708  0.08908  0.76224  1.0000
  C   C1100     1.0  0.74951  0.34189  0.90631  1.0000
  H   H1845     1.0  0.68754  0.20414  0.94570  1.0000
  H   H1846     1.0  0.73687  0.33184  0.70068  1.0000
  S   S320      1.0  0.75371  0.09175  0.98383  1.0000
  H   H1847     1.0  0.68532  0.19304  0.91915  1.0000
  C   C1101     1.0  0.71358  0.10506  0.94437  1.0000
  H   H1848     1.0  0.74869  0.35728  0.89332  1.0000
  H   H1849     1.0  0.73887  0.32646  0.78051  1.0000
  C   C1102     1.0  0.74299  0.15872  0.73387  1.0000
  H   H1850     1.0  0.70916  0.36156  0.73189  1.0000
  S   S321      1.0  0.75977  0.07636  0.92414  1.0000
  H   H1851     1.0  0.58989  0.27581  0.69735  1.0000
  C   C1103     1.0  0.69513  0.19355  0.93247  1.0000
  C   C1104     1.0  0.70624  0.10447  0.72522  1.0000
  H   H1852     1.0  0.51720  0.35101  0.85536  1.0000
  H   H1853     1.0  0.64628  0.33933  0.67581  1.0000
  C   C1105     1.0  0.72750  0.14984  0.91546  1.0000
  C   C1106     1.0  0.75773  0.15354  0.71603  1.0000
  H   H1854     1.0  0.71902  0.33788  0.91108  1.0000
  H   H1855     1.0  0.71958  0.13278  0.90895  1.0000
  H   H1856     1.0  0.71394  0.19834  0.96944  1.0000
  H   H1857     1.0  0.74241  0.14279  0.91510  1.0000
  N   N78       1.0  0.73326  0.33435  0.73486  1.0000
  H   H1858     1.0  0.72917  0.31894  0.88957  1.0000
  C   C1107     1.0  0.70077  0.16405  0.93919  1.0000
  H   H1859     1.0  0.71842  0.09670  0.92889  1.0000
  N   N79       1.0  0.73210  0.13429  0.74116  1.0000
  H   H1860     1.0  0.75511  0.45207  0.87033  1.0000
  H   H1861     1.0  0.56977  0.23020  0.67703  1.0000
  Fe  Fe160     1.0  0.70805  0.17025  0.67703  1.0000
  S   S322      1.0  0.72748  0.20383  0.68622  1.0000
  C   C1108     1.0  0.74848  0.24574  0.74999  1.0000
  H   H1862     1.0  0.73803  0.20352  0.97393  1.0000
  H   H1863     1.0  0.74002  0.27025  0.80791  1.0000
  H   H1864     1.0  0.70712  0.12859  0.76093  1.0000
  H   H1865     1.0  0.69382  0.11737  0.72970  1.0000
  H   H1866     1.0  0.61765  0.30262  0.68331  1.0000
  H   H1867     1.0  0.73272  0.19164  0.90298  1.0000
  H   H1868     1.0  0.70300  0.09480  0.70991  1.0000
  H   H1869     1.0  0.74253  0.38628  0.94830  1.0000
  H   H1870     1.0  0.73523  0.28466  0.69483  1.0000
  C   C1109     1.0  0.72339  0.31799  0.75176  1.0000
  H   H1871     1.0  0.75435  0.12464  0.76305  1.0000
  C   C1110     1.0  0.71695  0.14468  0.75626  1.0000
  C   C1111     1.0  0.74548  0.11436  0.75144  1.0000
  H   H1872     1.0  0.73288  0.30663  0.91561  1.0000
  H   H1873     1.0  0.71863  0.34922  0.77673  1.0000
  C   C1112     1.0  0.61646  0.28029  0.68128  1.0000
  H   H1874     1.0  0.74824  0.16916  0.94791  1.0000
  S   S323      1.0  0.72164  0.12852  0.66772  1.0000
  H   H1875     1.0  0.73490  0.19550  0.93657  1.0000
  H   H1876     1.0  0.73950  0.12432  0.95041  1.0000
  H   H1877     1.0  0.72590  0.37389  0.74894  1.0000
  H   H1878     1.0  0.71597  0.31479  0.78502  1.0000
  H   H1879     1.0  0.76099  0.32739  0.90135  1.0000
  C   C1113     1.0  0.75404  0.33432  0.73824  1.0000
  C   C1114     1.0  0.51202  0.11441  0.95415  1.0000
  C   C1115     1.0  0.59599  0.27133  0.68133  1.0000
  N   N80       1.0  0.72122  0.15613  0.93788  1.0000
  H   H1880     1.0  0.73169  0.14184  0.78655  1.0000
  H   H1881     1.0  0.72570  0.36817  0.93542  1.0000
  C   C1116     1.0  0.72972  0.32097  0.71392  1.0000
  H   H1882     1.0  0.73610  0.07208  0.75081  1.0000
  H   H1883     1.0  0.75070  0.28712  0.71633  1.0000
  C   C1117     1.0  0.51401  0.37102  0.75579  1.0000
  H   H1884     1.0  0.75055  0.16786  0.74712  1.0000
  H   H1885     1.0  0.59679  0.24873  0.68014  1.0000
  C   C1118     1.0  0.72444  0.32824  0.77463  1.0000
  H   H1886     1.0  0.72826  0.17195  0.98138  1.0000
  H   H1887     1.0  0.71455  0.32201  0.71054  1.0000
  H   H1888     1.0  0.71638  0.08859  0.95613  1.0000
  H   H1889     1.0  0.70804  0.16050  0.74833  1.0000
  H   H1890     1.0  0.73420  0.10911  0.71293  1.0000
  C   C1119     1.0  0.75597  0.33346  0.94405  1.0000
  C   C1120     1.0  0.73362  0.17738  0.94692  1.0000
  H   H1891     1.0  0.51903  0.09441  0.95067  1.0000
  H   H1892     1.0  0.52951  0.38930  0.83533  1.0000
  H   H1893     1.0  0.75904  0.31395  0.74388  1.0000
  H   H1894     1.0  0.75096  0.23894  0.73391  1.0000
  H   H1895     1.0  0.73179  0.16565  0.88375  1.0000
  C   C1121     1.0  0.70654  0.33870  0.66883  1.0000
  C   C1122     1.0  0.74258  0.26329  0.79188  1.0000
  H   H1896     1.0  0.53444  0.44514  0.81720  1.0000
  H   H1897     1.0  0.71122  0.16346  0.78681  1.0000
  H   H1898     1.0  0.70819  0.08787  0.73687  1.0000
  C   C1123     1.0  0.72790  0.18811  0.96912  1.0000
  C   C1124     1.0  0.73843  0.32778  0.95782  1.0000
  H   H1899     1.0  0.72058  0.13381  0.96767  1.0000
  H   H1900     1.0  0.73186  0.17552  0.77444  1.0000
  H   H1901     1.0  0.71923  0.13827  0.71075  1.0000
  H   H1902     1.0  0.59166  0.99295  0.68102  1.0000
  C   C1125     1.0  0.72364  0.15695  0.77708  1.0000
  C   C1126     1.0  0.72538  0.17289  0.89895  1.0000
  H   H1903     1.0  0.63432  0.40364  0.67761  1.0000
  H   H1904     1.0  0.69526  0.16114  0.95566  1.0000
  N   N81       1.0  0.75407  0.35511  0.92696  1.0000
  Fe  Fe161     1.0  0.70865  0.23218  0.66766  1.0000
  H   H1905     1.0  0.72608  0.32329  0.94842  1.0000
  H   H1906     1.0  0.53287  0.43813  0.78963  1.0000
  H   H1907     1.0  0.73501  0.34518  0.96852  1.0000
  H   H1908     1.0  0.72330  0.09306  0.76992  1.0000
  H   H1909     1.0  0.75145  0.14639  0.70124  1.0000
  H   H1910     1.0  0.62356  0.27034  0.69486  1.0000
  H   H1911     1.0  0.73335  0.17515  0.72804  1.0000
  H   H1912     1.0  0.72910  0.29676  0.75225  1.0000
  H   H1913     1.0  0.70833  0.31629  0.74809  1.0000
  C   C1127     1.0  0.73150  0.32559  0.90605  1.0000
  H   H1914     1.0  0.74131  0.30969  0.96801  1.0000
  H   H1915     1.0  0.72597  0.39441  0.90476  1.0000
  C   C1128     1.0  0.73605  0.29076  0.71168  1.0000
  H   H1916     1.0  0.59632  0.47192  0.66889  1.0000
  H   H1917     1.0  0.72673  0.37553  0.70059  1.0000
  H   H1918     1.0  0.52049  0.33625  0.77565  1.0000
  H   H1919     1.0  0.54701  0.23800  0.66792  1.0000
  S   S324      1.0  0.76081  0.32039  0.85232  1.0000
  H   H1920     1.0  0.74623  0.08222  0.77528  1.0000
  H   H1921     1.0  0.72707  0.40267  0.71906  1.0000
  C   C1129     1.0  0.73673  0.39990  0.91624  1.0000
  H   H1922     1.0  0.51675  0.07784  0.98337  1.0000
  H   H1923     1.0  0.75112  0.36398  0.76542  1.0000
  H   H1924     1.0  0.52081  0.12677  0.96437  1.0000
  H   H1925     1.0  0.76113  0.31365  0.93716  1.0000
  H   H1926     1.0  0.51301  0.37134  0.82060  1.0000
  C   C1130     1.0  0.56440  0.27361  0.66829  1.0000
  H   H1927     1.0  0.62310  0.02561  0.66750  1.0000
  H   H1928     1.0  0.53370  0.85369  0.02623  1.0000
  N   N82       1.0  0.74774  0.61526  0.30248  1.0000
  C   C1131     1.0  0.74627  0.61780  0.00497  1.0000
  Fe  Fe162     1.0  0.53722  0.89428  0.10052  1.0000
  S   S325      1.0  0.55568  0.90856  0.07363  1.0000
  H   H1929     1.0  0.71935  0.57643  0.31641  1.0000
  Fe  Fe163     1.0  0.56904  0.93515  0.09739  1.0000
  S   S326      1.0  0.60020  0.94194  0.09639  1.0000
  Fe  Fe164     1.0  0.53477  0.94312  0.06906  1.0000
  S   S327      1.0  0.55223  0.91858  0.12469  1.0000
  Fe  Fe165     1.0  0.53531  0.70579  0.17110  1.0000
  S   S328      1.0  0.54721  0.69140  0.20206  1.0000
  Fe  Fe166     1.0  0.52624  0.64617  0.16001  1.0000
  S   S329      1.0  0.53784  0.62874  0.18998  1.0000
  S   S330      1.0  0.51604  0.61805  0.13459  1.0000
  Fe  Fe167     1.0  0.52256  0.66408  0.20577  1.0000
  Fe  Fe168     1.0  0.56108  0.65760  0.18320  1.0000
  S   S331      1.0  0.59176  0.64647  0.18593  1.0000
  S   S332      1.0  0.55051  0.67295  0.15229  1.0000
  Fe  Fe169     1.0  0.67255  0.67535  0.10632  1.0000
  S   S333      1.0  0.68321  0.68709  0.13774  1.0000
  S   S334      1.0  0.64253  0.66218  0.10337  1.0000
  Fe  Fe170     1.0  0.71038  0.68486  0.08412  1.0000
  S   S335      1.0  0.72302  0.69818  0.11483  1.0000
  S   S336      1.0  0.73019  0.68381  0.05487  1.0000
  Fe  Fe171     1.0  0.70850  0.66181  0.12860  1.0000
  S   S337      1.0  0.72132  0.63298  0.15270  1.0000
  Fe  Fe172     1.0  0.69630  0.72272  0.12107  1.0000
  S   S338      1.0  0.68840  0.76209  0.13955  1.0000
  S   S339      1.0  0.69716  0.64757  0.09798  1.0000
  S   S340      1.0  0.68444  0.71187  0.08948  1.0000
  Fe  Fe173     1.0  0.71065  0.96030  0.20535  1.0000
  S   S341      1.0  0.72937  0.95294  0.17665  1.0000
  H   H1930     1.0  0.73925  0.63153  0.07861  1.0000
  Fe  Fe174     1.0  0.67544  0.95948  0.17887  1.0000
  S   S342      1.0  0.69154  0.95247  0.14864  1.0000
  H   H1931     1.0  0.75095  0.50194  0.23537  1.0000
  Fe  Fe175     1.0  0.70866  0.92174  0.16670  1.0000
  S   S343      1.0  0.71895  0.88295  0.14935  1.0000
  C   C1132     1.0  0.75076  0.50181  0.25247  1.0000
  S   S344      1.0  0.72073  0.50453  0.14185  1.0000
  S   S345      1.0  0.69126  0.92665  0.19650  1.0000
  H   H1932     1.0  0.59093  0.70181  0.09429  1.0000
  H   H1933     1.0  0.68182  0.60488  0.17352  1.0000
  C   C1133     1.0  0.51672  0.58230  0.13854  1.0000
  H   H1934     1.0  0.72291  0.60484  0.28571  1.0000
  C   C1134     1.0  0.62696  0.55398  0.18459  1.0000
  H   H1935     1.0  0.61617  0.53822  0.18629  1.0000
  C   C1135     1.0  0.73013  0.61523  0.01787  1.0000
  H   H1936     1.0  0.63486  0.55354  0.19936  1.0000
  H   H1937     1.0  0.52715  0.89793  0.00893  1.0000
  C   C1136     1.0  0.52511  0.97178  0.29295  1.0000
  S   S346      1.0  0.52873  0.95320  0.03444  1.0000
  H   H1938     1.0  0.67424  0.52956  0.17003  1.0000
  C   C1137     1.0  0.71957  0.59728  0.15022  1.0000
  C   C1138     1.0  0.72556  0.58018  0.16673  1.0000
  C   C1139     1.0  0.72526  0.55161  0.16473  1.0000
  C   C1140     1.0  0.71931  0.54001  0.14599  1.0000
  C   C1141     1.0  0.71302  0.55709  0.12965  1.0000
  C   C1142     1.0  0.71291  0.58560  0.13185  1.0000
  H   H1939     1.0  0.73071  0.58905  0.18102  1.0000
  H   H1940     1.0  0.73022  0.53858  0.17739  1.0000
  H   H1941     1.0  0.70836  0.54819  0.11514  1.0000
  H   H1942     1.0  0.70806  0.59845  0.11913  1.0000
  C   C1143     1.0  0.69772  0.79519  0.14251  1.0000
  C   C1144     1.0  0.71189  0.80500  0.12921  1.0000
  C   C1145     1.0  0.71817  0.83184  0.13161  1.0000
  C   C1146     1.0  0.71038  0.84931  0.14725  1.0000
  C   C1147     1.0  0.69642  0.83942  0.16081  1.0000
  C   C1148     1.0  0.69011  0.81256  0.15839  1.0000
  H   H1943     1.0  0.71791  0.79197  0.11694  1.0000
  H   H1944     1.0  0.72909  0.83916  0.12113  1.0000
  H   H1945     1.0  0.69045  0.85242  0.17310  1.0000
  H   H1946     1.0  0.67920  0.80518  0.16884  1.0000
  H   H1947     1.0  0.72136  0.59787  0.01577  1.0000
  H   H1948     1.0  0.71877  0.87989  0.19466  1.0000
  C   C1149     1.0  0.72510  0.63495  0.03336  1.0000
  C   C1150     1.0  0.73614  0.65768  0.03613  1.0000
  H   H1949     1.0  0.61947  0.57400  0.18299  1.0000
  H   H1950     1.0  0.73086  0.66623  0.28841  1.0000
  H   H1951     1.0  0.71252  0.63276  0.04291  1.0000
  H   H1952     1.0  0.53130  0.95190  0.28756  1.0000
  C   C1151     1.0  0.60575  0.64963  0.16282  1.0000
  C   C1152     1.0  0.59844  0.64662  0.14265  1.0000
  C   C1153     1.0  0.60993  0.64990  0.12453  1.0000
  C   C1154     1.0  0.62869  0.65670  0.12642  1.0000
  C   C1155     1.0  0.63590  0.65960  0.14658  1.0000
  C   C1156     1.0  0.62459  0.65571  0.16469  1.0000
  H   H1953     1.0  0.58398  0.64162  0.14100  1.0000
  H   H1954     1.0  0.60418  0.64766  0.10900  1.0000
  H   H1955     1.0  0.65019  0.66493  0.14832  1.0000
  H   H1956     1.0  0.63034  0.65817  0.18021  1.0000
  H   H1957     1.0  0.67357  0.61620  0.14793  1.0000
  C   C1157     1.0  0.61169  0.94910  0.11993  1.0000
  C   C1158     1.0  0.60297  0.94577  0.13972  1.0000
  C   C1159     1.0  0.61289  0.95032  0.15823  1.0000
  C   C1160     1.0  0.72820  0.62196  0.29527  1.0000
  H   H1958     1.0  0.52949  0.56645  0.01858  1.0000
  C   C1161     1.0  0.75068  0.50181  0.29691  1.0000
  H   H1959     1.0  0.58870  0.93925  0.14080  1.0000
  C   C1162     1.0  0.73342  0.57478  0.32329  1.0000
  H   H1960     1.0  0.51401  0.52309  0.11045  1.0000
  H   H1961     1.0  0.60617  0.94727  0.17353  1.0000
  H   H1962     1.0  0.73430  0.57563  0.05234  1.0000
  C   C1163     1.0  0.66451  0.53458  0.12834  1.0000
  H   H1963     1.0  0.58051  0.69701  0.11977  1.0000
  C   C1164     1.0  0.51815  0.57763  0.02732  1.0000
  H   H1964     1.0  0.75954  0.93864  0.22879  1.0000
  H   H1965     1.0  0.52179  0.79186  0.09817  1.0000
  C   C1165     1.0  0.54204  0.80503  0.15315  1.0000
  C   C1166     1.0  0.54006  0.82681  0.13858  1.0000
  H   H1966     1.0  0.54765  0.80887  0.16854  1.0000
  H   H1967     1.0  0.54409  0.84712  0.14284  1.0000
  N   N83       1.0  0.65657  0.56408  0.16141  1.0000
  C   C1167     1.0  0.66169  0.56326  0.13812  1.0000
  C   C1168     1.0  0.65270  0.59364  0.16697  1.0000
  C   C1169     1.0  0.74574  0.57441  0.08449  1.0000
  C   C1170     1.0  0.67265  0.55175  0.17341  1.0000
  C   C1171     1.0  0.51326  0.89757  0.00161  1.0000
  C   C1172     1.0  0.66954  0.61253  0.16472  1.0000
  C   C1173     1.0  0.67173  0.55400  0.19772  1.0000
  H   H1968     1.0  0.64300  0.52527  0.16559  1.0000
  H   H1969     1.0  0.65087  0.57432  0.12871  1.0000
  H   H1970     1.0  0.67486  0.57405  0.13482  1.0000
  H   H1971     1.0  0.64724  0.59620  0.18337  1.0000
  H   H1972     1.0  0.64136  0.60228  0.15698  1.0000
  H   H1973     1.0  0.71016  0.65143  0.27930  1.0000
  H   H1974     1.0  0.71099  0.68074  0.00295  1.0000
  H   H1975     1.0  0.74059  0.67293  0.32274  1.0000
  H   H1976     1.0  0.68620  0.55985  0.16775  1.0000
  H   H1977     1.0  0.54379  0.61402  0.31075  1.0000
  C   C1174     1.0  0.51420  0.87776  0.04703  1.0000
  C   C1175     1.0  0.74393  0.90276  0.22121  1.0000
  C   C1176     1.0  0.75736  0.64048  0.00782  1.0000
  H   H1978     1.0  0.66567  0.63275  0.17159  1.0000
  H   H1979     1.0  0.72093  0.59614  0.07155  1.0000
  H   H1980     1.0  0.74792  0.89016  0.17961  1.0000
  S   S347      1.0  0.64391  0.96204  0.18053  1.0000
  H   H1981     1.0  0.75925  0.56658  0.12591  1.0000
  H   H1982     1.0  0.68618  0.55417  0.20370  1.0000
  H   H1983     1.0  0.71994  0.55988  0.07183  1.0000
  N   N84       1.0  0.57957  0.55424  0.12745  1.0000
  C   C1177     1.0  0.59668  0.56662  0.11747  1.0000
  C   C1178     1.0  0.56940  0.57604  0.14031  1.0000
  C   C1179     1.0  0.56672  0.54397  0.11096  1.0000
  C   C1180     1.0  0.58548  0.53036  0.14102  1.0000
  C   C1181     1.0  0.60825  0.54811  0.10212  1.0000
  C   C1182     1.0  0.57841  0.58347  0.16133  1.0000
  C   C1183     1.0  0.56016  0.56521  0.09449  1.0000
  C   C1184     1.0  0.56969  0.51590  0.15332  1.0000
  H   H1984     1.0  0.59299  0.58579  0.10880  1.0000
  H   H1985     1.0  0.60639  0.57307  0.12980  1.0000
  H   H1986     1.0  0.55485  0.57033  0.14401  1.0000
  H   H1987     1.0  0.56791  0.59537  0.13109  1.0000
  H   H1988     1.0  0.57314  0.52618  0.10234  1.0000
  H   H1989     1.0  0.55389  0.53585  0.11857  1.0000
  H   H1990     1.0  0.59224  0.51423  0.13106  1.0000
  H   H1991     1.0  0.59653  0.53569  0.15219  1.0000
  H   H1992     1.0  0.62007  0.55985  0.09549  1.0000
  H   H1993     1.0  0.61444  0.52999  0.11018  1.0000
  H   H1994     1.0  0.60005  0.54147  0.08852  1.0000
  H   H1995     1.0  0.57041  0.60094  0.16845  1.0000
  H   H1996     1.0  0.57784  0.56654  0.17299  1.0000
  H   H1997     1.0  0.59298  0.58998  0.15907  1.0000
  H   H1998     1.0  0.55238  0.58264  0.10197  1.0000
  H   H1999     1.0  0.55036  0.55534  0.08372  1.0000
  H   H2000     1.0  0.57189  0.57269  0.08456  1.0000
  C   C1185     1.0  0.75227  0.66029  0.02322  1.0000
  H   H2001     1.0  0.55839  0.52996  0.15898  1.0000
  H   H2002     1.0  0.57537  0.50617  0.16779  1.0000
  N   N85       1.0  0.59975  0.74186  0.13869  1.0000
  C   C1186     1.0  0.58382  0.76231  0.13654  1.0000
  C   C1187     1.0  0.59466  0.72177  0.15584  1.0000
  C   C1188     1.0  0.60335  0.72642  0.11838  1.0000
  C   C1189     1.0  0.61713  0.75676  0.14399  1.0000
  C   C1190     1.0  0.58566  0.78302  0.11821  1.0000
  C   C1191     1.0  0.59254  0.73327  0.17845  1.0000
  C   C1192     1.0  0.58634  0.71263  0.10897  1.0000
  C   C1193     1.0  0.63438  0.73860  0.14930  1.0000
  H   H2003     1.0  0.57040  0.75179  0.13479  1.0000
  H   H2004     1.0  0.58186  0.77464  0.15118  1.0000
  H   H2005     1.0  0.60502  0.70459  0.15627  1.0000
  H   H2006     1.0  0.58113  0.71232  0.15257  1.0000
  H   H2007     1.0  0.60952  0.73978  0.10594  1.0000
  H   H2008     1.0  0.61398  0.70981  0.12065  1.0000
  H   H2009     1.0  0.62159  0.76992  0.13053  1.0000
  H   H2010     1.0  0.61438  0.77092  0.15747  1.0000
  H   H2011     1.0  0.58677  0.77303  0.10255  1.0000
  H   H2012     1.0  0.57285  0.79630  0.11805  1.0000
  H   H2013     1.0  0.59755  0.79663  0.12028  1.0000
  H   H2014     1.0  0.58913  0.71622  0.18941  1.0000
  H   H2015     1.0  0.60554  0.74214  0.18409  1.0000
  H   H2016     1.0  0.58082  0.74843  0.17991  1.0000
  H   H2017     1.0  0.63211  0.72606  0.16371  1.0000
  H   H2018     1.0  0.64633  0.75186  0.15243  1.0000
  H   H2019     1.0  0.63884  0.72505  0.13603  1.0000
  H   H2020     1.0  0.75421  0.66654  0.09260  1.0000
  S   S348      1.0  0.71974  0.96044  0.23992  1.0000
  H   H2021     1.0  0.71841  0.62415  0.30913  1.0000
  H   H2022     1.0  0.69693  0.86292  0.22105  1.0000
  H   H2023     1.0  0.72424  0.84549  0.20143  1.0000
  N   N86       1.0  0.65244  0.87686  0.11990  1.0000
  C   C1194     1.0  0.66917  0.89470  0.12183  1.0000
  C   C1195     1.0  0.63978  0.88258  0.13884  1.0000
  C   C1196     1.0  0.64256  0.88547  0.10004  1.0000
  C   C1197     1.0  0.65918  0.84741  0.11855  1.0000
  C   C1198     1.0  0.68343  0.89375  0.10318  1.0000
  C   C1199     1.0  0.64874  0.87854  0.16061  1.0000
  C   C1200     1.0  0.62379  0.87222  0.09589  1.0000
  C   C1201     1.0  0.64539  0.82533  0.12583  1.0000
  H   H2024     1.0  0.66466  0.91646  0.12409  1.0000
  H   H2025     1.0  0.67734  0.88902  0.13601  1.0000
  H   H2026     1.0  0.62717  0.87011  0.13895  1.0000
  H   H2027     1.0  0.63425  0.90397  0.13825  1.0000
  H   H2028     1.0  0.63987  0.90796  0.09995  1.0000
  H   H2029     1.0  0.65144  0.88104  0.08576  1.0000
  H   H2030     1.0  0.66405  0.84234  0.10216  1.0000
  H   H2031     1.0  0.67162  0.84424  0.12848  1.0000
  H   H2032     1.0  0.67783  0.90389  0.08886  1.0000
  H   H2033     1.0  0.69590  0.90522  0.10764  1.0000
  H   H2034     1.0  0.68838  0.87264  0.09950  1.0000
  H   H2035     1.0  0.65668  0.85892  0.16171  1.0000
  H   H2036     1.0  0.65793  0.89569  0.16428  1.0000
  H   H2037     1.0  0.63759  0.87866  0.17310  1.0000
  H   H2038     1.0  0.62562  0.85015  0.09254  1.0000
  H   H2039     1.0  0.61780  0.88170  0.08147  1.0000
  H   H2040     1.0  0.61327  0.87606  0.10872  1.0000
  H   H2041     1.0  0.64838  0.80655  0.11642  1.0000
  H   H2042     1.0  0.63048  0.83068  0.12385  1.0000
  H   H2043     1.0  0.64797  0.81915  0.14245  1.0000
  S   S349      1.0  0.69606  0.49238  0.19658  1.0000
  H   H2044     1.0  0.73916  0.57059  0.10018  1.0000
  C   C1202     1.0  0.63015  0.95780  0.11875  1.0000
  C   C1203     1.0  0.72942  0.57715  0.06906  1.0000
  C   C1204     1.0  0.52841  0.85408  0.04281  1.0000
  H   H2045     1.0  0.75820  0.60308  0.13009  1.0000
  C   C1205     1.0  0.52750  0.79565  0.11351  1.0000
  H   H2046     1.0  0.75631  0.60601  0.05183  1.0000
  H   H2047     1.0  0.73684  0.61803  0.10443  1.0000
  Fe  Fe176     1.0  0.53197  0.95292  0.11655  1.0000
  H   H2048     1.0  0.74837  0.57248  0.29349  1.0000
  C   C1206     1.0  0.72479  0.86678  0.20734  1.0000
  S   S350      1.0  0.54980  0.97081  0.09072  1.0000
  S   S351      1.0  0.52965  0.84900  0.09964  1.0000
  H   H2049     1.0  0.74551  0.85509  0.24215  1.0000
  C   C1207     1.0  0.51485  0.56490  0.12120  1.0000
  H   H2050     1.0  0.63688  0.96082  0.10346  1.0000
  C   C1208     1.0  0.52950  0.77385  0.12808  1.0000
  H   H2051     1.0  0.73156  0.64454  0.26528  1.0000
  C   C1209     1.0  0.52014  0.96968  0.31667  1.0000
  H   H2052     1.0  0.75368  0.55520  0.08037  1.0000
  H   H2053     1.0  0.56344  0.49999  0.14346  1.0000
  C   C1210     1.0  0.52908  0.65140  0.32118  1.0000
  C   C1211     1.0  0.64008  0.96226  0.13725  1.0000
  H   H2054     1.0  0.65162  0.52266  0.12927  1.0000
  H   H2055     1.0  0.66456  0.53626  0.20487  1.0000
  H   H2056     1.0  0.74021  0.90170  0.23839  1.0000
  C   C1212     1.0  0.72536  0.64763  0.28137  1.0000
  C   C1213     1.0  0.74878  0.58524  0.30802  1.0000
  C   C1214     1.0  0.75830  0.64747  0.10108  1.0000
  H   H2057     1.0  0.71477  0.85391  0.23915  1.0000
  N   N87       1.0  0.75864  0.59821  0.08543  1.0000
  H   H2058     1.0  0.73267  0.91556  0.21401  1.0000
  C   C1215     1.0  0.63928  0.54749  0.16485  1.0000
  H   H2059     1.0  0.52278  0.83403  0.04741  1.0000
  H   H2060     1.0  0.66824  0.53685  0.11130  1.0000
  H   H2061     1.0  0.52313  0.59760  0.03268  1.0000
  H   H2062     1.0  0.54071  0.85699  0.05282  1.0000
  C   C1216     1.0  0.63157  0.95806  0.15705  1.0000
  C   C1217     1.0  0.53668  0.77845  0.14809  1.0000
  C   C1218     1.0  0.53268  0.82230  0.11866  1.0000
  H   H2063     1.0  0.66512  0.57312  0.20369  1.0000
  H   H2064     1.0  0.62985  0.54989  0.15120  1.0000
  C   C1219     1.0  0.75487  0.87518  0.19039  1.0000
  H   H2065     1.0  0.52539  0.75356  0.12388  1.0000
  S   S352      1.0  0.54008  0.75181  0.16709  1.0000
  H   H2066     1.0  0.70944  0.88945  0.23293  1.0000
  H   H2067     1.0  0.57518  0.72753  0.10454  1.0000
  H   H2068     1.0  0.54022  0.63891  0.28986  1.0000
  C   C1220     1.0  0.71096  0.86850  0.22642  1.0000
  H   H2069     1.0  0.67620  0.52281  0.13555  1.0000
  H   H2070     1.0  0.53983  0.66713  0.31893  1.0000
  C   C1221     1.0  0.53385  0.62949  0.30423  1.0000
  C   C1222     1.0  0.74745  0.62337  0.09209  1.0000
  C   C1223     1.0  0.75679  0.84767  0.17868  1.0000
  C   C1224     1.0  0.73723  0.48736  0.28584  1.0000
  C   C1225     1.0  0.51925  0.57088  0.15861  1.0000
  C   C1226     1.0  0.73715  0.48724  0.26356  1.0000
  H   H2071     1.0  0.65428  0.96894  0.13615  1.0000
  H   H2072     1.0  0.75054  0.50159  0.31401  1.0000
  H   H2073     1.0  0.51790  0.60773  0.24290  1.0000
  H   H2074     1.0  0.74313  0.84001  0.17390  1.0000
  H   H2075     1.0  0.72826  0.96512  0.28391  1.0000
  H   H2076     1.0  0.52180  0.62534  0.00406  1.0000
  H   H2077     1.0  0.73624  0.55271  0.32635  1.0000
  S   S353      1.0  0.54684  0.47836  0.09564  1.0000
  S   S354      1.0  0.51534  0.92746  0.09453  1.0000
  H   H2078     1.0  0.52173  0.89706  0.04449  1.0000
  N   N88       1.0  0.74461  0.87463  0.21148  1.0000
  H   H2079     1.0  0.51973  0.69180  0.29570  1.0000
  H   H2080     1.0  0.75030  0.83260  0.22129  1.0000
  H   H2081     1.0  0.52060  0.58393  0.17210  1.0000
  H   H2082     1.0  0.51501  0.56543  0.04177  1.0000
  H   H2083     1.0  0.52167  0.61795  0.29928  1.0000
  H   H2084     1.0  0.51892  0.72127  0.32307  1.0000
  C   C1227     1.0  0.51994  0.54240  0.16128  1.0000
  H   H2085     1.0  0.75432  0.65079  0.11798  1.0000
  C   C1228     1.0  0.51565  0.53634  0.12387  1.0000
  H   H2086     1.0  0.51277  0.57353  0.10562  1.0000
  H   H2087     1.0  0.52213  0.53364  0.17678  1.0000
  H   H2088     1.0  0.53342  0.96431  0.32462  1.0000
  C   C1229     1.0  0.51813  0.52503  0.14399  1.0000
  S   S355      1.0  0.51810  0.48948  0.14842  1.0000
  C   C1230     1.0  0.75284  0.85383  0.22648  1.0000
  H   H2089     1.0  0.76094  0.67775  0.02522  1.0000
  C   C1231     1.0  0.75214  0.63095  0.32209  1.0000
  H   H2090     1.0  0.51269  0.97591  0.28322  1.0000
  C   C1232     1.0  0.75419  0.66206  0.31985  1.0000
  H   H2091     1.0  0.75867  0.60653  0.27100  1.0000
  H   H2092     1.0  0.76032  0.66858  0.30455  1.0000
  H   H2093     1.0  0.76090  0.64084  0.27836  1.0000
  S   S356      1.0  0.55379  0.92667  0.64894  1.0000
  H   H2094     1.0  0.64340  0.84776  0.62862  1.0000
  C   C1233     1.0  0.60812  0.70754  0.65596  1.0000
  C   C1234     1.0  0.65195  0.82986  0.63410  1.0000
  Fe  Fe177     1.0  0.56413  0.69350  0.59511  1.0000
  S   S357      1.0  0.55004  0.68145  0.62564  1.0000
  S   S358      1.0  0.59564  0.69797  0.59405  1.0000
  Fe  Fe178     1.0  0.52718  0.69883  0.57104  1.0000
  Fe  Fe179     1.0  0.52975  0.71551  0.61748  1.0000
  S   S359      1.0  0.51946  0.74438  0.64341  1.0000
  Fe  Fe180     1.0  0.53297  0.65414  0.60584  1.0000
  C   C1235     1.0  0.73768  0.58330  0.60469  1.0000
  S   S360      1.0  0.54465  0.72910  0.58789  1.0000
  S   S361      1.0  0.54824  0.66402  0.57534  1.0000
  H   H2095     1.0  0.53200  0.64281  0.33714  1.0000
  C   C1236     1.0  0.66981  0.78775  0.62174  1.0000
  H   H2096     1.0  0.65448  0.90446  0.64937  1.0000
  S   S362      1.0  0.71780  0.75423  0.63691  1.0000
  H   H2097     1.0  0.72826  0.83990  0.52360  1.0000
  H   H2098     1.0  0.72416  0.49180  0.57874  1.0000
  C   C1237     1.0  0.72145  0.84585  0.65001  1.0000
  Fe  Fe181     1.0  0.67705  0.92277  0.60795  1.0000
  S   S363      1.0  0.68680  0.93616  0.63937  1.0000
  S   S364      1.0  0.64767  0.90808  0.60393  1.0000
  Fe  Fe182     1.0  0.71506  0.93225  0.58601  1.0000
  S   S365      1.0  0.72719  0.94702  0.61657  1.0000
  S   S366      1.0  0.73401  0.93092  0.55609  1.0000
  Fe  Fe183     1.0  0.71255  0.91105  0.63107  1.0000
  H   H2099     1.0  0.64300  0.61720  0.60327  1.0000
  H   H2100     1.0  0.51138  0.84011  0.66534  1.0000
  S   S367      1.0  0.69233  0.52313  0.61469  1.0000
  S   S368      1.0  0.70195  0.89536  0.60054  1.0000
  S   S369      1.0  0.68891  0.95869  0.59044  1.0000
  H   H2101     1.0  0.65935  0.84650  0.66466  1.0000
  H   H2102     1.0  0.66460  0.78368  0.65622  1.0000
  C   C1238     1.0  0.62329  0.47959  0.62205  1.0000
  H   H2103     1.0  0.76093  0.69068  0.37088  1.0000
  H   H2104     1.0  0.57573  0.53171  0.59412  1.0000
  H   H2105     1.0  0.67779  0.82581  0.65275  1.0000
  H   H2106     1.0  0.63216  0.57813  0.63383  1.0000
  C   C1239     1.0  0.63990  0.49849  0.62493  1.0000
  H   H2107     1.0  0.74286  0.95448  0.44409  1.0000
  H   H2108     1.0  0.73335  0.91685  0.43084  1.0000
  C   C1240     1.0  0.72740  0.90229  0.44243  1.0000
  H   H2109     1.0  0.63911  0.51703  0.61490  1.0000
  C   C1241     1.0  0.74021  0.90382  0.53839  1.0000
  C   C1242     1.0  0.73056  0.87942  0.53817  1.0000
  S   S370      1.0  0.52136  0.87270  0.62822  1.0000
  H   H2110     1.0  0.72690  0.60003  0.60486  1.0000
  N   N89       1.0  0.60411  0.49213  0.62623  1.0000
  H   H2111     1.0  0.71885  0.87670  0.54897  1.0000
  C   C1243     1.0  0.65202  0.57045  0.65830  1.0000
  H   H2112     1.0  0.52343  0.75682  0.52807  1.0000
  H   H2113     1.0  0.58099  0.54669  0.61922  1.0000
  H   H2114     1.0  0.74033  0.91975  0.48426  1.0000
  C   C1244     1.0  0.71924  0.78931  0.64252  1.0000
  C   C1245     1.0  0.72079  0.80778  0.62564  1.0000
  C   C1246     1.0  0.72165  0.83592  0.62934  1.0000
  H   H2115     1.0  0.72099  0.80021  0.60964  1.0000
  H   H2116     1.0  0.72272  0.84981  0.61617  1.0000
  Fe  Fe184     1.0  0.52859  0.90124  0.65479  1.0000
  C   C1247     1.0  0.61235  0.97411  0.65854  1.0000
  H   H2117     1.0  0.63126  0.64929  0.60024  1.0000
  C   C1248     1.0  0.69819  0.54988  0.63214  1.0000
  H   H2118     1.0  0.63432  0.76830  0.60862  1.0000
  H   H2119     1.0  0.67028  0.77301  0.60839  1.0000
  C   C1249     1.0  0.52717  0.53448  0.63949  1.0000
  C   C1250     1.0  0.52199  0.83720  0.63331  1.0000
  Fe  Fe185     1.0  0.70013  0.97122  0.62200  1.0000
  C   C1251     1.0  0.60763  0.70347  0.61770  1.0000
  C   C1252     1.0  0.62716  0.70518  0.61704  1.0000
  C   C1253     1.0  0.63716  0.70754  0.63581  1.0000
  H   H2120     1.0  0.56963  0.51466  0.61781  1.0000
  H   H2121     1.0  0.70204  0.88062  0.46754  1.0000
  C   C1254     1.0  0.59816  0.70516  0.63723  1.0000
  H   H2122     1.0  0.63459  0.70408  0.60198  1.0000
  H   H2123     1.0  0.65220  0.70831  0.63513  1.0000
  H   H2124     1.0  0.58318  0.70439  0.63797  1.0000
  C   C1255     1.0  0.74166  0.52378  0.56455  1.0000
  C   C1256     1.0  0.60133  0.89921  0.64094  1.0000
  C   C1257     1.0  0.61361  0.90208  0.62349  1.0000
  C   C1258     1.0  0.63281  0.90448  0.62638  1.0000
  C   C1259     1.0  0.63970  0.90305  0.64689  1.0000
  C   C1260     1.0  0.70071  0.90429  0.49629  1.0000
  H   H2125     1.0  0.58660  0.89763  0.63842  1.0000
  H   H2126     1.0  0.60815  0.90285  0.60769  1.0000
  H   H2127     1.0  0.64214  0.81753  0.64363  1.0000
  C   C1261     1.0  0.54735  0.58281  0.64069  1.0000
  S   S371      1.0  0.68923  0.69139  0.65369  1.0000
  H   H2128     1.0  0.74411  0.48428  0.47276  1.0000
  H   H2129     1.0  0.69814  0.88641  0.50671  1.0000
  C   C1262     1.0  0.54321  0.53503  0.65162  1.0000
  C   C1263     1.0  0.52774  0.81925  0.61710  1.0000
  H   H2130     1.0  0.53496  0.70268  0.34012  1.0000
  H   H2131     1.0  0.71184  0.52444  0.65523  1.0000
  C   C1264     1.0  0.70714  0.59425  0.65864  1.0000
  H   H2132     1.0  0.74000  0.53754  0.55065  1.0000
  H   H2133     1.0  0.55837  0.78921  0.64916  1.0000
  H   H2134     1.0  0.69399  0.61975  0.63527  1.0000
  C   C1265     1.0  0.69317  0.57699  0.62675  1.0000
  H   H2135     1.0  0.62294  0.96899  0.61376  1.0000
  S   S372      1.0  0.72410  0.88093  0.65511  1.0000
  H   H2136     1.0  0.73277  0.51584  0.60778  1.0000
  H   H2137     1.0  0.64709  0.97086  0.63970  1.0000
  C   C1266     1.0  0.70782  0.54510  0.65082  1.0000
  C   C1267     1.0  0.51172  0.75218  0.51839  1.0000
  C   C1268     1.0  0.51537  0.79799  0.65576  1.0000
  C   C1269     1.0  0.75100  0.86180  0.50933  1.0000
  C   C1270     1.0  0.73224  0.93318  0.47343  1.0000
  H   H2138     1.0  0.65168  0.64752  0.61585  1.0000
  C   C1271     1.0  0.62744  0.89944  0.66433  1.0000
  S   S373      1.0  0.52278  0.61119  0.61407  1.0000
  C   C1272     1.0  0.65027  0.63432  0.65799  1.0000
  H   H2139     1.0  0.71920  0.55505  0.59134  1.0000
  H   H2140     1.0  0.59390  0.95382  0.62726  1.0000
  H   H2141     1.0  0.66974  0.75259  0.64279  1.0000
  C   C1273     1.0  0.58056  0.52723  0.61036  1.0000
  C   C1274     1.0  0.74306  0.88112  0.44713  1.0000
  H   H2142     1.0  0.60599  0.76295  0.66517  1.0000
  H   H2143     1.0  0.56570  0.82419  0.62909  1.0000
  H   H2144     1.0  0.76036  0.59078  0.56577  1.0000
  C   C1275     1.0  0.58727  0.82450  0.65366  1.0000
  H   H2145     1.0  0.71110  0.52181  0.57033  1.0000
  N   N90       1.0  0.65995  0.81412  0.61542  1.0000
  C   C1276     1.0  0.67371  0.83231  0.60417  1.0000
  H   H2146     1.0  0.68464  0.79127  0.62513  1.0000
  C   C1277     1.0  0.64454  0.80890  0.60024  1.0000
  H   H2147     1.0  0.64582  0.65621  0.65722  1.0000
  C   C1278     1.0  0.68295  0.82090  0.58365  1.0000
  H   H2148     1.0  0.55521  0.60128  0.64124  1.0000
  C   C1279     1.0  0.74701  0.94857  0.46020  1.0000
  C   C1280     1.0  0.62623  0.63116  0.63118  1.0000
  H   H2149     1.0  0.66701  0.85249  0.60025  1.0000
  H   H2150     1.0  0.68546  0.83691  0.61458  1.0000
  H   H2151     1.0  0.58157  0.85118  0.62684  1.0000
  C   C1281     1.0  0.62765  0.70847  0.65536  1.0000
  H   H2152     1.0  0.63770  0.82860  0.59531  1.0000
  H   H2153     1.0  0.65014  0.79926  0.58548  1.0000
  S   S374      1.0  0.75691  0.83477  0.49145  1.0000
  H   H2154     1.0  0.51604  0.72269  0.35106  1.0000
  H   H2155     1.0  0.67319  0.82180  0.57030  1.0000
  H   H2156     1.0  0.69483  0.83391  0.57901  1.0000
  H   H2157     1.0  0.68866  0.79982  0.58568  1.0000
  H   H2158     1.0  0.52218  0.81301  0.55994  1.0000
  C   C1282     1.0  0.60009  0.51301  0.60926  1.0000
  H   H2159     1.0  0.73476  0.84297  0.57507  1.0000
  H   H2160     1.0  0.56368  0.85318  0.64682  1.0000
  C   C1283     1.0  0.74715  0.52195  0.60325  1.0000
  H   H2161     1.0  0.58040  0.77386  0.64576  1.0000
  C   C1284     1.0  0.52733  0.79084  0.62018  1.0000
  H   H2162     1.0  0.51275  0.78995  0.50059  1.0000
  C   C1285     1.0  0.60296  0.50612  0.64737  1.0000
  H   H2163     1.0  0.68600  0.58102  0.61216  1.0000
  H   H2164     1.0  0.67269  0.85978  0.64301  1.0000
  H   H2165     1.0  0.73729  0.86173  0.45319  1.0000
  H   H2166     1.0  0.59765  0.81339  0.64343  1.0000
  H   H2167     1.0  0.53184  0.77738  0.60757  1.0000
  H   H2168     1.0  0.61015  0.52979  0.60982  1.0000
  C   C1286     1.0  0.64311  0.58973  0.64185  1.0000
  C   C1287     1.0  0.53127  0.58223  0.62857  1.0000
  C   C1288     1.0  0.66210  0.77253  0.64140  1.0000
  C   C1289     1.0  0.73316  0.56291  0.58710  1.0000
  H   H2169     1.0  0.64713  0.76809  0.64064  1.0000
  H   H2170     1.0  0.69141  0.92058  0.44767  1.0000
  C   C1290     1.0  0.71137  0.89439  0.47612  1.0000
  H   H2171     1.0  0.61763  0.79048  0.59656  1.0000
  Fe  Fe186     1.0  0.70761  0.72590  0.66277  1.0000
  H   H2172     1.0  0.72299  0.88105  0.48188  1.0000
  H   H2173     1.0  0.60247  0.50435  0.59315  1.0000
  C   C1291     1.0  0.62912  0.78984  0.60807  1.0000
  H   H2174     1.0  0.52804  0.95982  0.35948  1.0000
  H   H2175     1.0  0.59988  0.64666  0.66262  1.0000
  C   C1292     1.0  0.72332  0.50818  0.56668  1.0000
  H   H2176     1.0  0.74867  0.88337  0.58070  1.0000
  H   H2177     1.0  0.76033  0.92304  0.59148  1.0000
  C   C1293     1.0  0.69759  0.59903  0.63987  1.0000
  H   H2178     1.0  0.51600  0.84488  0.54806  1.0000
  C   C1294     1.0  0.63905  0.63633  0.61172  1.0000
  H   H2179     1.0  0.70884  0.91874  0.50558  1.0000
  C   C1295     1.0  0.60814  0.89809  0.66146  1.0000
  H   H2180     1.0  0.61405  0.61976  0.62556  1.0000
  H   H2181     1.0  0.64154  0.50416  0.64171  1.0000
  C   C1296     1.0  0.73592  0.85861  0.52371  1.0000
  N   N91       1.0  0.71865  0.91639  0.46152  1.0000
  H   H2182     1.0  0.58875  0.51523  0.65025  1.0000
  H   H2183     1.0  0.71662  0.89150  0.43350  1.0000
  C   C1297     1.0  0.59071  0.97598  0.62954  1.0000
  C   C1298     1.0  0.74521  0.82598  0.57355  1.0000
  H   H2184     1.0  0.72467  0.94836  0.48377  1.0000
  H   H2185     1.0  0.72062  0.49797  0.55146  1.0000
  N   N92       1.0  0.74711  0.53968  0.58370  1.0000
  H   H2186     1.0  0.62295  0.79594  0.62352  1.0000
  H   H2187     1.0  0.53255  0.82739  0.60208  1.0000
  H   H2188     1.0  0.73794  0.80685  0.57748  1.0000
  H   H2189     1.0  0.73103  0.57471  0.57223  1.0000
  C   C1299     1.0  0.52083  0.78005  0.63938  1.0000
  C   C1300     1.0  0.66641  0.84089  0.64942  1.0000
  C   C1301     1.0  0.55320  0.55940  0.65219  1.0000
  C   C1302     1.0  0.51602  0.82646  0.65278  1.0000
  H   H2190     1.0  0.75318  0.88875  0.45851  1.0000
  C   C1303     1.0  0.57354  0.83885  0.63845  1.0000
  H   H2191     1.0  0.75079  0.87607  0.43219  1.0000
  H   H2192     1.0  0.59505  0.84087  0.66152  1.0000
  H   H2193     1.0  0.66296  0.63270  0.64761  1.0000
  H   H2194     1.0  0.51932  0.51599  0.63884  1.0000
  C   C1304     1.0  0.71855  0.79920  0.66323  1.0000
  C   C1305     1.0  0.70603  0.95681  0.43879  1.0000
  H   H2195     1.0  0.62052  0.65159  0.63590  1.0000
  H   H2196     1.0  0.71303  0.94954  0.42399  1.0000
  H   H2197     1.0  0.60901  0.59852  0.65903  1.0000
  N   N93       1.0  0.63512  0.61671  0.64973  1.0000
  C   C1306     1.0  0.70211  0.93368  0.45471  1.0000
  H   H2198     1.0  0.75285  0.50867  0.55982  1.0000
  H   H2199     1.0  0.65293  0.48729  0.61998  1.0000
  H   H2200     1.0  0.68682  0.91343  0.49269  1.0000
  C   C1307     1.0  0.52123  0.55795  0.62815  1.0000
  C   C1308     1.0  0.61973  0.61175  0.66584  1.0000
  C   C1309     1.0  0.57062  0.78202  0.65827  1.0000
  H   H2201     1.0  0.75200  0.53347  0.61709  1.0000
  H   H2202     1.0  0.74121  0.62813  0.33459  1.0000
  H   H2203     1.0  0.61238  0.52373  0.64772  1.0000
  C   C1310     1.0  0.52020  0.70895  0.33772  1.0000
  H   H2204     1.0  0.74945  0.87240  0.60725  1.0000
  H   H2205     1.0  0.75014  0.82373  0.55689  1.0000
  C   C1311     1.0  0.71227  0.56715  0.66392  1.0000
  H   H2206     1.0  0.73341  0.58512  0.33882  1.0000
  H   H2207     1.0  0.65673  0.55129  0.65025  1.0000
  H   H2208     1.0  0.56477  0.73896  0.66166  1.0000
  H   H2209     1.0  0.69515  0.94395  0.46852  1.0000
  C   C1312     1.0  0.75849  0.87869  0.59366  1.0000
  C   C1313     1.0  0.75967  0.49584  0.60198  1.0000
  H   H2210     1.0  0.75559  0.48192  0.58923  1.0000
  H   H2211     1.0  0.61653  0.95285  0.65424  1.0000
  H   H2212     1.0  0.56558  0.56013  0.66157  1.0000
  C   C1314     1.0  0.75525  0.90705  0.52396  1.0000
  H   H2213     1.0  0.57256  0.97445  0.60263  1.0000
  H   H2214     1.0  0.52509  0.68946  0.66263  1.0000
  H   H2215     1.0  0.75135  0.47845  0.44536  1.0000
  H   H2216     1.0  0.75553  0.82594  0.60487  1.0000
  H   H2217     1.0  0.65434  0.59295  0.62979  1.0000
  H   H2218     1.0  0.73709  0.57368  0.62059  1.0000
  H   H2219     1.0  0.75130  0.59303  0.60217  1.0000
  H   H2220     1.0  0.75021  0.96779  0.46844  1.0000
  H   H2221     1.0  0.75820  0.48439  0.61710  1.0000
  S   S375      1.0  0.55172  0.50596  0.66599  1.0000
  H   H2222     1.0  0.53829  0.64035  0.66594  1.0000
  H   H2223     1.0  0.62109  0.47765  0.66567  1.0000
  H   H2224     1.0  0.61933  0.79380  0.66431  1.0000
  H   H2225     1.0  0.69251  0.96641  0.43412  1.0000
  H   H2226     1.0  0.71402  0.97322  0.44607  1.0000
  C   C1315     1.0  0.76069  0.88615  0.50960  1.0000
  H   H2227     1.0  0.76040  0.93662  0.45948  1.0000
  H   H2228     1.0  0.51483  0.97626  0.38015  1.0000
  H   H2229     1.0  0.66477  0.57908  0.66486  1.0000
  C   C1316     1.0  0.60705  0.48765  0.66665  1.0000
  Fe  Fe187     1.0  0.52385  0.91863  0.70066  1.0000
  C   C1317     1.0  0.72442  0.70897  0.94505  1.0000
  C   C1318     1.0  0.60943  0.63759  0.67446  1.0000
  S   S376      1.0  0.54941  0.94453  0.69858  1.0000
  S   S377      1.0  0.53849  0.88273  0.68506  1.0000
  N   N94       1.0  0.57875  0.80556  0.66991  1.0000
  S   S378      1.0  0.59290  0.89485  0.68363  1.0000
  S   S379      1.0  0.51231  0.93628  0.67024  1.0000
  Fe  Fe188     1.0  0.70461  0.71481  0.71005  1.0000
  S   S380      1.0  0.72514  0.70011  0.68479  1.0000
  S   S381      1.0  0.70958  0.72913  0.74404  1.0000
  Fe  Fe189     1.0  0.67110  0.70633  0.68075  1.0000
  H   H2230     1.0  0.55350  0.78925  0.70359  1.0000
  H   H2231     1.0  0.52068  0.54556  0.96078  1.0000
  S   S382      1.0  0.68544  0.67976  0.70487  1.0000
  S   S383      1.0  0.68830  0.74245  0.68818  1.0000
  H   H2232     1.0  0.60648  0.50032  0.68117  1.0000
  C   C1319     1.0  0.59404  0.79673  0.68465  1.0000
  S   S384      1.0  0.75174  0.59221  0.98564  1.0000
  H   H2233     1.0  0.71719  0.85995  0.71562  1.0000
  H   H2234     1.0  0.52547  0.93454  0.79514  1.0000
  C   C1320     1.0  0.73362  0.82313  0.74202  1.0000
  H   H2235     1.0  0.65240  0.60964  0.68821  1.0000
  H   H2236     1.0  0.52787  0.94731  0.83249  1.0000
  H   H2237     1.0  0.51566  0.89361  0.98449  1.0000
  H   H2238     1.0  0.73955  0.77392  0.80337  1.0000
  C   C1321     1.0  0.53722  0.89537  0.82016  1.0000
  C   C1322     1.0  0.74403  0.86904  0.73026  1.0000
  H   H2239     1.0  0.59978  0.81492  0.69250  1.0000
  H   H2240     1.0  0.51635  0.82702  0.76476  1.0000
  H   H2241     1.0  0.71729  0.78512  0.67636  1.0000
  C   C1323     1.0  0.56378  0.82169  0.68194  1.0000
  H   H2242     1.0  0.54173  0.88644  0.83535  1.0000
  H   H2243     1.0  0.61915  0.65327  0.67968  1.0000
  H   H2244     1.0  0.52249  0.94276  0.87014  1.0000
  C   C1324     1.0  0.74161  0.76590  0.78757  1.0000
  C   C1325     1.0  0.72654  0.75474  0.77686  1.0000
  C   C1326     1.0  0.72890  0.74410  0.75628  1.0000
  H   H2245     1.0  0.75303  0.73078  0.86773  1.0000
  H   H2246     1.0  0.75326  0.63292  0.78833  1.0000
  C   C1327     1.0  0.73836  0.80866  0.72086  1.0000
  H   H2247     1.0  0.71295  0.75417  0.78462  1.0000
  H   H2248     1.0  0.74980  0.79319  0.72274  1.0000
  H   H2249     1.0  0.51184  0.66457  0.98346  1.0000
  C   C1328     1.0  0.73062  0.63103  0.93837  1.0000
  H   H2250     1.0  0.52173  0.96720  0.99124  1.0000
  H   H2251     1.0  0.72973  0.67825  0.82032  1.0000
  H   H2252     1.0  0.73589  0.85277  0.80176  1.0000
  H   H2253     1.0  0.55033  0.66576  0.67957  1.0000
  C   C1329     1.0  0.75867  0.68828  0.87539  1.0000
  H   H2254     1.0  0.71975  0.56317  0.67833  1.0000
  H   H2255     1.0  0.74867  0.73654  0.73079  1.0000
  H   H2256     1.0  0.75905  0.70615  0.83151  1.0000
  S   S385      1.0  0.71348  0.62120  0.67569  1.0000
  H   H2257     1.0  0.54035  0.88111  0.78717  1.0000
  H   H2258     1.0  0.52857  0.85740  0.80453  1.0000
  H   H2259     1.0  0.76109  0.61253  0.80980  1.0000
  H   H2260     1.0  0.73659  0.66622  0.91962  1.0000
  C   C1330     1.0  0.74657  0.74480  0.74653  1.0000
  S   S386      1.0  0.63951  0.71000  0.67945  1.0000
  H   H2261     1.0  0.51944  0.87004  0.85420  1.0000
  H   H2262     1.0  0.55320  0.86144  0.80591  1.0000
  C   C1331     1.0  0.52103  0.67636  0.67632  1.0000
  H   H2263     1.0  0.74252  0.82277  0.70804  1.0000
  H   H2264     1.0  0.76021  0.67945  0.94038  1.0000
  C   C1332     1.0  0.73486  0.72159  0.92598  1.0000
  C   C1333     1.0  0.56365  0.75768  0.67149  1.0000
  Fe  Fe190     1.0  0.56290  0.91001  0.68002  1.0000
  C   C1334     1.0  0.61059  0.78054  0.67440  1.0000
  C   C1335     1.0  0.53973  0.87259  0.80346  1.0000
  H   H2265     1.0  0.62473  0.60019  0.67976  1.0000
  C   C1336     1.0  0.53691  0.65499  0.67921  1.0000
  C   C1337     1.0  0.51709  0.58256  0.97960  1.0000
  H   H2266     1.0  0.71795  0.69478  0.79882  1.0000
  H   H2267     1.0  0.72922  0.74261  0.92315  1.0000
  H   H2268     1.0  0.74993  0.72343  0.92895  1.0000
  H   H2269     1.0  0.73519  0.80699  0.75429  1.0000
  C   C1338     1.0  0.65643  0.62918  0.68100  1.0000
  H   H2270     1.0  0.72013  0.62326  0.94990  1.0000
  H   H2271     1.0  0.73143  0.71468  0.81592  1.0000
  C   C1339     1.0  0.55758  0.81077  0.70382  1.0000
  H   H2272     1.0  0.74010  0.63182  0.81309  1.0000
  H   H2273     1.0  0.74379  0.67419  0.78150  1.0000
  H   H2274     1.0  0.56857  0.84275  0.68494  1.0000
  C   C1340     1.0  0.72038  0.67142  0.97088  1.0000
  H   H2275     1.0  0.70934  0.70854  0.94118  1.0000
  H   H2276     1.0  0.63287  0.89842  0.68014  1.0000
  H   H2277     1.0  0.73291  0.71004  0.91124  1.0000
  H   H2278     1.0  0.65130  0.64615  0.69138  1.0000
  H   H2279     1.0  0.52616  0.54050  0.98765  1.0000
  H   H2280     1.0  0.74535  0.87877  0.77108  1.0000
  H   H2281     1.0  0.72494  0.72404  0.95797  1.0000
  H   H2282     1.0  0.70828  0.70895  0.98549  1.0000
  C   C1341     1.0  0.73091  0.69447  0.80814  1.0000
  C   C1342     1.0  0.76126  0.71657  0.87706  1.0000
  C   C1343     1.0  0.51616  0.55125  0.97712  1.0000
  C   C1344     1.0  0.51788  0.93143  0.83766  1.0000
  H   H2283     1.0  0.67189  0.62947  0.68145  1.0000
  H   H2284     1.0  0.54777  0.91105  0.81637  1.0000
  H   H2285     1.0  0.73129  0.82305  0.78694  1.0000
  C   C1345     1.0  0.59711  0.97253  0.67610  1.0000
  H   H2286     1.0  0.53115  0.58687  0.98567  1.0000
  H   H2287     1.0  0.72686  0.65245  0.97751  1.0000
  H   H2288     1.0  0.72908  0.61944  0.92349  1.0000
  H   H2289     1.0  0.71293  0.66449  0.92836  1.0000
  H   H2290     1.0  0.58876  0.78400  0.69788  1.0000
  C   C1346     1.0  0.72415  0.87710  0.72325  1.0000
  C   C1347     1.0  0.75429  0.63245  0.80571  1.0000
  H   H2291     1.0  0.75197  0.72099  0.97070  1.0000
  H   H2292     1.0  0.72578  0.79841  0.71524  1.0000
  C   C1348     1.0  0.75205  0.67956  0.95557  1.0000
  H   H2293     1.0  0.74479  0.62618  0.94407  1.0000
  H   H2294     1.0  0.71935  0.83497  0.68290  1.0000
  H   H2295     1.0  0.56855  0.81351  0.71567  1.0000
  H   H2296     1.0  0.70604  0.66587  0.96636  1.0000
  H   H2297     1.0  0.71840  0.82833  0.74286  1.0000
  H   H2298     1.0  0.64215  0.56449  0.67111  1.0000
  N   N95       1.0  0.73135  0.68095  0.95169  1.0000
  N   N96       1.0  0.74533  0.84717  0.74711  1.0000
  H   H2299     1.0  0.53622  0.91362  0.86225  1.0000
  H   H2300     1.0  0.55100  0.82411  0.67240  1.0000
  H   H2301     1.0  0.75925  0.65895  0.83152  1.0000
  H   H2302     1.0  0.72504  0.89362  0.71118  1.0000
  H   H2303     1.0  0.54516  0.82296  0.70948  1.0000
  H   H2304     1.0  0.74844  0.68081  0.86472  1.0000
  H   H2305     1.0  0.53552  0.64420  0.69457  1.0000
  H   H2306     1.0  0.75500  0.83397  0.79015  1.0000
  C   C1349     1.0  0.73835  0.85930  0.76778  1.0000
  C   C1350     1.0  0.72757  0.66177  0.93372  1.0000
  C   C1351     1.0  0.71777  0.69151  0.98945  1.0000
  C   C1352     1.0  0.52234  0.92374  0.86065  1.0000
  N   N97       1.0  0.51798  0.90853  0.82180  1.0000
  H   H2307     1.0  0.51322  0.61476  0.68876  1.0000
  C   C1353     1.0  0.76026  0.70176  0.96961  1.0000
  H   H2308     1.0  0.60063  0.63199  0.68841  1.0000
  H   H2309     1.0  0.72325  0.86494  0.76699  1.0000
  H   H2310     1.0  0.75605  0.65968  0.96296  1.0000
  H   H2311     1.0  0.52304  0.86323  0.73813  1.0000
  Fe  Fe191     1.0  0.70480  0.66671  0.67797  1.0000
  C   C1354     1.0  0.74040  0.84090  0.78753  1.0000
  H   H2312     1.0  0.57199  0.75287  0.68553  1.0000
  C   C1355     1.0  0.71983  0.82739  0.66692  1.0000
  C   C1356     1.0  0.74787  0.68968  0.79304  1.0000
  C   C1357     1.0  0.51397  0.92106  0.80043  1.0000
  H   H2313     1.0  0.71530  0.88507  0.73653  1.0000
  H   H2314     1.0  0.75235  0.86330  0.71582  1.0000
  H   H2315     1.0  0.54874  0.76086  0.67624  1.0000
  H   H2316     1.0  0.58545  0.95966  0.67141  1.0000
  H   H2317     1.0  0.60318  0.96250  0.69025  1.0000
  H   H2318     1.0  0.52141  0.68971  0.69046  1.0000
  C   C1358     1.0  0.75925  0.76672  0.77773  1.0000
  H   H2319     1.0  0.75037  0.88818  0.73570  1.0000
  H   H2320     1.0  0.51333  0.90502  0.78813  1.0000
  H   H2321     1.0  0.60067  0.70835  0.67101  1.0000
  H   H2322     1.0  0.61971  0.77221  0.68700  1.0000
  H   H2323     1.0  0.51675  0.63707  0.96565  1.0000
  H   H2324     1.0  0.73108  0.69894  0.99529  1.0000
  H   H2325     1.0  0.51672  0.59149  0.96338  1.0000
  H   H2326     1.0  0.74942  0.70847  0.78338  1.0000
  Fe  Fe192     1.0  0.53886  0.96028  0.66725  1.0000
  C   C1359     1.0  0.97552  0.18821  0.03448  1.0000
  H   H2327     1.0  0.97817  0.47405  0.27430  1.0000
  H   H2328     1.0  0.98193  0.19972  0.04736  1.0000
  C   C1360     1.0  0.77749  0.07785  0.04280  1.0000
  H   H2329     1.0  0.00261  0.27360  0.29518  1.0000
  H   H2330     1.0  0.82836  0.98825  0.33238  1.0000
  S   S387      1.0  0.96989  0.34824  0.29557  1.0000
  C   C1361     1.0  0.98898  0.10026  0.05481  1.0000
  Fe  Fe193     1.0  0.96336  0.33703  0.33029  1.0000
  H   H2331     1.0  0.76819  0.35480  0.18803  1.0000
  C   C1362     1.0  0.98605  0.37602  0.26228  1.0000
  C   C1363     1.0  0.98760  0.36838  0.28367  1.0000
  C   C1364     1.0  0.98385  0.27353  0.01107  1.0000
  H   H2332     1.0  0.76999  0.05854  0.04393  1.0000
  C   C1365     1.0  0.00223  0.46919  0.25189  1.0000
  H   H2333     1.0  0.97910  0.13929  0.08186  1.0000
  H   H2334     1.0  0.97295  0.28550  0.04179  1.0000
  C   C1366     1.0  0.98156  0.32541  0.22153  1.0000
  C   C1367     1.0  0.98582  0.30680  0.24060  1.0000
  H   H2335     1.0  0.97366  0.37091  0.25390  1.0000
  H   H2336     1.0  0.98088  0.19621  0.01910  1.0000
  C   C1368     1.0  0.99733  0.25898  0.04487  1.0000
  C   C1369     1.0  0.98277  0.46141  0.26059  1.0000
  H   H2337     1.0  0.77070  0.33990  0.21359  1.0000
  H   H2338     1.0  0.77507  0.36822  0.24939  1.0000
  H   H2339     1.0  0.78336  0.11051  0.06384  1.0000
  H   H2340     1.0  0.01100  0.18391  0.02759  1.0000
  H   H2341     1.0  0.76285  0.04870  0.07585  1.0000
  H   H2342     1.0  0.99296  0.16050  0.09713  1.0000
  H   H2343     1.0  0.77356  0.11722  0.09834  1.0000
  H   H2344     1.0  0.76355  0.11691  0.04825  1.0000
  H   H2345     1.0  0.99699  0.25948  0.06197  1.0000
  H   H2346     1.0  0.77910  0.43007  0.22723  1.0000
  H   H2347     1.0  0.96026  0.19273  0.03511  1.0000
  H   H2348     1.0  0.99365  0.10107  0.07141  1.0000
  C   C1370     1.0  0.00044  0.38994  0.25155  1.0000
  C   C1371     1.0  0.77229  0.42680  0.24292  1.0000
  C   C1372     1.0  0.00331  0.15748  0.06456  1.0000
  H   H2349     1.0  0.98201  0.31926  0.25476  1.0000
  H   H2350     1.0  0.98376  0.29143  0.28303  1.0000
  H   H2351     1.0  0.76378  0.03595  0.24582  1.0000
  H   H2352     1.0  0.84559  0.97872  0.31311  1.0000
  C   C1373     1.0  0.98370  0.27376  0.03335  1.0000
  H   H2353     1.0  0.97206  0.46221  0.24823  1.0000
  H   H2354     1.0  0.00041  0.39138  0.02952  1.0000
  H   H2355     1.0  0.96859  0.14903  0.04746  1.0000
  H   H2356     1.0  0.97745  0.17584  0.07867  1.0000
  H   H2357     1.0  0.99916  0.26287  0.22029  1.0000
  H   H2358     1.0  0.78121  0.41348  0.25292  1.0000
  H   H2359     1.0  0.79262  0.07342  0.04480  1.0000
  Fe  Fe194     1.0  0.77952  0.04596  0.32471  1.0000
  H   H2360     1.0  0.77608  0.08510  0.02621  1.0000
  C   C1374     1.0  0.97926  0.15705  0.03627  1.0000
  H   H2361     1.0  0.77133  0.44714  0.25064  1.0000
  S   S388      1.0  0.80145  0.07701  0.33034  1.0000
  H   H2362     1.0  0.79426  0.07212  0.08403  1.0000
  H   H2363     1.0  0.00630  0.45387  0.23954  1.0000
  H   H2364     1.0  0.97564  0.29001  0.24045  1.0000
  H   H2365     1.0  0.97591  0.14809  0.02070  1.0000
  H   H2366     1.0  0.97993  0.37120  0.03504  1.0000
  C   C1375     1.0  0.77058  0.10085  0.05802  1.0000
  C   C1376     1.0  0.98713  0.15815  0.08117  1.0000
  H   H2367     1.0  0.00987  0.29063  0.20795  1.0000
  H   H2368     1.0  0.76555  0.32531  0.25637  1.0000
  H   H2369     1.0  0.99909  0.39541  0.23506  1.0000
  S   S389      1.0  0.77196  0.04123  0.28981  1.0000
  H   H2370     1.0  0.99705  0.25790  0.25800  1.0000
  H   H2371     1.0  0.98978  0.33674  0.00915  1.0000
  H   H2372     1.0  0.96648  0.33127  0.22218  1.0000
  H   H2373     1.0  0.78436  0.07665  0.11047  1.0000
  H   H2374     1.0  0.99081  0.07860  0.04990  1.0000
  H   H2375     1.0  0.00902  0.17838  0.06442  1.0000
  C   C1377     1.0  0.00354  0.37560  0.29443  1.0000
  H   H2376     1.0  0.76727  0.10015  0.28710  1.0000
  H   H2377     1.0  0.77556  0.13537  0.31149  1.0000
  N   N98       1.0  0.00545  0.29514  0.24206  1.0000
  H   H2378     1.0  0.97391  0.10546  0.05385  1.0000
  H   H2379     1.0  0.77575  0.38865  0.21442  1.0000
  H   H2380     1.0  0.00599  0.30761  0.28586  1.0000
  H   H2381     1.0  0.98355  0.44000  0.26643  1.0000
  C   C1378     1.0  0.99718  0.35639  0.00792  1.0000
  H   H2382     1.0  0.98417  0.31521  0.20612  1.0000
  H   H2383     1.0  0.78738  0.04335  0.09961  1.0000
  C   C1379     1.0  0.99915  0.28822  0.28228  1.0000
  H   H2384     1.0  0.98912  0.34476  0.22227  1.0000
  H   H2385     1.0  0.00248  0.35839  0.04157  1.0000
  N   N99       1.0  0.99875  0.14851  0.04249  1.0000
  C   C1380     1.0  0.78364  0.06488  0.09558  1.0000
  C   C1381     1.0  0.01007  0.27828  0.22263  1.0000
  C   C1382     1.0  0.99475  0.37058  0.02957  1.0000
  C   C1383     1.0  0.00578  0.27594  0.26085  1.0000
  H   H2386     1.0  0.00497  0.36990  0.31087  1.0000
  H   H2387     1.0  0.96835  0.39250  0.00709  1.0000
  C   C1384     1.0  0.76379  0.06619  0.08670  1.0000
  C   C1385     1.0  0.76174  0.35390  0.20415  1.0000
  C   C1386     1.0  0.99787  0.25825  0.00043  1.0000
  H   H2388     1.0  0.99879  0.11176  0.02365  1.0000
  H   H2389     1.0  0.98595  0.98793  0.32501  1.0000
  C   C1387     1.0  0.00122  0.11797  0.04027  1.0000
  H   H2390     1.0  0.00842  0.15619  0.01025  1.0000
  C   C1388     1.0  0.94962  0.36304  0.57689  1.0000
  H   H2391     1.0  0.94139  0.44216  0.38806  1.0000
  Fe  Fe195     1.0  0.95679  0.05117  0.46403  1.0000
  S   S390      1.0  0.97554  0.06812  0.43833  1.0000
  S   S391      1.0  0.96387  0.04124  0.49857  1.0000
  Fe  Fe196     1.0  0.92191  0.05781  0.43605  1.0000
  S   S392      1.0  0.93808  0.07535  0.40871  1.0000
  S   S393      1.0  0.89068  0.05105  0.43661  1.0000
  Fe  Fe197     1.0  0.95914  0.04192  0.41656  1.0000
  H   H2392     1.0  0.81566  0.36276  0.34942  1.0000
  Fe  Fe198     1.0  0.95282  0.10031  0.43266  1.0000
  S   S394      1.0  0.95715  0.14674  0.43377  1.0000
  S   S395      1.0  0.94201  0.02301  0.44250  1.0000
  S   S396      1.0  0.93505  0.08480  0.45975  1.0000
  S   S397      1.0  0.98169  0.31903  0.35575  1.0000
  Fe  Fe199     1.0  0.92784  0.33195  0.35862  1.0000
  S   S398      1.0  0.94351  0.31467  0.38592  1.0000
  S   S399      1.0  0.89632  0.33592  0.35841  1.0000
  Fe  Fe200     1.0  0.96433  0.34669  0.37753  1.0000
  S   S400      1.0  0.97341  0.37189  0.40509  1.0000
  Fe  Fe201     1.0  0.95912  0.28827  0.36223  1.0000
  S   S401      1.0  0.96050  0.24128  0.36315  1.0000
  S   S402      1.0  0.94730  0.36615  0.35189  1.0000
  C   C1389     1.0  0.82871  0.38923  0.40674  1.0000
  H   H2393     1.0  0.97529  0.35532  0.56032  1.0000
  Fe  Fe202     1.0  0.81510  0.31931  0.43934  1.0000
  S   S403      1.0  0.80170  0.30712  0.40930  1.0000
  S   S404      1.0  0.84651  0.32237  0.44167  1.0000
  H   H2394     1.0  0.00299  0.42319  0.47571  1.0000
  Fe  Fe203     1.0  0.78370  0.28024  0.42980  1.0000
  Fe  Fe204     1.0  0.78136  0.34168  0.41750  1.0000
  C   C1390     1.0  0.83161  0.12708  0.41460  1.0000
  S   S405      1.0  0.79829  0.29100  0.45970  1.0000
  S   S406      1.0  0.79571  0.35519  0.44658  1.0000
  Fe  Fe205     1.0  0.77757  0.03217  0.37156  1.0000
  H   H2395     1.0  0.91129  0.27817  0.36037  1.0000
  H   H2396     1.0  0.96401  0.09824  0.49174  1.0000
  Fe  Fe206     1.0  0.78416  0.09167  0.35842  1.0000
  H   H2397     1.0  0.82378  0.08377  0.41287  1.0000
  Fe  Fe207     1.0  0.81461  0.04660  0.35238  1.0000
  S   S407      1.0  0.84597  0.03919  0.35185  1.0000
  S   S408      1.0  0.79880  0.06280  0.38068  1.0000
  C   C1391     1.0  0.84699  0.15890  0.39044  1.0000
  C   C1392     1.0  0.00765  0.13516  0.46146  1.0000
  H   H2398     1.0  0.99485  0.00575  0.48239  1.0000
  C   C1393     1.0  0.78343  0.19213  0.37286  1.0000
  H   H2399     1.0  0.86614  0.12126  0.43284  1.0000
  H   H2400     1.0  0.93460  0.45339  0.43481  1.0000
  C   C1394     1.0  0.84501  0.11652  0.35539  1.0000
  H   H2401     1.0  0.96268  0.38789  0.61398  1.0000
  C   C1395     1.0  0.78258  0.44702  0.41921  1.0000
  C   C1396     1.0  0.78044  0.41884  0.41650  1.0000
  C   C1397     1.0  0.99404  0.00139  0.54387  1.0000
  H   H2402     1.0  0.87213  0.11798  0.38428  1.0000
  H   H2403     1.0  0.78647  0.45473  0.43443  1.0000
  C   C1398     1.0  0.88338  0.32971  0.38182  1.0000
  C   C1399     1.0  0.89075  0.33410  0.40175  1.0000
  C   C1400     1.0  0.87941  0.33123  0.42004  1.0000
  C   C1401     1.0  0.86067  0.32407  0.41851  1.0000
  C   C1402     1.0  0.85356  0.31885  0.39859  1.0000
  C   C1403     1.0  0.86486  0.32168  0.38033  1.0000
  H   H2404     1.0  0.90502  0.34039  0.40305  1.0000
  H   H2405     1.0  0.88507  0.33515  0.43541  1.0000
  H   H2406     1.0  0.83931  0.31286  0.39716  1.0000
  H   H2407     1.0  0.85919  0.31792  0.36495  1.0000
  C   C1404     1.0  0.85844  0.04033  0.37556  1.0000
  C   C1405     1.0  0.87775  0.04431  0.37458  1.0000
  C   C1406     1.0  0.88793  0.04678  0.39320  1.0000
  C   C1407     1.0  0.87889  0.04501  0.41295  1.0000
  C   C1408     1.0  0.85973  0.03974  0.41392  1.0000
  C   C1409     1.0  0.84949  0.03763  0.39531  1.0000
  H   H2408     1.0  0.88481  0.04615  0.35936  1.0000
  H   H2409     1.0  0.90271  0.05059  0.39222  1.0000
  H   H2410     1.0  0.85267  0.03807  0.42916  1.0000
  H   H2411     1.0  0.83468  0.03411  0.39627  1.0000
  C   C1410     1.0  0.95794  0.17269  0.41384  1.0000
  C   C1411     1.0  0.96091  0.19987  0.41985  1.0000
  C   C1412     1.0  0.96166  0.22115  0.40468  1.0000
  C   C1413     1.0  0.95951  0.21552  0.38322  1.0000
  C   C1414     1.0  0.95649  0.18837  0.37725  1.0000
  C   C1415     1.0  0.95563  0.16712  0.39241  1.0000
  H   H2412     1.0  0.96277  0.20448  0.43635  1.0000
  H   H2413     1.0  0.96414  0.24183  0.40957  1.0000
  H   H2414     1.0  0.95492  0.18367  0.36070  1.0000
  H   H2415     1.0  0.95341  0.14639  0.38746  1.0000
  C   C1416     1.0  0.97768  0.46387  0.39419  1.0000
  C   C1417     1.0  0.97375  0.45361  0.41442  1.0000
  C   C1418     1.0  0.97262  0.42531  0.41767  1.0000
  C   C1419     1.0  0.97487  0.40723  0.40061  1.0000
  C   C1420     1.0  0.97841  0.41756  0.38033  1.0000
  C   C1421     1.0  0.98007  0.44578  0.37719  1.0000
  H   H2416     1.0  0.97180  0.46743  0.42756  1.0000
  H   H2417     1.0  0.96983  0.41737  0.43338  1.0000
  H   H2418     1.0  0.98030  0.40373  0.36712  1.0000
  H   H2419     1.0  0.83400  0.38154  0.43999  1.0000
  H   H2420     1.0  0.86306  0.38124  0.35198  1.0000
  H   H2421     1.0  0.87801  0.40646  0.36061  1.0000
  H   H2422     1.0  0.81336  0.39154  0.40920  1.0000
  N   N100      1.0  0.83507  0.40483  0.38732  1.0000
  H   H2423     1.0  0.90884  0.40366  0.39606  1.0000
  H   H2424     1.0  0.81696  0.43884  0.39674  1.0000
  H   H2425     1.0  0.85135  0.45499  0.36981  1.0000
  H   H2426     1.0  0.85858  0.16174  0.37873  1.0000
  C   C1422     1.0  0.98074  0.01938  0.51095  1.0000
  C   C1423     1.0  0.98063  0.01762  0.53319  1.0000
  H   H2427     1.0  0.78188  0.22453  0.51406  1.0000
  H   H2428     1.0  0.83380  0.09293  0.38054  1.0000
  C   C1424     1.0  0.92630  0.43826  0.38668  1.0000
  C   C1425     1.0  0.77995  0.20790  0.40929  1.0000
  H   H2429     1.0  0.97012  0.02902  0.54227  1.0000
  C   C1426     1.0  0.99118  0.47513  0.52019  1.0000
  C   C1427     1.0  0.78159  0.16469  0.37921  1.0000
  C   C1428     1.0  0.77540  0.40863  0.39691  1.0000
  H   H2430     1.0  0.78251  0.40514  0.42965  1.0000
  H   H2431     1.0  0.78690  0.26050  0.51510  1.0000
  C   C1429     1.0  0.83488  0.11510  0.37717  1.0000
  C   C1430     1.0  0.77817  0.18044  0.41565  1.0000
  C   C1431     1.0  0.97011  0.97921  0.39529  1.0000
  H   H2432     1.0  0.81420  0.35500  0.37691  1.0000
  H   H2433     1.0  0.81833  0.17548  0.39473  1.0000
  H   H2434     1.0  0.77355  0.19262  0.49054  1.0000
  C   C1432     1.0  0.91609  0.26887  0.42624  1.0000
  H   H2435     1.0  0.92608  0.28541  0.42880  1.0000
  H   H2436     1.0  0.86139  0.09296  0.39993  1.0000
  S   S409      1.0  0.78271  0.13868  0.35949  1.0000
  S   S410      1.0  0.96991  0.01458  0.39008  1.0000
  H   H2437     1.0  0.85435  0.24371  0.39183  1.0000
  H   H2438     1.0  0.77759  0.13807  0.40596  1.0000
  H   H2439     1.0  0.87978  0.27086  0.39496  1.0000
  H   H2440     1.0  0.80821  0.40360  0.37258  1.0000
  H   H2441     1.0  0.88888  0.44664  0.38225  1.0000
  C   C1433     1.0  0.76773  0.25120  0.48964  1.0000
  S   S411      1.0  0.77802  0.23410  0.42885  1.0000
  H   H2442     1.0  0.87008  0.22175  0.37816  1.0000
  H   H2443     1.0  0.93328  0.39650  0.39590  1.0000
  C   C1434     1.0  0.95566  0.13867  0.50145  1.0000
  C   C1435     1.0  0.86737  0.23118  0.39377  1.0000
  S   S412      1.0  0.76174  0.31375  0.43489  1.0000
  H   H2444     1.0  0.81722  0.13467  0.41112  1.0000
  H   H2445     1.0  0.90808  0.47168  0.35897  1.0000
  C   C1436     1.0  0.00386  0.07984  0.51680  1.0000
  H   H2446     1.0  0.96892  0.35489  0.64114  1.0000
  H   H2447     1.0  0.84029  0.44144  0.40519  1.0000
  N   N101      1.0  0.90276  0.24086  0.39562  1.0000
  C   C1437     1.0  0.91529  0.26336  0.40226  1.0000
  C   C1438     1.0  0.90614  0.23659  0.37221  1.0000
  C   C1439     1.0  0.90820  0.21536  0.40782  1.0000
  H   H2448     1.0  0.97044  0.44138  0.57439  1.0000
  N   N102      1.0  0.98944  0.12017  0.49537  1.0000
  C   C1440     1.0  0.90163  0.26131  0.35787  1.0000
  H   H2449     1.0  0.99467  0.07873  0.48462  1.0000
  H   H2450     1.0  0.98779  0.33896  0.62695  1.0000
  H   H2451     1.0  0.92990  0.25910  0.39654  1.0000
  H   H2452     1.0  0.91089  0.28312  0.39499  1.0000
  H   H2453     1.0  0.89816  0.21947  0.36606  1.0000
  H   H2454     1.0  0.92102  0.23047  0.36904  1.0000
  H   H2455     1.0  0.90163  0.21561  0.42395  1.0000
  C   C1441     1.0  0.97425  0.35001  0.62493  1.0000
  C   C1442     1.0  0.97633  0.37689  0.61241  1.0000
  C   C1443     1.0  0.83787  0.39675  0.42769  1.0000
  H   H2456     1.0  0.83640  0.14048  0.42743  1.0000
  C   C1444     1.0  0.88293  0.24986  0.40085  1.0000
  C   C1445     1.0  0.99358  0.14075  0.53288  1.0000
  C   C1446     1.0  0.82975  0.17512  0.38265  1.0000
  H   H2457     1.0  0.85148  0.16957  0.40485  1.0000
  S   S413      1.0  0.79433  0.01428  0.34446  1.0000
  H   H2458     1.0  0.00217  0.34006  0.59604  1.0000
  H   H2459     1.0  0.91322  0.18367  0.38370  1.0000
  H   H2460     1.0  0.85331  0.39620  0.42637  1.0000
  H   H2461     1.0  0.94177  0.34415  0.57438  1.0000
  C   C1447     1.0  0.99816  0.14151  0.50882  1.0000
  H   H2462     1.0  0.77592  0.17575  0.43222  1.0000
  H   H2463     1.0  0.96980  0.43065  0.60128  1.0000
  H   H2464     1.0  0.83349  0.19667  0.37974  1.0000
  C   C1448     1.0  0.96859  0.42327  0.58481  1.0000
  H   H2465     1.0  0.82007  0.12202  0.37544  1.0000
  H   H2466     1.0  0.92319  0.41588  0.41713  1.0000
  N   N103      1.0  0.91477  0.46380  0.39178  1.0000
  N   N104      1.0  0.98282  0.37402  0.58965  1.0000
  H   H2467     1.0  0.86429  0.41068  0.39358  1.0000
  H   H2468     1.0  0.98098  0.15052  0.47205  1.0000
  H   H2469     1.0  0.96411  0.33641  0.61771  1.0000
  C   C1449     1.0  0.86282  0.11531  0.39843  1.0000
  S   S414      1.0  0.76775  0.00439  0.39797  1.0000
  H   H2470     1.0  0.82799  0.45127  0.35941  1.0000
  H   H2471     1.0  0.94391  0.37135  0.59196  1.0000
  C   C1450     1.0  0.78383  0.24321  0.50455  1.0000
  C   C1451     1.0  0.92245  0.41242  0.39994  1.0000
  H   H2472     1.0  0.99729  0.41155  0.58372  1.0000
  S   S415      1.0  0.01118  0.44905  0.61649  1.0000
  H   H2473     1.0  0.83264  0.41686  0.43364  1.0000
  H   H2474     1.0  0.86757  0.47297  0.40706  1.0000
  H   H2475     1.0  0.76740  0.27388  0.48903  1.0000
  H   H2476     1.0  0.89333  0.44166  0.40923  1.0000
  C   C1452     1.0  0.85554  0.39824  0.38324  1.0000
  C   C1453     1.0  0.96964  0.11419  0.50210  1.0000
  H   H2477     1.0  0.99372  0.00034  0.56095  1.0000
  H   H2478     1.0  0.90734  0.17113  0.40932  1.0000
  H   H2479     1.0  0.95183  0.14371  0.48494  1.0000
  H   H2480     1.0  0.85871  0.37667  0.38769  1.0000
  H   H2481     1.0  0.85162  0.13622  0.35216  1.0000
  H   H2482     1.0  0.88699  0.26885  0.35987  1.0000
  H   H2483     1.0  0.79679  0.23969  0.49485  1.0000
  C   C1454     1.0  0.83622  0.45487  0.37369  1.0000
  H   H2484     1.0  0.78407  0.23447  0.38255  1.0000
  H   H2485     1.0  0.94647  0.37758  0.56384  1.0000
  H   H2486     1.0  0.95440  0.41596  0.58235  1.0000
  C   C1455     1.0  0.77910  0.15897  0.40077  1.0000
  C   C1456     1.0  0.98408  0.40182  0.57934  1.0000
  C   C1457     1.0  0.87367  0.12499  0.41766  1.0000
  C   C1458     1.0  0.82290  0.39673  0.36938  1.0000
  H   H2487     1.0  0.96097  0.15704  0.50915  1.0000
  H   H2488     1.0  0.81956  0.09949  0.43785  1.0000
  H   H2489     1.0  0.92453  0.43205  0.36993  1.0000
  Fe  Fe208     1.0  0.77722  0.32574  0.46385  1.0000
  H   H2490     1.0  0.87711  0.14679  0.41639  1.0000
  H   H2491     1.0  0.96865  0.10517  0.51813  1.0000
  H   H2492     1.0  0.90245  0.27625  0.43291  1.0000
  H   H2493     1.0  0.86471  0.21516  0.40583  1.0000
  C   C1459     1.0  0.82256  0.36592  0.36472  1.0000
  C   C1460     1.0  0.97066  0.35569  0.57721  1.0000
  H   H2494     1.0  0.90938  0.45483  0.43509  1.0000
  C   C1461     1.0  0.90402  0.18766  0.39778  1.0000
  C   C1462     1.0  0.99448  0.00457  0.49948  1.0000
  C   C1463     1.0  0.82954  0.09827  0.42417  1.0000
  C   C1464     1.0  0.00978  0.06948  0.62504  1.0000
  H   H2495     1.0  0.92350  0.21444  0.41036  1.0000
  C   C1465     1.0  0.98875  0.13057  0.47286  1.0000
  H   H2496     1.0  0.98091  0.11644  0.46287  1.0000
  H   H2497     1.0  0.88927  0.18598  0.39350  1.0000
  H   H2498     1.0  0.83229  0.47587  0.37905  1.0000
  H   H2499     1.0  0.99374  0.16232  0.50337  1.0000
  H   H2500     1.0  0.98476  0.40007  0.56178  1.0000
  H   H2501     1.0  0.98319  0.45360  0.36152  1.0000
  H   H2502     1.0  0.98527  0.45525  0.51830  1.0000
  H   H2503     1.0  0.92130  0.25086  0.43524  1.0000
  N   N105      1.0  0.84409  0.12911  0.39516  1.0000
  C   C1466     1.0  0.89470  0.45678  0.39626  1.0000
  H   H2504     1.0  0.98314  0.15705  0.53723  1.0000
  H   H2505     1.0  0.94255  0.13305  0.50988  1.0000
  H   H2506     1.0  0.83144  0.36694  0.40479  1.0000
  H   H2507     1.0  0.88079  0.25197  0.41824  1.0000
  C   C1467     1.0  0.00790  0.98833  0.51016  1.0000
  C   C1468     1.0  0.78276  0.21355  0.38777  1.0000
  C   C1469     1.0  0.86306  0.40119  0.36025  1.0000
  H   H2508     1.0  0.84285  0.08978  0.43027  1.0000
  H   H2509     1.0  0.78537  0.19687  0.35626  1.0000
  H   H2510     1.0  0.97303  0.05805  0.66378  1.0000
  H   H2511     1.0  0.98604  0.38992  0.62111  1.0000
  H   H2512     1.0  0.88330  0.98860  0.43246  1.0000
  H   H2513     1.0  0.82674  0.40699  0.35435  1.0000
  H   H2514     1.0  0.88709  0.11311  0.41834  1.0000
  H   H2515     1.0  0.97236  0.33396  0.58225  1.0000
  H   H2516     1.0  0.98883  0.12104  0.53921  1.0000
  C   C1470     1.0  0.83179  0.43481  0.39180  1.0000
  H   H2517     1.0  0.83231  0.98926  0.37019  1.0000
  S   S416      1.0  0.00941  0.45144  0.55389  1.0000
  H   H2518     1.0  0.90366  0.25516  0.34108  1.0000
  H   H2519     1.0  0.76883  0.41925  0.36476  1.0000
  H   H2520     1.0  0.76761  0.47499  0.46611  1.0000
  H   H2521     1.0  0.90796  0.99305  0.43456  1.0000
  C   C1471     1.0  0.92205  0.46654  0.43186  1.0000
  H   H2522     1.0  0.81047  0.98061  0.39973  1.0000
  H   H2523     1.0  0.00568  0.34599  0.55690  1.0000
  H   H2524     1.0  0.00507  0.14658  0.44652  1.0000
  H   H2525     1.0  0.83464  0.11438  0.34277  1.0000
  S   S417      1.0  0.77276  0.37321  0.39286  1.0000
  C   C1472     1.0  0.77514  0.45513  0.38263  1.0000
  H   H2526     1.0  0.99060  0.07506  0.52512  1.0000
  C   C1473     1.0  0.77272  0.42692  0.38000  1.0000
  H   H2527     1.0  0.77294  0.46906  0.36953  1.0000
  C   C1474     1.0  0.00092  0.09389  0.49527  1.0000
  C   C1475     1.0  0.77986  0.46530  0.40235  1.0000
  H   H2528     1.0  0.85575  0.09983  0.35373  1.0000
  C   C1476     1.0  0.00225  0.36127  0.58970  1.0000
  H   H2529     1.0  0.83675  0.35660  0.36351  1.0000
  H   H2530     1.0  0.00514  0.02778  0.61601  1.0000
  S   S418      1.0  0.94222  0.30424  0.33504  1.0000
  H   H2531     1.0  0.77202  0.24448  0.47344  1.0000
  H   H2532     1.0  0.99677  0.46135  0.45271  1.0000
  H   H2533     1.0  0.85912  0.97745  0.34829  1.0000
  C   C1477     1.0  0.00992  0.04107  0.62825  1.0000
  C   C1478     1.0  0.89661  0.97842  0.43720  1.0000
  H   H2534     1.0  0.00490  0.07799  0.61028  1.0000
  H   H2535     1.0  0.99802  0.98785  0.35822  1.0000
  H   H2536     1.0  0.97985  0.98244  0.42707  1.0000
  H   H2537     1.0  0.85597  0.41704  0.35065  1.0000
  H   H2538     1.0  0.82460  0.16720  0.36752  1.0000
  H   H2539     1.0  0.94400  0.47277  0.36064  1.0000
  H   H2540     1.0  0.00633  0.14559  0.54164  1.0000
  C   C1479     1.0  0.00781  0.98663  0.53241  1.0000
  H   H2541     1.0  0.77028  0.38789  0.49637  1.0000
  H   H2542     1.0  0.01131  0.37278  0.60032  1.0000
  Fe  Fe209     1.0  0.92402  0.30962  0.93588  1.0000
  S   S419      1.0  0.94082  0.31568  0.90614  1.0000
  S   S420      1.0  0.89261  0.31566  0.93690  1.0000
  Fe  Fe210     1.0  0.95882  0.29820  0.96255  1.0000
  S   S421      1.0  0.97801  0.30359  0.93414  1.0000
  C   C1480     1.0  0.99157  0.17292  0.82761  1.0000
  Fe  Fe211     1.0  0.95967  0.34037  0.92584  1.0000
  S   S422      1.0  0.97271  0.37994  0.91366  1.0000
  Fe  Fe212     1.0  0.95723  0.27859  0.91701  1.0000
  S   S423      1.0  0.96310  0.24736  0.89118  1.0000
  S   S424      1.0  0.94182  0.33654  0.95521  1.0000
  S   S425      1.0  0.93908  0.27096  0.94575  1.0000
  Fe  Fe213     1.0  0.96126  0.09008  0.87811  1.0000
  S   S426      1.0  0.94758  0.10709  0.84922  1.0000
  S   S427      1.0  0.96997  0.11872  0.90411  1.0000
  Fe  Fe214     1.0  0.95724  0.03000  0.86424  1.0000
  S   S428      1.0  0.94337  0.04407  0.83422  1.0000
  C   C1481     1.0  0.97966  0.09949  0.69114  1.0000
  Fe  Fe215     1.0  0.96533  0.07617  0.83119  1.0000
  S   S429      1.0  0.98507  0.08299  0.80240  1.0000
  Fe  Fe216     1.0  0.92714  0.07365  0.85522  1.0000
  S   S430      1.0  0.89589  0.08261  0.85374  1.0000
  S   S431      1.0  0.98016  0.06043  0.86013  1.0000
  S   S432      1.0  0.93984  0.05823  0.88514  1.0000
  H   H2543     1.0  0.81186  0.19398  0.90193  1.0000
  H   H2544     1.0  0.00839  0.33266  0.67142  1.0000
  Fe  Fe217     1.0  0.81483  0.31409  0.85318  1.0000
  S   S433      1.0  0.79788  0.32757  0.88158  1.0000
  S   S434      1.0  0.84632  0.30772  0.85295  1.0000
  Fe  Fe218     1.0  0.78035  0.30709  0.82561  1.0000
  Fe  Fe219     1.0  0.78134  0.35360  0.85899  1.0000
  Fe  Fe220     1.0  0.77905  0.29361  0.87285  1.0000
  C   C1482     1.0  0.76773  0.45084  0.87937  1.0000
  S   S435      1.0  0.79963  0.34217  0.83074  1.0000
  S   S436      1.0  0.79713  0.27836  0.84594  1.0000
  Fe  Fe221     1.0  0.81243  0.08445  0.93299  1.0000
  S   S437      1.0  0.80128  0.07320  0.90166  1.0000
  S   S438      1.0  0.84379  0.08533  0.93646  1.0000
  Fe  Fe222     1.0  0.77334  0.08797  0.95458  1.0000
  Fe  Fe223     1.0  0.78283  0.04423  0.91961  1.0000
  Fe  Fe224     1.0  0.77962  0.10617  0.90911  1.0000
  H   H2545     1.0  0.76778  0.37288  0.74482  1.0000
  S   S439      1.0  0.79520  0.05422  0.95102  1.0000
  S   S440      1.0  0.79196  0.11930  0.93954  1.0000
  H   H2546     1.0  0.78413  0.35070  0.92322  1.0000
  H   H2547     1.0  0.80501  0.00995  0.85128  1.0000
  H   H2548     1.0  0.98454  0.15888  0.81676  1.0000
  H   H2549     1.0  0.76158  0.33774  0.72290  1.0000
  H   H2550     1.0  0.80601  0.02250  0.87746  1.0000
  H   H2551     1.0  0.99672  0.05713  0.74753  1.0000
  H   H2552     1.0  0.91796  0.44522  0.85038  1.0000
  C   C1483     1.0  0.77828  0.42614  0.87972  1.0000
  S   S441      1.0  0.00583  0.17538  0.73433  1.0000
  N   N106      1.0  0.84126  0.99122  0.88537  1.0000
  C   C1484     1.0  0.88145  0.08260  0.87680  1.0000
  C   C1485     1.0  0.88799  0.07299  0.89621  1.0000
  C   C1486     1.0  0.87622  0.07355  0.91429  1.0000
  C   C1487     1.0  0.85778  0.08362  0.91316  1.0000
  C   C1488     1.0  0.85112  0.09291  0.89372  1.0000
  C   C1489     1.0  0.86292  0.09237  0.87562  1.0000
  H   H2553     1.0  0.90206  0.06493  0.89733  1.0000
  H   H2554     1.0  0.88140  0.06608  0.92923  1.0000
  H   H2555     1.0  0.83699  0.10098  0.89267  1.0000
  H   H2556     1.0  0.85768  0.09970  0.86066  1.0000
  C   C1490     1.0  0.99013  0.10877  0.78327  1.0000
  H   H2557     1.0  0.85435  0.02539  0.92273  1.0000
  C   C1491     1.0  0.78957  0.47296  0.90240  1.0000
  H   H2558     1.0  0.00077  0.18648  0.86748  1.0000
  H   H2559     1.0  0.98974  0.09529  0.67785  1.0000
  C   C1492     1.0  0.97805  0.13106  0.77941  1.0000
  C   C1493     1.0  0.98331  0.12859  0.69893  1.0000
  C   C1494     1.0  0.94675  0.08660  0.71988  1.0000
  H   H2560     1.0  0.96497  0.13300  0.78821  1.0000
  C   C1495     1.0  0.87985  0.31201  0.91364  1.0000
  C   C1496     1.0  0.86072  0.31886  0.91405  1.0000
  C   C1497     1.0  0.85027  0.31745  0.89559  1.0000
  C   C1498     1.0  0.85886  0.30911  0.87657  1.0000
  C   C1499     1.0  0.87796  0.30190  0.87620  1.0000
  C   C1500     1.0  0.88842  0.30323  0.89469  1.0000
  H   H2561     1.0  0.85401  0.32562  0.92867  1.0000
  H   H2562     1.0  0.83562  0.32310  0.89609  1.0000
  H   H2563     1.0  0.88472  0.29541  0.86153  1.0000
  H   H2564     1.0  0.90311  0.29770  0.89422  1.0000
  C   C1501     1.0  0.96458  0.21181  0.89562  1.0000
  C   C1502     1.0  0.96866  0.20053  0.91540  1.0000
  C   C1503     1.0  0.97061  0.17198  0.91779  1.0000
  C   C1504     1.0  0.96816  0.15456  0.90055  1.0000
  C   C1505     1.0  0.96379  0.16597  0.88095  1.0000
  C   C1506     1.0  0.96211  0.19440  0.87846  1.0000
  H   H2565     1.0  0.97068  0.21382  0.92871  1.0000
  H   H2566     1.0  0.83869  0.00615  0.93924  1.0000
  H   H2567     1.0  0.96182  0.15292  0.86761  1.0000
  H   H2568     1.0  0.95890  0.20300  0.86314  1.0000
  C   C1507     1.0  0.96298  0.41323  0.90848  1.0000
  C   C1508     1.0  0.94553  0.42195  0.91667  1.0000
  C   C1509     1.0  0.93860  0.44866  0.91241  1.0000
  H   H2569     1.0  0.77288  0.34622  0.76289  1.0000
  C   C1510     1.0  0.96632  0.45832  0.89170  1.0000
  C   C1511     1.0  0.97337  0.43172  0.89618  1.0000
  H   H2570     1.0  0.93750  0.40825  0.92649  1.0000
  H   H2571     1.0  0.92520  0.45528  0.91901  1.0000
  H   H2572     1.0  0.96218  0.36150  0.99489  1.0000
  H   H2573     1.0  0.99827  0.25788  0.98333  1.0000
  S   S442      1.0  0.76993  0.26568  0.89961  1.0000
  C   C1512     1.0  0.83334  0.00292  0.90576  1.0000
  H   H2574     1.0  0.97144  0.09961  0.73526  1.0000
  H   H2575     1.0  0.84962  0.17731  0.88109  1.0000
  H   H2576     1.0  0.82292  0.16100  0.90044  1.0000
  H   H2577     1.0  0.88373  0.02355  0.87380  1.0000
  S   S443      1.0  0.77449  0.29477  0.79141  1.0000
  C   C1513     1.0  0.80000  0.44813  0.90297  1.0000
  C   C1514     1.0  0.98594  0.20240  0.82134  1.0000
  H   H2578     1.0  0.82114  0.99145  0.91168  1.0000
  C   C1515     1.0  0.77151  0.21957  0.87454  1.0000
  H   H2579     1.0  0.85698  0.98874  0.92567  1.0000
  H   H2580     1.0  0.77112  0.99314  0.87079  1.0000
  C   C1516     1.0  0.00249  0.39771  0.98660  1.0000
  C   C1517     1.0  0.77291  0.17299  0.88851  1.0000
  H   H2581     1.0  0.81238  0.44678  0.91237  1.0000
  S   S444      1.0  0.78274  0.99741  0.91519  1.0000
  H   H2582     1.0  0.77031  0.14432  0.99408  1.0000
  H   H2583     1.0  0.82405  0.03074  0.85802  1.0000
  C   C1518     1.0  0.82541  0.98810  0.87033  1.0000
  C   C1519     1.0  0.85504  0.01047  0.87524  1.0000
  C   C1520     1.0  0.98292  0.15097  0.76414  1.0000
  H   H2584     1.0  0.96577  0.10058  0.68377  1.0000
  H   H2585     1.0  0.97422  0.13471  0.71259  1.0000
  H   H2586     1.0  0.77422  0.26747  0.75136  1.0000
  H   H2587     1.0  0.98341  0.33630  0.97226  1.0000
  C   C1521     1.0  0.81478  0.01462  0.86407  1.0000
  S   S445      1.0  0.77252  0.13744  0.88372  1.0000
  H   H2588     1.0  0.82736  0.02379  0.90309  1.0000
  C   C1522     1.0  0.77150  0.23008  0.89505  1.0000
  C   C1523     1.0  0.87559  0.00733  0.88174  1.0000
  C   C1524     1.0  0.77241  0.21193  0.91228  1.0000
  C   C1525     1.0  0.77334  0.18350  0.90901  1.0000
  H   H2589     1.0  0.98482  0.16921  0.84315  1.0000
  H   H2590     1.0  0.00237  0.03320  0.72642  1.0000
  H   H2591     1.0  0.92972  0.42131  0.86706  1.0000
  H   H2592     1.0  0.77157  0.18325  0.85541  1.0000
  H   H2593     1.0  0.96220  0.38807  0.95932  1.0000
  N   N107      1.0  0.91072  0.15142  0.91453  1.0000
  C   C1526     1.0  0.91644  0.13801  0.89382  1.0000
  C   C1527     1.0  0.92235  0.13818  0.93154  1.0000
  C   C1528     1.0  0.91545  0.18116  0.91274  1.0000
  C   C1529     1.0  0.89001  0.14805  0.91811  1.0000
  C   C1530     1.0  0.90751  0.15021  0.87378  1.0000
  C   C1531     1.0  0.92086  0.10698  0.93370  1.0000
  C   C1532     1.0  0.91202  0.19884  0.93254  1.0000
  C   C1533     1.0  0.88245  0.14907  0.94121  1.0000
  H   H2594     1.0  0.93181  0.13824  0.89133  1.0000
  H   H2595     1.0  0.91294  0.11607  0.89389  1.0000
  H   H2596     1.0  0.91912  0.14680  0.94735  1.0000
  H   H2597     1.0  0.93737  0.14242  0.92872  1.0000
  H   H2598     1.0  0.93038  0.18317  0.90795  1.0000
  H   H2599     1.0  0.90733  0.19156  0.90019  1.0000
  H   H2600     1.0  0.88196  0.16352  0.90887  1.0000
  H   H2601     1.0  0.88586  0.12796  0.91195  1.0000
  H   H2602     1.0  0.91286  0.17067  0.86986  1.0000
  H   H2603     1.0  0.91144  0.13702  0.86009  1.0000
  H   H2604     1.0  0.92733  0.10015  0.94868  1.0000
  H   H2605     1.0  0.90623  0.10045  0.93408  1.0000
  H   H2606     1.0  0.92876  0.09633  0.92076  1.0000
  H   H2607     1.0  0.89695  0.20118  0.93657  1.0000
  H   H2608     1.0  0.91698  0.21972  0.92902  1.0000
  H   H2609     1.0  0.92002  0.19142  0.94630  1.0000
  H   H2610     1.0  0.86813  0.15835  0.94135  1.0000
  H   H2611     1.0  0.89060  0.16110  0.95222  1.0000
  H   H2612     1.0  0.88066  0.12808  0.94756  1.0000
  N   N108      1.0  0.84063  0.21927  0.87529  1.0000
  C   C1534     1.0  0.83727  0.21167  0.85261  1.0000
  C   C1535     1.0  0.84046  0.19351  0.88847  1.0000
  C   C1536     1.0  0.85913  0.23260  0.87750  1.0000
  C   C1537     1.0  0.82551  0.23939  0.88238  1.0000
  C   C1538     1.0  0.84107  0.23395  0.83582  1.0000
  C   C1539     1.0  0.82122  0.18079  0.89194  1.0000
  C   C1540     1.0  0.87635  0.21527  0.87030  1.0000
  C   C1541     1.0  0.82578  0.24831  0.90576  1.0000
  H   H2613     1.0  0.84580  0.19331  0.84782  1.0000
  H   H2614     1.0  0.82252  0.20573  0.85068  1.0000
  H   H2615     1.0  0.84652  0.19673  0.90426  1.0000
  H   H2616     1.0  0.77414  0.16974  0.92235  1.0000
  H   H2617     1.0  0.85939  0.25226  0.86868  1.0000
  H   H2618     1.0  0.86139  0.23827  0.89426  1.0000
  H   H2619     1.0  0.82651  0.25864  0.87313  1.0000
  H   H2620     1.0  0.81133  0.23219  0.87886  1.0000
  H   H2621     1.0  0.83329  0.25324  0.83919  1.0000
  H   H2622     1.0  0.85611  0.23826  0.83404  1.0000
  H   H2623     1.0  0.83645  0.22678  0.82021  1.0000
  H   H2624     1.0  0.81438  0.17649  0.87683  1.0000
  H   H2625     1.0  0.88199  0.98772  0.87623  1.0000
  H   H2626     1.0  0.87828  0.19713  0.88054  1.0000
  H   H2627     1.0  0.88899  0.22772  0.87165  1.0000
  H   H2628     1.0  0.87564  0.20878  0.85360  1.0000
  H   H2629     1.0  0.83468  0.26627  0.90764  1.0000
  H   H2630     1.0  0.83060  0.23206  0.91666  1.0000
  H   H2631     1.0  0.81132  0.25384  0.91120  1.0000
  N   N109      1.0  0.98087  0.07694  0.70746  1.0000
  C   C1542     1.0  0.00474  0.05396  0.73249  1.0000
  H   H2632     1.0  0.85539  0.00827  0.85769  1.0000
  H   H2633     1.0  0.94117  0.06864  0.71190  1.0000
  C   C1543     1.0  0.96728  0.08185  0.72568  1.0000
  H   H2634     1.0  0.97205  0.03471  0.70914  1.0000
  H   H2635     1.0  0.76687  0.33849  0.95552  1.0000
  C   C1544     1.0  0.76170  0.26183  0.75999  1.0000
  H   H2636     1.0  0.99146  0.03966  0.69204  1.0000
  H   H2637     1.0  0.93832  0.08967  0.73468  1.0000
  C   C1545     1.0  0.00408  0.41075  0.96426  1.0000
  H   H2638     1.0  0.99813  0.13113  0.70282  1.0000
  H   H2639     1.0  0.76899  0.13908  0.72090  1.0000
  H   H2640     1.0  0.94463  0.10526  0.71016  1.0000
  H   H2641     1.0  0.97440  0.47204  0.88194  1.0000
  H   H2642     1.0  0.96749  0.06425  0.73687  1.0000
  C   C1546     1.0  0.00701  0.10662  0.77149  1.0000
  H   H2643     1.0  0.84313  0.45174  0.89488  1.0000
  C   C1547     1.0  0.84686  0.00595  0.92410  1.0000
  H   H2644     1.0  0.96651  0.41851  0.97450  1.0000
  C   C1548     1.0  0.77309  0.36720  0.92360  1.0000
  H   H2645     1.0  0.80276  0.40620  0.89224  1.0000
  C   C1549     1.0  0.79451  0.42498  0.89163  1.0000
  H   H2646     1.0  0.98965  0.20698  0.80461  1.0000
  C   C1550     1.0  0.96105  0.39756  0.97513  1.0000
  H   H2647     1.0  0.98033  0.14332  0.68595  1.0000
  H   H2648     1.0  0.97354  0.16826  0.76146  1.0000
  C   C1551     1.0  0.94880  0.46696  0.89970  1.0000
  H   H2649     1.0  0.97052  0.20492  0.82288  1.0000
  N   N110      1.0  0.89682  0.39317  0.87999  1.0000
  C   C1552     1.0  0.91401  0.37505  0.88237  1.0000
  C   C1553     1.0  0.89293  0.40782  0.90056  1.0000
  C   C1554     1.0  0.89951  0.41407  0.86270  1.0000
  C   C1555     1.0  0.88079  0.37554  0.87435  1.0000
  C   C1556     1.0  0.92190  0.36170  0.86190  1.0000
  C   C1557     1.0  0.88841  0.38949  0.91984  1.0000
  C   C1558     1.0  0.91633  0.43274  0.86498  1.0000
  C   C1559     1.0  0.86126  0.38962  0.87442  1.0000
  H   H2650     1.0  0.92550  0.38623  0.88969  1.0000
  H   H2651     1.0  0.91113  0.35791  0.89349  1.0000
  H   H2652     1.0  0.88137  0.42326  0.89898  1.0000
  H   H2653     1.0  0.90520  0.41964  0.90505  1.0000
  H   H2654     1.0  0.90068  0.40415  0.84691  1.0000
  H   H2655     1.0  0.88710  0.42807  0.86175  1.0000
  H   H2656     1.0  0.88301  0.36654  0.85835  1.0000
  H   H2657     1.0  0.87993  0.35786  0.88527  1.0000
  H   H2658     1.0  0.93432  0.34876  0.86583  1.0000
  H   H2659     1.0  0.91174  0.34812  0.85467  1.0000
  H   H2660     1.0  0.92676  0.37697  0.85018  1.0000
  H   H2661     1.0  0.90046  0.37599  0.92401  1.0000
  H   H2662     1.0  0.88533  0.40262  0.93381  1.0000
  H   H2663     1.0  0.87600  0.37698  0.91758  1.0000
  H   H2664     1.0  0.99195  0.21762  0.83195  1.0000
  H   H2665     1.0  0.91402  0.44737  0.87814  1.0000
  S   S446      1.0  0.96063  0.98318  0.86639  1.0000
  H   H2666     1.0  0.85670  0.39643  0.89044  1.0000
  H   H2667     1.0  0.85097  0.37455  0.86934  1.0000
  H   H2668     1.0  0.86040  0.40698  0.86318  1.0000
  H   H2669     1.0  0.89207  0.15068  0.87495  1.0000
  H   H2670     1.0  0.77453  0.37712  0.90784  1.0000
  H   H2671     1.0  0.94590  0.39972  0.97901  1.0000
  H   H2672     1.0  0.85068  0.03215  0.87821  1.0000
  S   S447      1.0  0.77000  0.39723  0.86582  1.0000
  C   C1560     1.0  0.97794  0.04937  0.69741  1.0000
  H   H2673     1.0  0.97398  0.16336  0.93306  1.0000
  H   H2674     1.0  0.98891  0.12232  0.84666  1.0000
  C   C1561     1.0  0.00030  0.07661  0.71613  1.0000
  H   H2675     1.0  0.85964  0.46841  0.87831  1.0000
  H   H2676     1.0  0.98694  0.42535  0.88987  1.0000
  N   N111      1.0  0.99082  0.37263  0.98887  1.0000
  S   S448      1.0  0.96652  0.29327  0.99749  1.0000
  H   H2677     1.0  0.76443  0.17314  0.71206  1.0000
  C   C1562     1.0  0.96577  0.04866  0.67760  1.0000
  C   C1563     1.0  0.97047  0.38026  0.99247  1.0000
  H   H2678     1.0  0.87737  0.00956  0.89895  1.0000
  H   H2679     1.0  0.00312  0.09610  0.72402  1.0000
  C   C1564     1.0  0.99982  0.14879  0.75238  1.0000
  C   C1565     1.0  0.77335  0.47409  0.89051  1.0000
  H   H2680     1.0  0.95789  0.98447  0.91301  1.0000
  H   H2681     1.0  0.77248  0.21988  0.92819  1.0000
  H   H2682     1.0  0.79382  0.39253  0.93785  1.0000
  C   C1566     1.0  0.84750  0.47207  0.88911  1.0000
  C   C1567     1.0  0.77875  0.38839  0.94007  1.0000
  C   C1568     1.0  0.77202  0.19117  0.87132  1.0000
  H   H2683     1.0  0.00291  0.13784  0.86645  1.0000
  C   C1569     1.0  0.76138  0.35577  0.75367  1.0000
  H   H2684     1.0  0.77060  0.23330  0.86114  1.0000
  C   C1570     1.0  0.00334  0.12530  0.85201  1.0000
  H   H2685     1.0  0.77111  0.40817  0.93775  1.0000
  C   C1571     1.0  0.99275  0.35389  0.97007  1.0000
  H   H2686     1.0  0.00898  0.10481  0.85652  1.0000
  H   H2687     1.0  0.77646  0.38129  0.95656  1.0000
  H   H2688     1.0  0.96353  0.02704  0.67334  1.0000
  H   H2689     1.0  0.98800  0.36374  0.95531  1.0000
  H   H2690     1.0  0.95188  0.05866  0.68000  1.0000
  H   H2691     1.0  0.83049  0.97804  0.85543  1.0000
  H   H2692     1.0  0.99241  0.40707  0.95363  1.0000
  H   H2693     1.0  0.00473  0.43326  0.96590  1.0000
  H   H2694     1.0  0.01069  0.15951  0.79406  1.0000
  H   H2695     1.0  0.99725  0.41390  0.99770  1.0000
  H   H2696     1.0  0.01089  0.07469  0.70310  1.0000
  H   H2697     1.0  0.79319  0.62308  0.07098  1.0000
  H   H2698     1.0  0.78241  0.86239  0.21762  1.0000
  H   H2699     1.0  0.79129  0.61919  0.27610  1.0000
  N   N112      1.0  0.99399  0.86073  0.00466  1.0000
  H   H2700     1.0  0.77941  0.83535  0.23553  1.0000
  C   C1572     1.0  0.77366  0.59022  0.10079  1.0000
  S   S449      1.0  0.98357  0.83139  0.30891  1.0000
  S   S450      1.0  0.78186  0.53475  0.29880  1.0000
  H   H2701     1.0  0.96138  0.89276  0.00749  1.0000
  H   H2702     1.0  0.78486  0.60523  0.10120  1.0000
  C   C1573     1.0  0.78104  0.62497  0.06057  1.0000
  C   C1574     1.0  0.99091  0.85865  0.29220  1.0000
  C   C1575     1.0  0.97996  0.88240  0.28941  1.0000
  H   H2703     1.0  0.92746  0.73185  0.01686  1.0000
  H   H2704     1.0  0.00774  0.82063  0.24541  1.0000
  H   H2705     1.0  0.94894  0.86134  0.00528  1.0000
  C   C1576     1.0  0.98952  0.50129  0.22598  1.0000
  H   H2706     1.0  0.99121  0.79873  0.21516  1.0000
  H   H2707     1.0  0.96678  0.88474  0.29795  1.0000
  H   H2708     1.0  0.97367  0.84230  0.05349  1.0000
  C   C1577     1.0  0.98125  0.97011  0.31620  1.0000
  C   C1578     1.0  0.76437  0.51622  0.28582  1.0000
  S   S451      1.0  0.96195  0.78192  0.00176  1.0000
  C   C1579     1.0  0.98127  0.76625  0.01470  1.0000
  C   C1580     1.0  0.97964  0.76042  0.03647  1.0000
  H   H2709     1.0  0.77478  0.52719  0.25477  1.0000
  H   H2710     1.0  0.93482  0.69781  0.02312  1.0000
  H   H2711     1.0  0.78665  0.62425  0.04405  1.0000
  C   C1581     1.0  0.96348  0.65982  0.01479  1.0000
  H   H2712     1.0  0.00528  0.81652  0.19701  1.0000
  C   C1582     1.0  0.00315  0.54804  0.25632  1.0000
  H   H2713     1.0  0.00184  0.86505  0.03729  1.0000
  C   C1583     1.0  0.76696  0.58579  0.12393  1.0000
  H   H2714     1.0  0.97644  0.70861  0.00374  1.0000
  H   H2715     1.0  0.78685  0.62784  0.30316  1.0000
  H   H2716     1.0  0.98426  0.90310  0.18717  1.0000
  H   H2717     1.0  0.99285  0.74281  0.06405  1.0000
  H   H2718     1.0  0.76922  0.88267  0.19167  1.0000
  H   H2719     1.0  0.00373  0.87338  0.21779  1.0000
  H   H2720     1.0  0.98294  0.92695  0.31466  1.0000
  N   N113      1.0  0.98383  0.84190  0.21213  1.0000
  H   H2721     1.0  0.96699  0.83156  0.02785  1.0000
  C   C1584     1.0  0.96909  0.83470  0.19661  1.0000
  C   C1585     1.0  0.97478  0.84640  0.23359  1.0000
  C   C1586     1.0  0.99352  0.86766  0.20572  1.0000
  H   H2722     1.0  0.99050  0.55812  0.24969  1.0000
  C   C1587     1.0  0.97510  0.83583  0.17302  1.0000
  C   C1588     1.0  0.96579  0.82127  0.24393  1.0000
  C   C1589     1.0  0.98073  0.89326  0.20255  1.0000
  C   C1590     1.0  0.00786  0.85584  0.28062  1.0000
  H   H2723     1.0  0.77395  0.64525  0.06234  1.0000
  H   H2724     1.0  0.95629  0.84781  0.19867  1.0000
  H   H2725     1.0  0.96421  0.81362  0.19960  1.0000
  H   H2726     1.0  0.98492  0.85427  0.24486  1.0000
  H   H2727     1.0  0.96367  0.86267  0.23291  1.0000
  H   H2728     1.0  0.96682  0.76583  0.04497  1.0000
  H   H2729     1.0  0.98295  0.90834  0.21526  1.0000
  H   H2730     1.0  0.77428  0.90925  0.22462  1.0000
  H   H2731     1.0  0.98879  0.81956  0.03887  1.0000
  H   H2732     1.0  0.97744  0.92144  0.27354  1.0000
  H   H2733     1.0  0.98725  0.82205  0.16937  1.0000
  H   H2734     1.0  0.96345  0.82896  0.16328  1.0000
  H   H2735     1.0  0.97825  0.85686  0.16775  1.0000
  H   H2736     1.0  0.95445  0.81334  0.23429  1.0000
  H   H2737     1.0  0.95951  0.82736  0.25949  1.0000
  H   H2738     1.0  0.97620  0.80473  0.24722  1.0000
  H   H2739     1.0  0.82824  0.95477  0.32029  1.0000
  H   H2740     1.0  0.96567  0.88925  0.20249  1.0000
  C   C1591     1.0  0.00651  0.83565  0.00166  1.0000
  C   C1592     1.0  0.93876  0.71624  0.01400  1.0000
  H   H2741     1.0  0.98506  0.51669  0.26630  1.0000
  H   H2742     1.0  0.78103  0.57101  0.09556  1.0000
  H   H2743     1.0  0.96433  0.67844  0.02442  1.0000
  H   H2744     1.0  0.00770  0.51164  0.27532  1.0000
  C   C1593     1.0  0.83711  0.97082  0.32661  1.0000
  H   H2745     1.0  0.77929  0.58382  0.13419  1.0000
  H   H2746     1.0  0.77452  0.58244  0.05842  1.0000
  H   H2747     1.0  0.98827  0.48193  0.21697  1.0000
  H   H2748     1.0  0.99855  0.81679  0.00453  1.0000
  H   H2749     1.0  0.98012  0.88049  0.03189  1.0000
  C   C1594     1.0  0.99990  0.51758  0.26090  1.0000
  H   H2750     1.0  0.76496  0.62248  0.32957  1.0000
  C   C1595     1.0  0.99804  0.81864  0.21258  1.0000
  H   H2751     1.0  0.78540  0.59289  0.29425  1.0000
  C   C1596     1.0  0.77372  0.85593  0.23128  1.0000
  C   C1597     1.0  0.76723  0.60172  0.06363  1.0000
  C   C1598     1.0  0.98600  0.90310  0.27543  1.0000
  H   H2752     1.0  0.98036  0.52626  0.19940  1.0000
  C   C1599     1.0  0.76158  0.91995  0.21903  1.0000
  H   H2753     1.0  0.77362  0.64570  0.09971  1.0000
  H   H2754     1.0  0.95494  0.64537  0.02420  1.0000
  C   C1600     1.0  0.99437  0.74737  0.04735  1.0000
  C   C1601     1.0  0.76175  0.61977  0.28471  1.0000
  H   H2755     1.0  0.97754  0.64982  0.01330  1.0000
  H   H2756     1.0  0.76222  0.57989  0.31562  1.0000
  C   C1602     1.0  0.98790  0.94256  0.32568  1.0000
  H   H2757     1.0  0.76500  0.85070  0.16379  1.0000
  C   C1603     1.0  0.98902  0.86237  0.02795  1.0000
  H   H2758     1.0  0.00221  0.86451  0.19109  1.0000
  H   H2759     1.0  0.99637  0.54338  0.21553  1.0000
  H   H2760     1.0  0.97539  0.50574  0.23303  1.0000
  C   C1604     1.0  0.99796  0.75921  0.00396  1.0000
  H   H2761     1.0  0.76434  0.83194  0.18807  1.0000
  H   H2762     1.0  0.95158  0.72491  0.02023  1.0000
  C   C1605     1.0  0.00296  0.90034  0.26389  1.0000
  H   H2763     1.0  0.77575  0.86985  0.24479  1.0000
  H   H2764     1.0  0.00640  0.55836  0.27133  1.0000
  C   C1606     1.0  0.99306  0.52332  0.20896  1.0000
  C   C1607     1.0  0.78239  0.61453  0.29019  1.0000
  H   H2765     1.0  0.76380  0.92705  0.20249  1.0000
  C   C1608     1.0  0.97904  0.83741  0.03731  1.0000
  H   H2766     1.0  0.00441  0.51659  0.19779  1.0000
  N   N114      1.0  0.00380  0.49777  0.24308  1.0000
  H   H2767     1.0  0.98993  0.91773  0.01656  1.0000
  H   H2768     1.0  0.98566  0.97187  0.29930  1.0000
  H   H2769     1.0  0.96575  0.97113  0.31664  1.0000
  H   H2770     1.0  0.01022  0.84059  0.11928  1.0000
  S   S452      1.0  0.01030  0.92808  0.24768  1.0000
  H   H2771     1.0  0.76411  0.66900  0.33182  1.0000
  N   N115      1.0  0.00853  0.93843  0.32934  1.0000
  C   C1609     1.0  0.76428  0.51614  0.26355  1.0000
  C   C1610     1.0  0.01097  0.73997  0.03656  1.0000
  C   C1611     1.0  0.99512  0.91335  0.00028  1.0000
  H   H2772     1.0  0.89478  0.97459  0.45431  1.0000
  S   S453      1.0  0.79719  0.74084  0.42352  1.0000
  Fe  Fe225     1.0  0.97336  0.55241  0.45908  1.0000
  S   S454      1.0  0.98982  0.55980  0.42880  1.0000
  S   S455      1.0  0.98931  0.54958  0.49011  1.0000
  Fe  Fe226     1.0  0.93652  0.55465  0.43575  1.0000
  S   S456      1.0  0.95039  0.56171  0.40435  1.0000
  S   S457      1.0  0.90509  0.55151  0.43864  1.0000
  Fe  Fe227     1.0  0.97091  0.52946  0.41468  1.0000
  C   C1612     1.0  0.89398  0.76943  0.38842  1.0000
  Fe  Fe228     1.0  0.96781  0.59196  0.42096  1.0000
  S   S458      1.0  0.97513  0.62975  0.40114  1.0000
  S   S459      1.0  0.95586  0.51989  0.44517  1.0000
  S   S460      1.0  0.95260  0.58691  0.45223  1.0000
  S   S461      1.0  0.97979  0.82041  0.36975  1.0000
  Fe  Fe229     1.0  0.92754  0.83970  0.36282  1.0000
  S   S462      1.0  0.94016  0.83001  0.39391  1.0000
  S   S463      1.0  0.89645  0.85002  0.36126  1.0000
  Fe  Fe230     1.0  0.96341  0.85645  0.38307  1.0000
  S   S464      1.0  0.97449  0.88670  0.40646  1.0000
  Fe  Fe231     1.0  0.95483  0.79451  0.37762  1.0000
  S   S465      1.0  0.94930  0.75610  0.39782  1.0000
  H   H2773     1.0  0.97564  0.91596  0.54210  1.0000
  H   H2774     1.0  0.97750  0.56595  0.65957  1.0000
  C   C1613     1.0  0.91824  0.62455  0.40961  1.0000
  Fe  Fe232     1.0  0.81564  0.83397  0.44110  1.0000
  S   S466      1.0  0.80604  0.81836  0.41019  1.0000
  S   S467      1.0  0.84597  0.84418  0.44493  1.0000
  H   H2775     1.0  0.93280  0.50194  0.34908  1.0000
  Fe  Fe233     1.0  0.79052  0.78682  0.42908  1.0000
  Fe  Fe234     1.0  0.78147  0.84706  0.41618  1.0000
  S   S468      1.0  0.76463  0.81424  0.43228  1.0000
  S   S469      1.0  0.80149  0.80139  0.46018  1.0000
  S   S470      1.0  0.79212  0.86461  0.44610  1.0000
  Fe  Fe235     1.0  0.78861  0.53057  0.38058  1.0000
  S   S471      1.0  0.80710  0.51761  0.35313  1.0000
  H   H2776     1.0  0.90698  0.50115  0.37515  1.0000
  Fe  Fe236     1.0  0.78715  0.59113  0.36709  1.0000
  H   H2777     1.0  0.87768  0.79472  0.40983  1.0000
  Fe  Fe237     1.0  0.82263  0.55555  0.36031  1.0000
  S   S472      1.0  0.85426  0.55559  0.35772  1.0000
  S   S473      1.0  0.80550  0.56699  0.38919  1.0000
  H   H2778     1.0  0.94103  0.50441  0.37526  1.0000
  H   H2779     1.0  0.92759  0.97007  0.45855  1.0000
  H   H2780     1.0  0.88088  0.91562  0.38453  1.0000
  N   N116      1.0  0.00086  0.88996  0.54313  1.0000
  C   C1614     1.0  0.88139  0.48092  0.40230  1.0000
  H   H2781     1.0  0.90784  0.77509  0.39431  1.0000
  H   H2782     1.0  0.87869  0.89609  0.44516  1.0000
  C   C1615     1.0  0.97471  0.86068  0.52785  1.0000
  C   C1616     1.0  0.84603  0.71269  0.40804  1.0000
  H   H2783     1.0  0.87458  0.72232  0.41154  1.0000
  C   C1617     1.0  0.78321  0.84829  0.62545  1.0000
  C   C1618     1.0  0.79573  0.66303  0.40021  1.0000
  H   H2784     1.0  0.86265  0.76713  0.36893  1.0000
  C   C1619     1.0  0.88254  0.84893  0.38468  1.0000
  C   C1620     1.0  0.89049  0.84656  0.40459  1.0000
  C   C1621     1.0  0.87917  0.84592  0.42298  1.0000
  C   C1622     1.0  0.85971  0.84708  0.42162  1.0000
  C   C1623     1.0  0.85168  0.84989  0.40176  1.0000
  C   C1624     1.0  0.86305  0.85086  0.38337  1.0000
  H   H2785     1.0  0.90535  0.84524  0.40598  1.0000
  H   H2786     1.0  0.88552  0.84367  0.43827  1.0000
  H   H2787     1.0  0.83671  0.85143  0.40054  1.0000
  H   H2788     1.0  0.85672  0.85279  0.36806  1.0000
  C   C1625     1.0  0.86800  0.55406  0.38046  1.0000
  C   C1626     1.0  0.88748  0.55272  0.37794  1.0000
  C   C1627     1.0  0.89897  0.55162  0.39564  1.0000
  C   C1628     1.0  0.89108  0.55217  0.41605  1.0000
  C   C1629     1.0  0.87158  0.55326  0.41858  1.0000
  C   C1630     1.0  0.86006  0.55417  0.40085  1.0000
  H   H2789     1.0  0.89370  0.55246  0.36220  1.0000
  H   H2790     1.0  0.91389  0.55033  0.39341  1.0000
  H   H2791     1.0  0.86533  0.55355  0.43432  1.0000
  H   H2792     1.0  0.84506  0.55509  0.40300  1.0000
  C   C1631     1.0  0.96776  0.66483  0.40069  1.0000
  C   C1632     1.0  0.97363  0.68138  0.38366  1.0000
  C   C1633     1.0  0.96822  0.70929  0.38248  1.0000
  C   C1634     1.0  0.95681  0.72107  0.39837  1.0000
  C   C1635     1.0  0.95081  0.70446  0.41533  1.0000
  C   C1636     1.0  0.95629  0.67659  0.41656  1.0000
  H   H2793     1.0  0.98257  0.67260  0.37132  1.0000
  H   H2794     1.0  0.97298  0.72169  0.36935  1.0000
  H   H2795     1.0  0.94209  0.71336  0.42780  1.0000
  H   H2796     1.0  0.95187  0.66432  0.42992  1.0000
  H   H2797     1.0  0.89886  0.69975  0.37055  1.0000
  C   C1637     1.0  0.79027  0.88419  0.55960  1.0000
  C   C1638     1.0  0.97751  0.94027  0.41782  1.0000
  C   C1639     1.0  0.97278  0.92223  0.40178  1.0000
  C   C1640     1.0  0.96650  0.93281  0.38257  1.0000
  C   C1641     1.0  0.96532  0.96120  0.37928  1.0000
  H   H2798     1.0  0.87104  0.65631  0.37491  1.0000
  H   H2799     1.0  0.98237  0.93225  0.43274  1.0000
  H   H2800     1.0  0.96263  0.91912  0.37022  1.0000
  H   H2801     1.0  0.96512  0.87852  0.52996  1.0000
  C   C1642     1.0  0.85486  0.76385  0.44329  1.0000
  H   H2802     1.0  0.94017  0.91691  0.43594  1.0000
  C   C1643     1.0  0.77202  0.68942  0.38216  1.0000
  C   C1644     1.0  0.99269  0.86219  0.54064  1.0000
  H   H2803     1.0  0.83198  0.90216  0.38844  1.0000
  H   H2804     1.0  0.83381  0.76033  0.42003  1.0000
  C   C1645     1.0  0.91422  0.62037  0.37176  1.0000
  H   H2805     1.0  0.92268  0.62861  0.44331  1.0000
  C   C1646     1.0  0.99405  0.52219  0.50808  1.0000
  C   C1647     1.0  0.88165  0.91412  0.45486  1.0000
  H   H2806     1.0  0.78162  0.90324  0.56093  1.0000
  H   H2807     1.0  0.91115  0.65781  0.43228  1.0000
  H   H2808     1.0  0.88588  0.60650  0.39988  1.0000
  Fe  Fe238     1.0  0.96527  0.83175  0.33934  1.0000
  H   H2809     1.0  0.83417  0.74242  0.37008  1.0000
  H   H2810     1.0  0.89875  0.62632  0.43712  1.0000
  H   H2811     1.0  0.89678  0.66821  0.35730  1.0000
  H   H2812     1.0  0.00523  0.49484  0.42590  1.0000
  C   C1648     1.0  0.82204  0.96574  0.39596  1.0000
  N   N117      1.0  0.91090  0.92915  0.43364  1.0000
  H   H2813     1.0  0.00121  0.89701  0.36142  1.0000
  C   C1649     1.0  0.90261  0.92056  0.45471  1.0000
  C   C1650     1.0  0.83169  0.92201  0.35652  1.0000
  H   H2814     1.0  0.00548  0.86912  0.34380  1.0000
  H   H2815     1.0  0.79501  0.88298  0.54277  1.0000
  N   N118      1.0  0.77181  0.85561  0.58736  1.0000
  H   H2816     1.0  0.84302  0.76585  0.45488  1.0000
  S   S474      1.0  0.76852  0.55545  0.36074  1.0000
  H   H2817     1.0  0.78221  0.90769  0.59734  1.0000
  H   H2818     1.0  0.77218  0.55853  0.59464  1.0000
  H   H2819     1.0  0.96660  0.84299  0.53355  1.0000
  H   H2820     1.0  0.91031  0.90219  0.46083  1.0000
  C   C1651     1.0  0.85322  0.77249  0.38256  1.0000
  Fe  Fe239     1.0  0.78815  0.54441  0.33350  1.0000
  H   H2821     1.0  0.77464  0.50053  0.60010  1.0000
  N   N119      1.0  0.84124  0.94753  0.36318  1.0000
  H   H2822     1.0  0.87891  0.49493  0.38878  1.0000
  H   H2823     1.0  0.88591  0.76352  0.42080  1.0000
  C   C1652     1.0  0.77875  0.85890  0.56481  1.0000
  H   H2824     1.0  0.79741  0.87031  0.60091  1.0000
  S   S475      1.0  0.78160  0.50062  0.40701  1.0000
  H   H2825     1.0  0.82289  0.76638  0.38852  1.0000
  H   H2826     1.0  0.90420  0.93619  0.46707  1.0000
  H   H2827     1.0  0.97806  0.85784  0.51075  1.0000
  C   C1653     1.0  0.84765  0.76963  0.42089  1.0000
  H   H2828     1.0  0.93629  0.93838  0.46986  1.0000
  H   H2829     1.0  0.00190  0.92007  0.49225  1.0000
  C   C1654     1.0  0.97746  0.90142  0.57376  1.0000
  S   S476      1.0  0.77479  0.63492  0.37081  1.0000
  C   C1655     1.0  0.76931  0.92740  0.37387  1.0000
  H   H2830     1.0  0.97709  0.49271  0.49315  1.0000
  H   H2831     1.0  0.90651  0.62639  0.35746  1.0000
  H   H2832     1.0  0.77233  0.88896  0.49868  1.0000
  H   H2833     1.0  0.89534  0.74819  0.38260  1.0000
  C   C1656     1.0  0.90011  0.95260  0.42374  1.0000
  C   C1657     1.0  0.92314  0.47938  0.40958  1.0000
  C   C1658     1.0  0.93122  0.93591  0.43578  1.0000
  H   H2834     1.0  0.86113  0.74305  0.44485  1.0000
  S   S477      1.0  0.77198  0.87502  0.38951  1.0000
  H   H2835     1.0  0.86308  0.96121  0.38321  1.0000
  C   C1659     1.0  0.87932  0.77261  0.40654  1.0000
  H   H2836     1.0  0.85913  0.62676  0.38333  1.0000
  H   H2837     1.0  0.91187  0.59812  0.37347  1.0000
  C   C1660     1.0  0.83375  0.76372  0.37593  1.0000
  H   H2838     1.0  0.76474  0.56386  0.54661  1.0000
  C   C1661     1.0  0.86296  0.72988  0.40148  1.0000
  H   H2839     1.0  0.77520  0.96198  0.42804  1.0000
  C   C1662     1.0  0.78152  0.66420  0.38539  1.0000
  H   H2840     1.0  0.85282  0.79520  0.38337  1.0000
  H   H2841     1.0  0.98746  0.89777  0.58662  1.0000
  H   H2842     1.0  0.91592  0.88617  0.42680  1.0000
  C   C1663     1.0  0.85652  0.94175  0.37871  1.0000
  H   H2843     1.0  0.91919  0.68375  0.35964  1.0000
  H   H2844     1.0  0.91731  0.88938  0.38776  1.0000
  H   H2845     1.0  0.00494  0.50650  0.46258  1.0000
  H   H2846     1.0  0.90743  0.95979  0.40913  1.0000
  Fe  Fe240     1.0  0.77667  0.83074  0.46229  1.0000
  H   H2847     1.0  0.84306  0.71366  0.42531  1.0000
  H   H2848     1.0  0.84912  0.69092  0.40422  1.0000
  H   H2849     1.0  0.86520  0.77917  0.44771  1.0000
  H   H2850     1.0  0.86717  0.72378  0.38509  1.0000
  H   H2851     1.0  0.93547  0.90750  0.39930  1.0000
  C   C1664     1.0  0.01089  0.50524  0.53914  1.0000
  C   C1665     1.0  0.77431  0.92369  0.41142  1.0000
  C   C1666     1.0  0.90998  0.90492  0.41910  1.0000
  H   H2852     1.0  0.83316  0.71868  0.39975  1.0000
  H   H2853     1.0  0.89093  0.78366  0.37514  1.0000
  C   C1667     1.0  0.79066  0.71180  0.40849  1.0000
  S   S478      1.0  0.94992  0.86871  0.35268  1.0000
  H   H2854     1.0  0.76909  0.73215  0.39082  1.0000
  C   C1668     1.0  0.77192  0.91104  0.39193  1.0000
  H   H2855     1.0  0.88127  0.63989  0.40965  1.0000
  C   C1669     1.0  0.87299  0.63417  0.37798  1.0000
  N   N120      1.0  0.86051  0.76055  0.40291  1.0000
  C   C1670     1.0  0.77348  0.95233  0.41291  1.0000
  C   C1671     1.0  0.91210  0.63523  0.43167  1.0000
  S   S479      1.0  0.80536  0.58167  0.33846  1.0000
  C   C1672     1.0  0.99471  0.91582  0.50762  1.0000
  H   H2856     1.0  0.90033  0.67659  0.40167  1.0000
  H   H2857     1.0  0.92392  0.67098  0.39356  1.0000
  C   C1673     1.0  0.98708  0.91037  0.55288  1.0000
  C   C1674     1.0  0.78820  0.85262  0.60180  1.0000
  H   H2858     1.0  0.89530  0.90038  0.41563  1.0000
  H   H2859     1.0  0.94393  0.61073  0.37668  1.0000
  H   H2860     1.0  0.93322  0.62951  0.40763  1.0000
  C   C1675     1.0  0.93511  0.62363  0.36624  1.0000
  C   C1676     1.0  0.90937  0.66583  0.38966  1.0000
  C   C1677     1.0  0.77659  0.71305  0.39351  1.0000
  N   N121      1.0  0.90708  0.63533  0.39122  1.0000
  C   C1678     1.0  0.00844  0.90043  0.52217  1.0000
  H   H2861     1.0  0.84462  0.79200  0.41990  1.0000
  H   H2862     1.0  0.96776  0.91812  0.57925  1.0000
  C   C1679     1.0  0.88696  0.62848  0.39568  1.0000
  H   H2863     1.0  0.91790  0.60185  0.41040  1.0000
  H   H2864     1.0  0.91727  0.50062  0.41060  1.0000
  H   H2865     1.0  0.84080  0.90901  0.34597  1.0000
  H   H2866     1.0  0.87656  0.62283  0.36327  1.0000
  C   C1680     1.0  0.98652  0.49633  0.50587  1.0000
  C   C1681     1.0  0.90575  0.67946  0.36795  1.0000
  H   H2867     1.0  0.80300  0.88541  0.56906  1.0000
  H   H2868     1.0  0.87708  0.90905  0.47128  1.0000
  C   C1682     1.0  0.80014  0.68657  0.41173  1.0000
  H   H2869     1.0  0.82920  0.77674  0.36247  1.0000
  C   C1683     1.0  0.87231  0.92198  0.37095  1.0000
  S   S480      1.0  0.94128  0.80348  0.34642  1.0000
  H   H2870     1.0  0.81966  0.92735  0.34635  1.0000
  H   H2871     1.0  0.80308  0.64385  0.40308  1.0000
  C   C1684     1.0  0.92020  0.90751  0.39747  1.0000
  C   C1685     1.0  0.00621  0.52645  0.52484  1.0000
  C   C1686     1.0  0.76855  0.57177  0.56226  1.0000
  C   C1687     1.0  0.76709  0.90593  0.60029  1.0000
  S   S481      1.0  0.98012  0.49902  0.38965  1.0000
  H   H2872     1.0  0.79745  0.83508  0.59671  1.0000
  H   H2873     1.0  0.96901  0.88308  0.57164  1.0000
  H   H2874     1.0  0.81086  0.68512  0.42344  1.0000
  H   H2875     1.0  0.93622  0.94782  0.42180  1.0000
  H   H2876     1.0  0.78341  0.57752  0.56093  1.0000
  H   H2877     1.0  0.78726  0.84058  0.55979  1.0000
  H   H2878     1.0  0.98223  0.90409  0.50417  1.0000
  H   H2879     1.0  0.76690  0.86037  0.55386  1.0000
  H   H2880     1.0  0.93957  0.64503  0.36719  1.0000
  H   H2881     1.0  0.77797  0.82753  0.62856  1.0000
  H   H2882     1.0  0.99402  0.93002  0.55585  1.0000
  H   H2883     1.0  0.88180  0.93193  0.35934  1.0000
  H   H2884     1.0  0.85108  0.93334  0.39384  1.0000
  H   H2885     1.0  0.87292  0.93186  0.44974  1.0000
  H   H2886     1.0  0.95110  0.95873  0.45363  1.0000
  C   C1688     1.0  0.97598  0.96868  0.41469  1.0000
  H   H2887     1.0  0.80913  0.91067  0.37861  1.0000
  C   C1689     1.0  0.82351  0.90374  0.37414  1.0000
  C   C1690     1.0  0.93655  0.95175  0.45565  1.0000
  H   H2888     1.0  0.77288  0.86370  0.63159  1.0000
  H   H2889     1.0  0.96062  0.96931  0.36433  1.0000
  H   H2890     1.0  0.98584  0.89111  0.33964  1.0000
  H   H2891     1.0  0.97976  0.93942  0.34057  1.0000
  H   H2892     1.0  0.93806  0.61648  0.34985  1.0000
  H   H2893     1.0  0.77649  0.91149  0.42541  1.0000
  H   H2894     1.0  0.00882  0.59059  0.62049  1.0000
  C   C1691     1.0  0.82719  0.96815  0.37223  1.0000
  H   H2895     1.0  0.77634  0.53301  0.57536  1.0000
  H   H2896     1.0  0.99025  0.85206  0.55624  1.0000
  C   C1692     1.0  0.77046  0.96863  0.39497  1.0000
  C   C1693     1.0  0.91501  0.48180  0.37232  1.0000
  H   H2897     1.0  0.79602  0.85012  0.63484  1.0000
  H   H2898     1.0  0.76281  0.92586  0.52394  1.0000
  H   H2899     1.0  0.76633  0.96843  0.36139  1.0000
  H   H2900     1.0  0.77134  0.81132  0.58583  1.0000
  H   H2901     1.0  0.81710  0.94533  0.40050  1.0000
  C   C1694     1.0  0.00346  0.47936  0.53687  1.0000
  H   H2902     1.0  0.91562  0.92567  0.38831  1.0000
  H   H2903     1.0  0.88640  0.94607  0.41794  1.0000
  H   H2904     1.0  0.82293  0.88246  0.36828  1.0000
  C   C1695     1.0  0.76650  0.55006  0.57988  1.0000
  H   H2905     1.0  0.00291  0.84808  0.53253  1.0000
  H   H2906     1.0  0.99044  0.93600  0.51431  1.0000
  H   H2907     1.0  0.76749  0.91782  0.35872  1.0000
  H   H2908     1.0  0.86701  0.90309  0.36407  1.0000
  C   C1696     1.0  0.93444  0.49041  0.36411  1.0000
  C   C1697     1.0  0.00053  0.89079  0.34464  1.0000
  H   H2909     1.0  0.00455  0.94164  0.36325  1.0000
  C   C1698     1.0  0.85037  0.96000  0.34378  1.0000
  H   H2910     1.0  0.76406  0.90994  0.61731  1.0000
  H   H2911     1.0  0.81389  0.96767  0.36353  1.0000
  H   H2912     1.0  0.83386  0.97131  0.40595  1.0000
  H   H2913     1.0  0.93823  0.48254  0.40631  1.0000
  C   C1699     1.0  0.76877  0.95608  0.37533  1.0000
  H   H2914     1.0  0.85999  0.94499  0.33569  1.0000
  H   H2915     1.0  0.92140  0.48313  0.44378  1.0000
  H   H2916     1.0  0.88636  0.49248  0.41599  1.0000
  C   C1700     1.0  0.76156  0.82907  0.58872  1.0000
  Fe  Fe241     1.0  0.92467  0.80514  0.93695  1.0000
  S   S482      1.0  0.94331  0.81953  0.91054  1.0000
  S   S483      1.0  0.89317  0.80739  0.93649  1.0000
  Fe  Fe242     1.0  0.95748  0.79406  0.96718  1.0000
  S   S484      1.0  0.97849  0.80815  0.94286  1.0000
  H   H2917     1.0  0.87444  0.51825  0.93392  1.0000
  Fe  Fe243     1.0  0.95810  0.84285  0.93536  1.0000
  S   S485      1.0  0.96339  0.88877  0.93698  1.0000
  Fe  Fe244     1.0  0.96170  0.78372  0.92026  1.0000
  S   S486      1.0  0.97376  0.75456  0.89574  1.0000
  S   S487      1.0  0.93825  0.83020  0.96139  1.0000
  S   S488      1.0  0.94188  0.76772  0.94496  1.0000
  Fe  Fe245     1.0  0.96039  0.59942  0.88732  1.0000
  S   S489      1.0  0.94966  0.61640  0.85687  1.0000
  S   S490      1.0  0.97519  0.62646  0.91015  1.0000
  Fe  Fe246     1.0  0.94771  0.54034  0.87837  1.0000
  S   S491      1.0  0.93668  0.55403  0.84669  1.0000
  C   C1701     1.0  0.77491  0.97294  0.87646  1.0000
  Fe  Fe247     1.0  0.96285  0.57869  0.84232  1.0000
  S   S492      1.0  0.98344  0.57985  0.81377  1.0000
  Fe  Fe248     1.0  0.92474  0.59075  0.86417  1.0000
  S   S493      1.0  0.89484  0.60611  0.86004  1.0000
  S   S494      1.0  0.97477  0.56230  0.87290  1.0000
  S   S495      1.0  0.93465  0.57648  0.89569  1.0000
  C   C1702     1.0  0.77376  0.95014  0.86295  1.0000
  H   H2918     1.0  0.97291  0.83647  0.99051  1.0000
  Fe  Fe249     1.0  0.81797  0.80988  0.85050  1.0000
  S   S496      1.0  0.80040  0.82627  0.87756  1.0000
  S   S497      1.0  0.84944  0.80340  0.85055  1.0000
  Fe  Fe250     1.0  0.78375  0.79923  0.82283  1.0000
  Fe  Fe251     1.0  0.78405  0.84938  0.85291  1.0000
  Fe  Fe252     1.0  0.78198  0.79095  0.87057  1.0000
  C   C1703     1.0  0.85012  0.96321  0.88841  1.0000
  S   S498      1.0  0.80290  0.83471  0.82592  1.0000
  S   S499      1.0  0.80067  0.77339  0.84514  1.0000
  Fe  Fe253     1.0  0.81127  0.59579  0.93643  1.0000
  S   S500      1.0  0.80271  0.57999  0.90514  1.0000
  S   S501      1.0  0.84084  0.60922  0.94096  1.0000
  Fe  Fe254     1.0  0.77249  0.58851  0.95733  1.0000
  Fe  Fe255     1.0  0.78862  0.54658  0.92364  1.0000
  Fe  Fe256     1.0  0.77684  0.60602  0.91129  1.0000
  C   C1704     1.0  0.77845  0.92349  0.86993  1.0000
  S   S502      1.0  0.79854  0.56157  0.95514  1.0000
  S   S503      1.0  0.78637  0.62395  0.94159  1.0000
  H   H2919     1.0  0.78289  0.70286  0.77976  1.0000
  C   C1705     1.0  0.97704  0.59321  0.68643  1.0000
  H   H2920     1.0  0.99334  0.61615  0.86564  1.0000
  C   C1706     1.0  0.93604  0.67846  0.95082  1.0000
  H   H2921     1.0  0.95707  0.62292  0.71624  1.0000
  H   H2922     1.0  0.83859  0.54595  0.85942  1.0000
  H   H2923     1.0  0.99744  0.56200  0.67520  1.0000
  S   S504      1.0  0.77623  0.89545  0.85212  1.0000
  C   C1707     1.0  0.98219  0.56553  0.67619  1.0000
  H   H2924     1.0  0.96189  0.59714  0.68375  1.0000
  C   C1708     1.0  0.88008  0.60976  0.88268  1.0000
  C   C1709     1.0  0.88720  0.60912  0.90308  1.0000
  C   C1710     1.0  0.87504  0.60974  0.92083  1.0000
  C   C1711     1.0  0.85567  0.61085  0.91835  1.0000
  C   C1712     1.0  0.84854  0.61280  0.89798  1.0000
  C   C1713     1.0  0.86071  0.61223  0.88021  1.0000
  H   H2925     1.0  0.90207  0.60800  0.90523  1.0000
  H   H2926     1.0  0.88069  0.60870  0.93654  1.0000
  H   H2927     1.0  0.83366  0.61452  0.89587  1.0000
  H   H2928     1.0  0.85508  0.61302  0.86449  1.0000
  C   C1714     1.0  0.98983  0.60604  0.79545  1.0000
  C   C1715     1.0  0.83741  0.94134  0.89828  1.0000
  H   H2929     1.0  0.97823  0.70494  0.83874  1.0000
  H   H2930     1.0  0.76946  0.72522  0.81071  1.0000
  H   H2931     1.0  0.79526  0.67714  0.79419  1.0000
  C   C1716     1.0  0.97843  0.62914  0.79177  1.0000
  H   H2932     1.0  0.79342  0.84868  0.75610  1.0000
  H   H2933     1.0  0.99670  0.71900  0.92122  1.0000
  H   H2934     1.0  0.96524  0.63155  0.80031  1.0000
  C   C1717     1.0  0.88133  0.80558  0.91247  1.0000
  C   C1718     1.0  0.86197  0.81046  0.91258  1.0000
  C   C1719     1.0  0.85206  0.80973  0.89371  1.0000
  C   C1720     1.0  0.86142  0.80397  0.87457  1.0000
  C   C1721     1.0  0.88079  0.79880  0.87448  1.0000
  C   C1722     1.0  0.89075  0.79974  0.89336  1.0000
  H   H2935     1.0  0.85461  0.81501  0.92731  1.0000
  H   H2936     1.0  0.83718  0.81376  0.89400  1.0000
  H   H2937     1.0  0.88813  0.79426  0.85972  1.0000
  H   H2938     1.0  0.90567  0.79580  0.89313  1.0000
  C   C1723     1.0  0.97248  0.71949  0.90176  1.0000
  C   C1724     1.0  0.95937  0.70340  0.89191  1.0000
  C   C1725     1.0  0.95986  0.67484  0.89454  1.0000
  C   C1726     1.0  0.97374  0.66219  0.90668  1.0000
  C   C1727     1.0  0.98685  0.67831  0.91645  1.0000
  C   C1728     1.0  0.98620  0.70682  0.91407  1.0000
  H   H2939     1.0  0.94897  0.71300  0.88199  1.0000
  H   H2940     1.0  0.94957  0.66265  0.88710  1.0000
  H   H2941     1.0  0.86249  0.96376  0.89852  1.0000
  C   C1729     1.0  0.85183  0.48983  0.90829  1.0000
  C   C1730     1.0  0.96241  0.91467  0.91708  1.0000
  C   C1731     1.0  0.96411  0.90868  0.89552  1.0000
  C   C1732     1.0  0.96371  0.92995  0.88037  1.0000
  C   C1733     1.0  0.96146  0.95748  0.88647  1.0000
  S   S505      1.0  0.76154  0.57133  0.92697  1.0000
  C   C1734     1.0  0.96021  0.94219  0.92321  1.0000
  H   H2942     1.0  0.96615  0.88772  0.89051  1.0000
  H   H2943     1.0  0.96532  0.92509  0.86376  1.0000
  H   H2944     1.0  0.78860  0.71744  0.84328  1.0000
  H   H2945     1.0  0.95900  0.94714  0.93983  1.0000
  H   H2946     1.0  0.85550  0.95516  0.87292  1.0000
  C   C1735     1.0  0.78008  0.66181  0.76865  1.0000
  C   C1736     1.0  0.78068  0.96945  0.89732  1.0000
  H   H2947     1.0  0.98071  0.86349  0.97426  1.0000
  C   C1737     1.0  0.94019  0.71036  0.99014  1.0000
  H   H2948     1.0  0.85008  0.55699  0.89466  1.0000
  N   N122      1.0  0.76605  0.68234  0.80345  1.0000
  C   C1738     1.0  0.99193  0.68987  0.97813  1.0000
  H   H2949     1.0  0.95983  0.68163  0.83648  1.0000
  C   C1739     1.0  0.00508  0.88524  0.99821  1.0000
  C   C1740     1.0  0.78873  0.70244  0.83022  1.0000
  S   S506      1.0  0.77445  0.76177  0.89716  1.0000
  H   H2950     1.0  0.95689  0.57261  0.71734  1.0000
  N   N123      1.0  0.90387  0.89374  0.89046  1.0000
  C   C1741     1.0  0.89642  0.88312  0.91141  1.0000
  C   C1742     1.0  0.88761  0.89617  0.87579  1.0000
  C   C1743     1.0  0.91166  0.92157  0.89425  1.0000
  C   C1744     1.0  0.91888  0.87384  0.88264  1.0000
  C   C1745     1.0  0.91003  0.88318  0.92999  1.0000
  C   C1746     1.0  0.87812  0.86927  0.87067  1.0000
  C   C1747     1.0  0.91483  0.94016  0.87482  1.0000
  C   C1748     1.0  0.92652  0.87738  0.85980  1.0000
  H   H2951     1.0  0.88369  0.89503  0.91667  1.0000
  H   H2952     1.0  0.89198  0.86164  0.91001  1.0000
  H   H2953     1.0  0.89151  0.90537  0.86037  1.0000
  H   H2954     1.0  0.87669  0.91038  0.88255  1.0000
  H   H2955     1.0  0.90224  0.93355  0.90521  1.0000
  H   H2956     1.0  0.92526  0.91966  0.90231  1.0000
  H   H2957     1.0  0.93125  0.87458  0.89286  1.0000
  H   H2958     1.0  0.91435  0.85235  0.88437  1.0000
  H   H2959     1.0  0.90327  0.87339  0.94396  1.0000
  H   H2960     1.0  0.92302  0.87117  0.92652  1.0000
  H   H2961     1.0  0.91356  0.90413  0.93475  1.0000
  H   H2962     1.0  0.88810  0.85401  0.86365  1.0000
  H   H2963     1.0  0.87098  0.86056  0.88477  1.0000
  H   H2964     1.0  0.86715  0.87324  0.85883  1.0000
  H   H2965     1.0  0.92135  0.95920  0.88011  1.0000
  H   H2966     1.0  0.90159  0.94661  0.86738  1.0000
  H   H2967     1.0  0.92457  0.93097  0.86292  1.0000
  H   H2968     1.0  0.93963  0.88894  0.85963  1.0000
  H   H2969     1.0  0.91673  0.88720  0.84875  1.0000
  H   H2970     1.0  0.92983  0.85692  0.85298  1.0000
  N   N124      1.0  0.84638  0.71893  0.89130  1.0000
  C   C1749     1.0  0.85104  0.71362  0.86825  1.0000
  C   C1750     1.0  0.86378  0.72891  0.90138  1.0000
  C   C1751     1.0  0.83146  0.74131  0.89209  1.0000
  C   C1752     1.0  0.83941  0.69286  0.90127  1.0000
  C   C1753     1.0  0.83448  0.70598  0.85451  1.0000
  C   C1754     1.0  0.88141  0.71043  0.89827  1.0000
  C   C1755     1.0  0.82655  0.75382  0.91384  1.0000
  C   C1756     1.0  0.84247  0.68866  0.92515  1.0000
  H   H2971     1.0  0.85758  0.73183  0.86077  1.0000
  H   H2972     1.0  0.86149  0.69650  0.86644  1.0000
  H   H2973     1.0  0.86171  0.73192  0.91865  1.0000
  H   H2974     1.0  0.86724  0.74945  0.89506  1.0000
  H   H2975     1.0  0.83549  0.75857  0.88154  1.0000
  H   H2976     1.0  0.81807  0.73406  0.88591  1.0000
  H   H2977     1.0  0.82422  0.69082  0.89866  1.0000
  H   H2978     1.0  0.84608  0.67453  0.89354  1.0000
  H   H2979     1.0  0.82632  0.68918  0.86155  1.0000
  H   H2980     1.0  0.82517  0.72397  0.85157  1.0000
  H   H2981     1.0  0.83992  0.69900  0.83881  1.0000
  H   H2982     1.0  0.88777  0.71348  0.88228  1.0000
  H   H2983     1.0  0.89202  0.71613  0.90986  1.0000
  H   H2984     1.0  0.87852  0.68847  0.90051  1.0000
  H   H2985     1.0  0.81639  0.77108  0.91152  1.0000
  H   H2986     1.0  0.83871  0.76252  0.92160  1.0000
  H   H2987     1.0  0.81944  0.73923  0.92440  1.0000
  H   H2988     1.0  0.85735  0.68431  0.92856  1.0000
  H   H2989     1.0  0.83475  0.67045  0.93056  1.0000
  H   H2990     1.0  0.83732  0.70599  0.93490  1.0000
  C   C1757     1.0  0.00989  0.71186  0.85811  1.0000
  C   C1758     1.0  0.77361  0.72652  0.89179  1.0000
  S   S507      1.0  0.76370  0.81516  0.84814  1.0000
  N   N125      1.0  0.86080  0.51676  0.90364  1.0000
  H   H2991     1.0  0.96820  0.55766  0.75405  1.0000
  H   H2992     1.0  0.00957  0.55327  0.70544  1.0000
  H   H2993     1.0  0.84906  0.51257  0.86035  1.0000
  C   C1759     1.0  0.95468  0.68874  0.95900  1.0000
  H   H2994     1.0  0.92648  0.70190  0.98625  1.0000
  H   H2995     1.0  0.85020  0.54907  0.95205  1.0000
  H   H2996     1.0  0.77994  0.64738  0.81803  1.0000
  H   H2997     1.0  0.99772  0.66863  0.92568  1.0000
  H   H2998     1.0  0.97512  0.66697  0.77438  1.0000
  H   H2999     1.0  0.99949  0.76358  0.98724  1.0000
  H   H3000     1.0  0.96088  0.59265  0.75162  1.0000
  H   H3001     1.0  0.84171  0.51618  0.94636  1.0000
  H   H3002     1.0  0.81465  0.97460  0.87713  1.0000
  H   H3003     1.0  0.83818  0.49294  0.91675  1.0000
  H   H3004     1.0  0.00953  0.88400  0.98127  1.0000
  N   N126      1.0  0.98120  0.59622  0.70959  1.0000
  C   C1760     1.0  0.85007  0.53351  0.86648  1.0000
  H   H3005     1.0  0.78164  0.64042  0.77425  1.0000
  C   C1761     1.0  0.98403  0.64913  0.77693  1.0000
  C   C1762     1.0  0.95929  0.87479  0.99750  1.0000
  H   H3006     1.0  0.76713  0.66490  0.75962  1.0000
  H   H3007     1.0  0.87016  0.55076  0.92215  1.0000
  S   S508      1.0  0.93847  0.49965  0.89368  1.0000
  C   C1763     1.0  0.89212  0.53627  0.89068  1.0000
  C   C1764     1.0  0.78159  0.68211  0.78696  1.0000
  C   C1765     1.0  0.86407  0.53030  0.92459  1.0000
  H   H3008     1.0  0.98372  0.91568  0.98877  1.0000
  C   C1766     1.0  0.97428  0.70514  0.98673  1.0000
  C   C1767     1.0  0.00202  0.59664  0.71288  1.0000
  S   S509      1.0  0.00758  0.67306  0.74766  1.0000
  H   H3009     1.0  0.97812  0.55360  0.71849  1.0000
  H   H3010     1.0  0.94091  0.73045  0.98187  1.0000
  H   H3011     1.0  0.97422  0.72599  0.97957  1.0000
  H   H3012     1.0  0.93790  0.67294  0.93387  1.0000
  H   H3013     1.0  0.97248  0.64961  0.68835  1.0000
  H   H3014     1.0  0.88424  0.55455  0.88522  1.0000
  C   C1768     1.0  0.97716  0.85811  0.99096  1.0000
  H   H3015     1.0  0.97445  0.66725  0.71283  1.0000
  H   H3016     1.0  0.98451  0.60866  0.67669  1.0000
  C   C1769     1.0  0.95960  0.96346  0.90803  1.0000
  S   S510      1.0  0.76426  0.63446  0.88654  1.0000
  S   S511      1.0  0.79763  0.50163  0.91674  1.0000
  H   H3017     1.0  0.79269  0.71540  0.91635  1.0000
  C   C1770     1.0  0.00678  0.60318  0.78384  1.0000
  C   C1771     1.0  0.87963  0.51132  0.89308  1.0000
  H   H3018     1.0  0.89889  0.54096  0.90580  1.0000
  H   H3019     1.0  0.96555  0.67402  0.95286  1.0000
  H   H3020     1.0  0.87833  0.50269  0.87704  1.0000
  N   N127      1.0  0.95605  0.69168  0.98269  1.0000
  C   C1772     1.0  0.78151  0.67969  0.90222  1.0000
  H   H3021     1.0  0.00442  0.69840  0.98547  1.0000
  H   H3022     1.0  0.93138  0.65992  0.95928  1.0000
  H   H3023     1.0  0.92495  0.69470  0.95153  1.0000
  H   H3024     1.0  0.82648  0.93510  0.88730  1.0000
  C   C1773     1.0  0.97164  0.57732  0.74628  1.0000
  H   H3025     1.0  0.77072  0.83022  0.73264  1.0000
  H   H3026     1.0  0.79183  0.66509  0.75724  1.0000
  C   C1774     1.0  0.97173  0.57399  0.72202  1.0000
  H   H3027     1.0  0.90349  0.53183  0.87887  1.0000
  S   S512      1.0  0.77877  0.78104  0.79005  1.0000
  H   H3028     1.0  0.00875  0.56112  0.73324  1.0000
  H   H3029     1.0  0.78808  0.89981  0.89643  1.0000
  H   H3030     1.0  0.80061  0.70758  0.81952  1.0000
  H   H3031     1.0  0.95742  0.70848  0.95080  1.0000
  C   C1775     1.0  0.78550  0.94284  0.90427  1.0000
  C   C1776     1.0  0.78449  0.92007  0.89070  1.0000
  H   H3032     1.0  0.79112  0.68210  0.83755  1.0000
  H   H3033     1.0  0.00622  0.83623  0.96665  1.0000
  H   H3034     1.0  0.84593  0.92262  0.90164  1.0000
  H   H3035     1.0  0.98102  0.65927  0.85956  1.0000
  H   H3036     1.0  0.97528  0.54814  0.68404  1.0000
  C   C1777     1.0  0.76869  0.66972  0.88807  1.0000
  H   H3037     1.0  0.78959  0.66572  0.91179  1.0000
  H   H3038     1.0  0.77972  0.87653  0.74587  1.0000
  H   H3039     1.0  0.77520  0.75658  0.74940  1.0000
  H   H3040     1.0  0.97642  0.68430  0.81526  1.0000
  C   C1778     1.0  0.84661  0.53532  0.93893  1.0000
  H   H3041     1.0  0.83504  0.54550  0.93033  1.0000
  C   C1779     1.0  0.76996  0.70491  0.81878  1.0000
  H   H3042     1.0  0.97598  0.62739  0.73347  1.0000
  H   H3043     1.0  0.98205  0.64227  0.83490  1.0000
  C   C1780     1.0  0.97260  0.62321  0.71673  1.0000
  H   H3044     1.0  0.96188  0.64815  0.98238  1.0000
  H   H3045     1.0  0.99194  0.66774  0.98173  1.0000
  C   C1781     1.0  0.97486  0.68461  0.83275  1.0000
  H   H3046     1.0  0.98535  0.58346  0.75197  1.0000
  H   H3047     1.0  0.77610  0.86455  0.77282  1.0000
  H   H3048     1.0  0.83317  0.53157  0.89503  1.0000
  C   C1782     1.0  0.84808  0.53518  0.89080  1.0000
  H   H3049     1.0  0.78996  0.93976  0.92034  1.0000
  C   C1783     1.0  0.98631  0.66117  0.84299  1.0000
  H   H3050     1.0  0.83087  0.94794  0.91352  1.0000
  H   H3051     1.0  0.86327  0.54238  0.86058  1.0000
  H   H3052     1.0  0.77405  0.70757  0.96290  1.0000
  C   C1784     1.0  0.97890  0.64843  0.70413  1.0000
  C   C1785     1.0  0.00854  0.61950  0.86575  1.0000
  C   C1786     1.0  0.78360  0.70794  0.90445  1.0000
  H   H3053     1.0  0.00921  0.60611  0.69902  1.0000
  C   C1787     1.0  0.00102  0.64635  0.76540  1.0000
  H   H3054     1.0  0.76902  0.95314  0.84698  1.0000
  H   H3055     1.0  0.93993  0.65766  0.99409  1.0000
  H   H3056     1.0  0.99426  0.64862  0.70229  1.0000
  C   C1788     1.0  0.76161  0.75609  0.75718  1.0000
  C   C1789     1.0  0.95476  0.66374  0.99275  1.0000
  C   C1790     1.0  0.77919  0.85829  0.75626  1.0000
  H   H3057     1.0  0.88778  0.49561  0.90206  1.0000
  H   H3058     1.0  0.76510  0.49288  0.88988  1.0000
  H   H3059     1.0  0.99362  0.69293  0.96083  1.0000
  H   H3060     1.0  0.95247  0.88264  0.98301  1.0000
  H   H3061     1.0  0.00538  0.61003  0.72636  1.0000
  H   H3062     1.0  0.00526  0.92938  0.99616  1.0000
  H   H3063     1.0  0.00963  0.65796  0.80856  1.0000
  H   H3064     1.0  0.99624  0.71766  0.86560  1.0000
  C   C1791     1.0  0.76553  0.65559  0.81543  1.0000
  H   H3065     1.0  0.76991  0.64269  0.99823  1.0000
  H   H3066     1.0  0.83545  0.48089  0.88043  1.0000
  H   H3067     1.0  0.76249  0.69385  0.98585  1.0000
  H   H3068     1.0  0.00736  0.69225  0.81612  1.0000
  C   C1792     1.0  0.76535  0.83728  0.74840  1.0000
  H   H3069     1.0  0.76658  0.81893  0.75868  1.0000
  H   H3070     1.0  0.00712  0.67473  0.87530  1.0000
  N   N128      1.0  0.00730  0.66308  0.84237  1.0000
  H   H3071     1.0  0.01040  0.71986  0.84178  1.0000
  H   H3072     1.0  0.86068  0.47726  0.91908  1.0000
