data_image0
_chemical_formula_structural       S2FeSFeSFeS2H2NFeS2FeSHFeSFeS3H2SH2C6H4C7H3C6H2CHCH2CHNCH4CH6SHCSH2NHCHCH2S2HSC2H2C2HC2FeCHCFeHC3FeCH4CH2CHNHCHC2H2CH2CH3CHCH3CH3FeH2NHCH6CH5CHSHCH3CH2CH2CHCH10C4SCH2C3H5CH2SCHCFeS2HCHFeS2FeS2FeSFeS3CH3C4H4C3H2C4H2C6H4SCH2NH4CH3NC8H19CH2CSHSHC2HC2H2CH5CNH2CHCH2CHC2HCH2CH2CH3NCHCH4CHC2H3CH4C2H4CSH10CHCH4C2SH2S2FeSFeSFeS2H3FeS2FeSCFeSFeS3C2H2C7H4CHC5HC8H4C2H8FeH4SH5SC2H2CH4CH3CH3CHCH4NC8H17SH2NC7SH7CH4CSH5CHCFeC2HNCHFeC3NCH2CNHCH2CHCNH3CH11C2H3CH2SH3C2HCH3CH5CH4FeS2HSHFeS2FeS2FeSFeS3HCH2SC3HCH2C4HCHCHCHC6H5CSHCH14CHCHFeSCH3C3NC6SH12CH3C2H2SCH3CHNH10CHCH3CHC3HSCSHCH2CHCNCH3CH2CHCHCH3NH2C2HC3H2FeC2FeH2SH3CH6CHSCHC2HCH2C3H4SH2FeCHSHSHFeC3HCHCHSH3CHCH2NC2HCH3CHFeHCH3CH5S2CH2CHCHFeSH3SCHSCFeSCSC2H2CH3C3H2CH2S3FeS2C4H2FeHC3HCHCH3NCNC8H20NC8H21SHFe2H2FeCSH3CHC3HC2FeCFeH2CSCFeSCS2HCHFeH4CHCHCHCNH2C2H2CH4SH2C2H2C2H5CH3CHFeH5CH3C2HCSH2CH3CHC3S4CH2CFeSHCHSH2SHFeSHSC2H3CH4CHC2HCS3FeS2C4H13C2NCHFeH4C2HFeH2SC3HNSCHC3FeCH3C2H3C2H3C4H4NH4CH2C2H4CH8CFe2HCFeHFeSH2C2HCH2FeS2H3FeS2FeS2FeSFeS3HNFeS2FeS2Fe2S2HC2HCH2CHCH2C3H4C7H4C2H4C3HCHC6H4NC4HCH9C2H6CHCH2NC6H11CH3NCHCHCSH7CHCHCHC2H3C3NCHC3H2CH13CH6CH2CH3CH4CH2CH3CHCHC2H5CHFeCNCHCH3C2H2SHFeS2H3CH2SHSHSCHS2FeS2FeS2FeSFeS4H2C3H5C2HC2H3CH2CNSC2H3C6H4C3HNCHCH4CH3CFeH3CH3C3HCHCH2FeCHCH3SCNC4H6CH2CH6CH4CH3CH2CHC2H2CH2CH5CH2C2NHCH6CHCH4Fe2SHC2H2FeS2CH2FeS2FeS2FeSFeS3HSFeS2FeHSFe2S2H2C2NC2H5C4H4C6H4C3H2CHCH3C7H4CNCHCH2CH2CH5CHCHNC2HC3HCH10CH5C2HCHC3HC2HNCH5C3H4CSH3SH3CH2CH4NHCHCHCH5CH4CHFeH3CH2C2H2CH4FeCH4CHSH3CH5CHSCNHCH2C3HFeSCH3C3HCH2FeS2H7CH2CHCHSFeS2FeS2FeSFeS3NHC4H4C2H3C2HNHCH2NH2CH3C6H5C3H5C2H4C2HNC6H15C2H3SC2HCH4CH6C4H3C2H2NH4C2H4C2HCH3FeC2H4SHSHC2HCHCH2CHCH2SH2C3HCSCH3CSCH
_chemical_formula_sum              "S192 Fe96 H1152 N48 C672"
_cell_length_a       50.8948
_cell_length_b       51.1062
_cell_length_c       37.4506
_cell_angle_alpha    89.7878
_cell_angle_beta     89.9007
_cell_angle_gamma    119.997

_space_group_name_H-M_alt    "P 1"
_space_group_IT_number       1

loop_
  _space_group_symop_operation_xyz
  'x, y, z'

loop_
  _atom_site_type_symbol
  _atom_site_label
  _atom_site_symmetry_multiplicity
  _atom_site_fract_x
  _atom_site_fract_y
  _atom_site_fract_z
  _atom_site_occupancy
  S   S1        1.0  0.25290  0.15422  0.12758  1.0000
  S   S2        1.0  0.24935  0.16122  0.21413  1.0000
  Fe  Fe1       1.0  0.25452  0.12944  0.17667  1.0000
  S   S3        1.0  0.22351  0.07821  0.17674  1.0000
  Fe  Fe2       1.0  0.25244  0.18835  0.16515  1.0000
  S   S4        1.0  0.22030  0.20671  0.15603  1.0000
  Fe  Fe3       1.0  0.15464  0.31915  0.44473  1.0000
  S   S5        1.0  0.12723  0.26837  0.44646  1.0000
  S   S6        1.0  0.18414  0.34699  0.39794  1.0000
  H   H1        1.0  0.25386  0.15890  0.43246  1.0000
  H   H2        1.0  0.22621  0.16110  0.40599  1.0000
  N   N1        1.0  0.28853  0.08049  0.07768  1.0000
  Fe  Fe4       1.0  0.22764  0.36629  0.14806  1.0000
  S   S7        1.0  0.17688  0.34072  0.14224  1.0000
  S   S8        1.0  0.25872  0.34603  0.14607  1.0000
  Fe  Fe5       1.0  0.22926  0.42642  0.16414  1.0000
  S   S9        1.0  0.17883  0.40454  0.16038  1.0000
  H   H3        1.0  0.16264  0.25877  0.21022  1.0000
  Fe  Fe6       1.0  0.17737  0.36619  0.19150  1.0000
  S   S10       1.0  0.14369  0.34265  0.23658  1.0000
  Fe  Fe7       1.0  0.18339  0.38160  0.11143  1.0000
  S   S11       1.0  0.15711  0.38491  0.06424  1.0000
  S   S12       1.0  0.22764  0.38959  0.19897  1.0000
  S   S13       1.0  0.23436  0.40566  0.11357  1.0000
  H   H4        1.0  0.23542  0.27649  0.04756  1.0000
  H   H5        1.0  0.26077  0.00213  0.08287  1.0000
  S   S14       1.0  0.04343  0.24468  0.47928  1.0000
  H   H6        1.0  0.18155  0.34914  0.03274  1.0000
  H   H7        1.0  0.13959  0.40701  0.34444  1.0000
  C   C1        1.0  0.17224  0.34471  0.35326  1.0000
  C   C2        1.0  0.19403  0.36178  0.32709  1.0000
  C   C3        1.0  0.18558  0.36128  0.29127  1.0000
  C   C4        1.0  0.15520  0.34367  0.28128  1.0000
  C   C5        1.0  0.13341  0.32646  0.30739  1.0000
  C   C6        1.0  0.14188  0.32689  0.34328  1.0000
  H   H8        1.0  0.21756  0.37562  0.33470  1.0000
  H   H9        1.0  0.20257  0.37464  0.27152  1.0000
  H   H10       1.0  0.10984  0.31278  0.29987  1.0000
  H   H11       1.0  0.12492  0.31368  0.36324  1.0000
  C   C7        1.0  0.21291  0.27101  0.24945  1.0000
  C   C8        1.0  0.01626  0.25610  0.48691  1.0000
  C   C9        1.0  0.21348  0.02034  0.17150  1.0000
  C   C10       1.0  0.23496  0.05069  0.17849  1.0000
  C   C11       1.0  0.26484  0.05828  0.18613  1.0000
  C   C12       1.0  0.27309  0.03573  0.18645  1.0000
  C   C13       1.0  0.25059  0.45789  0.27445  1.0000
  H   H12       1.0  0.19030  0.01426  0.16560  1.0000
  H   H13       1.0  0.31169  0.22841  0.02694  1.0000
  H   H14       1.0  0.27430  0.26962  0.38096  1.0000
  C   C14       1.0  0.23125  0.24554  0.15466  1.0000
  C   C15       1.0  0.20917  0.25377  0.14784  1.0000
  C   C16       1.0  0.21712  0.28440  0.14533  1.0000
  C   C17       1.0  0.24734  0.30716  0.14967  1.0000
  C   C18       1.0  0.26939  0.29891  0.15664  1.0000
  C   C19       1.0  0.26142  0.26829  0.15925  1.0000
  H   H15       1.0  0.18579  0.23633  0.14407  1.0000
  H   H16       1.0  0.19995  0.29039  0.13960  1.0000
  C   C20       1.0  0.16304  0.28015  0.21647  1.0000
  H   H17       1.0  0.22617  0.20273  0.03813  1.0000
  C   C21       1.0  0.26716  0.26143  0.03304  1.0000
  H   H18       1.0  0.15671  0.44995  0.30680  1.0000
  H   H19       1.0  0.26897  0.09446  0.11997  1.0000
  C   C22       1.0  0.24995  0.26907  0.06126  1.0000
  H   H20       1.0  0.28872  0.20611  0.41530  1.0000
  N   N2        1.0  0.26071  0.22275  0.39238  1.0000
  C   C23       1.0  0.23167  0.27954  0.49552  1.0000
  H   H21       1.0  0.22270  0.04265  0.27914  1.0000
  H   H22       1.0  0.29625  0.04180  0.19246  1.0000
  H   H23       1.0  0.22379  0.06507  0.08324  1.0000
  H   H24       1.0  0.25447  0.16854  0.35703  1.0000
  C   C24       1.0  0.16924  0.35371  0.01245  1.0000
  H   H25       1.0  0.30333  0.11219  0.03354  1.0000
  H   H26       1.0  0.19138  0.24890  0.24873  1.0000
  H   H27       1.0  0.25905  0.18449  0.31372  1.0000
  H   H28       1.0  0.16282  0.26361  0.28337  1.0000
  H   H29       1.0  0.25771  0.04263  0.11072  1.0000
  H   H30       1.0  0.17391  0.27211  0.34677  1.0000
  S   S15       1.0  0.26021  0.47607  0.17793  1.0000
  H   H31       1.0  0.22149  0.27535  0.22144  1.0000
  C   C25       1.0  0.19422  0.30475  0.23040  1.0000
  S   S16       1.0  0.30954  0.27565  0.49803  1.0000
  H   H32       1.0  0.23804  0.03027  0.31385  1.0000
  H   H33       1.0  0.24032  0.27502  0.29858  1.0000
  N   N3        1.0  0.20700  0.29580  0.26152  1.0000
  H   H34       1.0  0.15977  0.44472  0.21294  1.0000
  C   C26       1.0  0.25079  0.18476  0.34115  1.0000
  H   H35       1.0  0.24617  0.31969  0.29652  1.0000
  C   C27       1.0  0.21647  0.22253  0.42637  1.0000
  H   H36       1.0  0.28155  0.28238  0.01721  1.0000
  H   H37       1.0  0.26238  0.00083  0.29706  1.0000
  S   S17       1.0  0.31535  0.16422  0.41749  1.0000
  S   S18       1.0  0.30543  0.15412  0.17943  1.0000
  H   H38       1.0  0.24095  0.17759  0.04481  1.0000
  S   S19       1.0  0.18209  0.32256  0.49342  1.0000
  C   C28       1.0  0.27890  0.02544  0.07586  1.0000
  C   C29       1.0  0.28006  0.25621  0.39962  1.0000
  H   H39       1.0  0.28693  0.12180  0.08583  1.0000
  H   H40       1.0  0.26717  0.45336  0.28839  1.0000
  C   C30       1.0  0.22175  0.99782  0.17170  1.0000
  C   C31       1.0  0.15540  0.37061  0.02097  1.0000
  H   H41       1.0  0.25826  0.27647  0.25635  1.0000
  C   C32       1.0  0.15528  0.42946  0.23618  1.0000
  C   C33       1.0  0.26037  0.33930  0.24460  1.0000
  Fe  Fe8       1.0  0.15295  0.27235  0.49690  1.0000
  C   C34       1.0  0.23629  0.26646  0.27098  1.0000
  H   H42       1.0  0.15790  0.28822  0.19132  1.0000
  C   C35       1.0  0.30425  0.15877  0.34553  1.0000
  Fe  Fe9       1.0  0.30034  0.18780  0.21312  1.0000
  H   H43       1.0  0.26554  0.28801  0.07863  1.0000
  C   C36       1.0  0.19286  0.27816  0.32761  1.0000
  C   C37       1.0  0.23193  0.02749  0.28526  1.0000
  C   C38       1.0  0.27265  0.09705  0.09053  1.0000
  Fe  Fe10      1.0  0.09486  0.27522  0.48147  1.0000
  C   C39       1.0  0.22810  0.21551  0.39177  1.0000
  H   H44       1.0  0.29323  0.22199  0.35569  1.0000
  H   H45       1.0  0.21429  0.42431  0.30574  1.0000
  H   H46       1.0  0.22830  0.24188  0.27270  1.0000
  H   H47       1.0  0.19199  0.32474  0.23722  1.0000
  C   C40       1.0  0.23538  0.32391  0.27331  1.0000
  H   H48       1.0  0.22612  0.24718  0.42993  1.0000
  H   H49       1.0  0.29847  0.03003  0.09297  1.0000
  C   C41       1.0  0.29660  0.08812  0.03869  1.0000
  H   H50       1.0  0.27842  0.16241  0.05063  1.0000
  N   N4        1.0  0.19790  0.45314  0.28447  1.0000
  H   H51       1.0  0.30140  0.27738  0.09457  1.0000
  C   C42       1.0  0.25164  0.00542  0.17916  1.0000
  H   H52       1.0  0.99544  0.24342  0.40775  1.0000
  C   C43       1.0  0.24161  0.08749  0.07322  1.0000
  C   C44       1.0  0.30698  0.16960  0.31032  1.0000
  H   H53       1.0  0.23412  0.10366  0.08097  1.0000
  H   H54       1.0  0.26263  0.48235  0.26787  1.0000
  C   C45       1.0  0.22291  0.44846  0.29917  1.0000
  H   H55       1.0  0.26826  0.23254  0.33575  1.0000
  H   H56       1.0  0.18544  0.45853  0.33807  1.0000
  C   C46       1.0  0.26938  0.21703  0.35591  1.0000
  H   H57       1.0  0.20186  0.47307  0.16630  1.0000
  H   H58       1.0  0.24664  0.03926  0.06527  1.0000
  H   H59       1.0  0.14453  0.27597  0.23542  1.0000
  C   C47       1.0  0.26674  0.04713  0.08290  1.0000
  H   H60       1.0  0.28414  0.02504  0.04722  1.0000
  C   C48       1.0  0.26218  0.28672  0.49280  1.0000
  H   H61       1.0  0.26503  0.32311  0.23028  1.0000
  H   H62       1.0  0.14064  0.43260  0.25531  1.0000
  H   H63       1.0  0.04660  0.30350  0.47740  1.0000
  C   C49       1.0  0.20796  0.99478  0.27557  1.0000
  H   H64       1.0  0.08889  0.30836  0.02260  1.0000
  H   H65       1.0  0.25270  0.03562  0.26861  1.0000
  H   H66       1.0  0.24428  0.44450  0.24954  1.0000
  Fe  Fe11      1.0  0.30347  0.18061  0.13233  1.0000
  H   H67       1.0  0.22192  0.18545  0.07991  1.0000
  H   H68       1.0  0.27061  0.21731  0.44721  1.0000
  N   N5        1.0  0.28621  0.24878  0.04747  1.0000
  H   H69       1.0  0.22970  0.34111  0.28291  1.0000
  C   C50       1.0  0.26703  0.20571  0.42099  1.0000
  H   H70       1.0  0.29409  0.15432  0.28904  1.0000
  H   H71       1.0  0.22138  0.21278  0.45010  1.0000
  H   H72       1.0  0.23469  0.24912  0.07782  1.0000
  H   H73       1.0  0.19144  0.21249  0.42502  1.0000
  H   H74       1.0  0.22632  0.17699  0.33862  1.0000
  H   H75       1.0  0.17333  0.40513  0.34002  1.0000
  C   C51       1.0  0.18534  0.43379  0.25163  1.0000
  H   H76       1.0  0.20986  0.31198  0.20705  1.0000
  H   H77       1.0  0.14742  0.39559  0.30271  1.0000
  H   H78       1.0  0.04973  0.29672  0.01852  1.0000
  H   H79       1.0  0.14134  0.40581  0.22665  1.0000
  H   H80       1.0  0.24266  0.08767  0.04366  1.0000
  C   C52       1.0  0.23798  0.19566  0.05712  1.0000
  H   H81       1.0  0.17615  0.30164  0.29593  1.0000
  S   S20       1.0  0.30304  0.21666  0.16611  1.0000
  H   H82       1.0  0.24538  0.99458  0.35038  1.0000
  C   C53       1.0  0.00127  0.29439  0.49020  1.0000
  H   H83       1.0  0.27641  0.07464  0.02156  1.0000
  H   H84       1.0  0.21282  0.29806  0.33923  1.0000
  H   H85       1.0  0.28917  0.13506  0.35124  1.0000
  C   C54       1.0  0.18362  0.28487  0.29109  1.0000
  H   H86       1.0  0.27897  0.30851  0.48224  1.0000
  H   H87       1.0  0.20213  0.44309  0.22937  1.0000
  C   C55       1.0  0.29590  0.16653  0.03137  1.0000
  H   H88       1.0  0.23168  0.46088  0.32478  1.0000
  H   H89       1.0  0.29281  0.31636  0.16006  1.0000
  C   C56       1.0  0.24248  0.17236  0.42782  1.0000
  H   H90       1.0  0.26395  0.22808  0.09780  1.0000
  C   C57       1.0  0.31095  0.27328  0.06983  1.0000
  H   H91       1.0  0.21219  0.19147  0.38589  1.0000
  H   H92       1.0  0.27864  0.26232  0.16467  1.0000
  H   H93       1.0  0.28183  0.35627  0.25744  1.0000
  H   H94       1.0  0.22513  0.29569  0.48693  1.0000
  H   H95       1.0  0.25446  0.35178  0.22493  1.0000
  H   H96       1.0  0.19614  0.25833  0.32644  1.0000
  H   H97       1.0  0.28239  0.21089  0.07786  1.0000
  H   H98       1.0  0.28154  0.08149  0.19192  1.0000
  H   H99       1.0  0.22459  0.22814  0.36971  1.0000
  H   H100      1.0  0.18231  0.41087  0.25606  1.0000
  C   C58       1.0  0.15811  0.41114  0.32549  1.0000
  C   C59       1.0  0.26850  0.22147  0.07120  1.0000
  C   C60       1.0  0.17465  0.44466  0.31385  1.0000
  C   C61       1.0  0.02368  0.28635  0.48431  1.0000
  S   S21       1.0  0.12060  0.32587  0.47619  1.0000
  C   C62       1.0  0.31591  0.09012  0.10112  1.0000
  H   H101      1.0  0.22992  0.17030  0.45294  1.0000
  H   H102      1.0  0.24991  0.24603  0.01379  1.0000
  C   C63       1.0  0.30129  0.24176  0.01713  1.0000
  C   C64       1.0  0.31474  0.26939  0.39744  1.0000
  C   C65       1.0  0.21180  0.48627  0.27527  1.0000
  H   H103      1.0  0.00718  0.31783  0.48795  1.0000
  H   H104      1.0  0.20541  0.99523  0.24603  1.0000
  H   H105      1.0  0.17290  0.48641  0.24880  1.0000
  H   H106      1.0  0.30869  0.08298  0.12929  1.0000
  H   H107      1.0  0.21132  0.99624  0.35954  1.0000
  C   C66       1.0  0.27107  0.26584  0.50326  1.0000
  H   H108      1.0  0.27566  0.26170  0.42690  1.0000
  H   H109      1.0  0.18593  0.99051  0.28699  1.0000
  S   S22       1.0  0.29928  0.19299  0.50479  1.0000
  C   C67       1.0  0.98624  0.23406  0.49533  1.0000
  H   H110      1.0  0.22434  0.35867  0.56740  1.0000
  C   C68       1.0  0.22383  0.40208  0.89719  1.0000
  Fe  Fe12      1.0  0.14559  0.32437  0.52511  1.0000
  S   S23       1.0  0.11804  0.27425  0.53217  1.0000
  S   S24       1.0  0.15675  0.35748  0.57067  1.0000
  H   H111      1.0  0.09155  0.25811  0.92610  1.0000
  C   C69       1.0  0.05359  0.30343  0.92163  1.0000
  H   H112      1.0  0.07158  0.27226  0.61598  1.0000
  Fe  Fe13      1.0  0.13013  0.34778  0.86068  1.0000
  S   S25       1.0  0.10673  0.37472  0.86595  1.0000
  S   S26       1.0  0.14850  0.33374  0.90771  1.0000
  Fe  Fe14      1.0  0.12172  0.34279  0.77926  1.0000
  S   S27       1.0  0.09808  0.37003  0.77915  1.0000
  S   S28       1.0  0.12329  0.31532  0.73242  1.0000
  Fe  Fe15      1.0  0.13462  0.40045  0.81802  1.0000
  S   S29       1.0  0.15551  0.45174  0.82004  1.0000
  Fe  Fe16      1.0  0.07266  0.34184  0.82706  1.0000
  S   S30       1.0  0.02198  0.32309  0.83572  1.0000
  S   S31       1.0  0.16013  0.37507  0.81478  1.0000
  S   S32       1.0  0.09419  0.31304  0.82520  1.0000
  C   C70       1.0  0.16482  0.44236  0.92083  1.0000
  H   H113      1.0  0.01171  0.24553  0.98252  1.0000
  H   H114      1.0  0.06110  0.29368  0.54252  1.0000
  H   H115      1.0  0.27629  0.31682  0.60903  1.0000
  C   C71       1.0  0.26871  0.00430  0.82034  1.0000
  C   C72       1.0  0.27819  0.03525  0.82206  1.0000
  C   C73       1.0  0.25627  0.04413  0.82164  1.0000
  C   C74       1.0  0.22524  0.02227  0.81935  1.0000
  H   H116      1.0  0.21120  0.44948  0.80792  1.0000
  H   H117      1.0  0.23768  0.44479  0.87142  1.0000
  H   H118      1.0  0.26322  0.06787  0.82278  1.0000
  H   H119      1.0  0.20851  0.02944  0.81868  1.0000
  C   C75       1.0  0.23124  0.47982  0.92043  1.0000
  C   C76       1.0  0.00281  0.26180  0.83715  1.0000
  C   C77       1.0  0.27103  0.99881  0.72496  1.0000
  H   H120      1.0  0.23439  0.00138  0.70098  1.0000
  H   H121      1.0  0.02587  0.26800  0.83038  1.0000
  C   C78       1.0  0.21733  0.47196  0.81672  1.0000
  C   C79       1.0  0.16689  0.34247  0.97760  1.0000
  C   C80       1.0  0.15092  0.34823  0.95107  1.0000
  C   C81       1.0  0.13708  0.36510  0.95967  1.0000
  H   H122      1.0  0.17755  0.32931  0.97118  1.0000
  H   H123      1.0  0.12444  0.36945  0.93969  1.0000
  C   C82       1.0  0.14732  0.34559  0.61556  1.0000
  C   C83       1.0  0.15184  0.36692  0.64194  1.0000
  C   C84       1.0  0.14421  0.35803  0.67789  1.0000
  C   C85       1.0  0.13233  0.32775  0.68768  1.0000
  C   C86       1.0  0.12776  0.30646  0.66127  1.0000
  C   C87       1.0  0.13511  0.31529  0.62537  1.0000
  H   H124      1.0  0.16123  0.39042  0.63455  1.0000
  H   H125      1.0  0.14785  0.37463  0.69803  1.0000
  H   H126      1.0  0.11853  0.28298  0.66871  1.0000
  H   H127      1.0  0.13146  0.29865  0.60538  1.0000
  S   S33       1.0  0.17101  0.24107  0.51212  1.0000
  C   C88       1.0  0.99132  0.27368  0.61266  1.0000
  H   H128      1.0  0.06613  0.26308  0.98700  1.0000
  H   H129      1.0  0.09335  0.34759  0.53081  1.0000
  N   N6        1.0  0.04853  0.29562  0.59761  1.0000
  H   H130      1.0  0.02709  0.29268  0.66990  1.0000
  H   H131      1.0  0.24041  0.39817  0.88223  1.0000
  H   H132      1.0  0.22274  0.48774  0.94300  1.0000
  H   H133      1.0  0.28769  0.01451  0.92894  1.0000
  C   C89       1.0  0.07622  0.25911  0.90577  1.0000
  H   H134      1.0  0.27990  0.02068  0.73920  1.0000
  H   H135      1.0  0.08774  0.28154  0.89260  1.0000
  H   H136      1.0  0.05629  0.33996  0.54246  1.0000
  N   N7        1.0  0.21124  0.29709  0.61406  1.0000
  C   C90       1.0  0.18118  0.27391  0.63016  1.0000
  C   C91       1.0  0.22829  0.31978  0.64300  1.0000
  C   C92       1.0  0.22804  0.28081  0.60400  1.0000
  C   C93       1.0  0.20520  0.31084  0.58158  1.0000
  C   C94       1.0  0.15976  0.24745  0.60588  1.0000
  C   C95       1.0  0.21389  0.33853  0.65581  1.0000
  C   C96       1.0  0.26059  0.30017  0.58949  1.0000
  C   C97       1.0  0.23148  0.34135  0.56752  1.0000
  H   H137      1.0  0.18472  0.26385  0.65489  1.0000
  H   H138      1.0  0.16782  0.28459  0.63858  1.0000
  H   H139      1.0  0.25189  0.33615  0.63521  1.0000
  H   H140      1.0  0.23089  0.30820  0.66690  1.0000
  H   H141      1.0  0.22928  0.26783  0.62732  1.0000
  H   H142      1.0  0.21571  0.26391  0.58283  1.0000
  H   H143      1.0  0.19781  0.29472  0.55888  1.0000
  H   H144      1.0  0.18559  0.31437  0.58652  1.0000
  H   H145      1.0  0.15404  0.25542  0.58113  1.0000
  H   H146      1.0  0.16893  0.23243  0.59917  1.0000
  H   H147      1.0  0.13803  0.23321  0.62029  1.0000
  H   H148      1.0  0.19339  0.32487  0.67247  1.0000
  H   H149      1.0  0.23031  0.35718  0.67307  1.0000
  H   H150      1.0  0.20817  0.34905  0.63345  1.0000
  H   H151      1.0  0.28552  0.99723  0.82060  1.0000
  H   H152      1.0  0.26114  0.31128  0.56387  1.0000
  H   H153      1.0  0.26980  0.28498  0.58344  1.0000
  H   H154      1.0  0.23673  0.33880  0.53936  1.0000
  H   H155      1.0  0.25302  0.35071  0.58221  1.0000
  C   C98       1.0  0.99490  0.28423  0.84076  1.0000
  H   H156      1.0  0.06308  0.29382  0.67456  1.0000
  H   H157      1.0  0.01292  0.23483  0.57176  1.0000
  C   C99       1.0  0.05184  0.30667  0.66603  1.0000
  S   S34       1.0  0.30104  0.15771  0.92434  1.0000
  H   H158      1.0  0.07249  0.24205  0.88512  1.0000
  S   S35       1.0  0.31665  0.16027  0.59376  1.0000
  H   H159      1.0  0.03458  0.25685  0.63310  1.0000
  C   C100      1.0  0.04543  0.25178  0.92218  1.0000
  C   C101      1.0  0.19457  0.47892  0.82412  1.0000
  H   H160      1.0  0.06012  0.32622  0.68444  1.0000
  C   C102      1.0  0.18618  0.43174  0.90559  1.0000
  C   C103      1.0  0.21399  0.43478  0.95983  1.0000
  H   H161      1.0  0.14303  0.43089  0.90612  1.0000
  H   H162      1.0  0.99201  0.25571  0.62834  1.0000
  C   C104      1.0  0.31098  0.16473  0.96983  1.0000
  H   H163      1.0  0.23011  0.01921  0.91732  1.0000
  H   H164      1.0  0.01075  0.27711  0.56032  1.0000
  H   H165      1.0  0.99026  0.29024  0.63087  1.0000
  H   H166      1.0  0.27327  0.03233  0.95892  1.0000
  H   H167      1.0  0.29472  0.21831  0.96678  1.0000
  C   C105      1.0  0.21872  0.23068  0.51993  1.0000
  N   N8        1.0  0.21749  0.44586  0.92179  1.0000
  H   H168      1.0  0.07855  0.32842  0.99265  1.0000
  H   H169      1.0  0.28354  0.00402  0.69923  1.0000
  C   C106      1.0  0.23591  0.43637  0.89932  1.0000
  H   H170      1.0  0.09210  0.31049  0.57224  1.0000
  C   C107      1.0  0.28139  0.22453  0.98490  1.0000
  H   H171      1.0  0.20562  0.99658  0.97157  1.0000
  H   H172      1.0  0.05087  0.34432  0.91521  1.0000
  C   C108      1.0  0.06989  0.30872  0.56611  1.0000
  H   H173      1.0  0.18767  0.43588  0.87629  1.0000
  C   C109      1.0  0.01773  0.28974  0.58587  1.0000
  C   C110      1.0  0.03622  0.24161  0.58066  1.0000
  H   H174      1.0  0.04532  0.33161  0.96038  1.0000
  C   C111      1.0  0.06081  0.31856  0.62742  1.0000
  H   H175      1.0  0.03532  0.22128  0.59273  1.0000
  H   H176      1.0  0.05436  0.33622  0.62338  1.0000
  C   C112      1.0  0.24321  0.44440  0.98125  1.0000
  H   H177      1.0  0.20226  0.39029  0.88216  1.0000
  H   H178      1.0  0.01849  0.31131  0.57908  1.0000
  C   C113      1.0  0.24126  0.00524  0.91630  1.0000
  H   H179      1.0  0.17396  0.40676  0.90858  1.0000
  H   H180      1.0  0.02965  0.24632  0.89925  1.0000
  H   H181      1.0  0.22095  0.39151  0.92388  1.0000
  N   N9        1.0  0.04574  0.27624  0.94505  1.0000
  C   C114      1.0  0.06950  0.28403  0.97350  1.0000
  H   H182      1.0  0.04589  0.29655  0.89366  1.0000
  C   C115      1.0  0.04825  0.26704  0.60866  1.0000
  H   H183      1.0  0.08745  0.35774  0.57405  1.0000
  H   H184      1.0  0.23617  0.99296  0.98811  1.0000
  H   H185      1.0  0.28512  0.04635  0.91461  1.0000
  H   H186      1.0  0.03680  0.23034  0.93769  1.0000
  C   C116      1.0  0.24921  0.23780  0.51702  1.0000
  H   H187      1.0  0.22403  0.48668  0.89574  1.0000
  C   C117      1.0  0.01499  0.26322  0.96263  1.0000
  C   C118      1.0  0.04054  0.32383  0.93248  1.0000
  H   H188      1.0  0.05155  0.24778  0.55725  1.0000
  H   H189      1.0  0.07865  0.31821  0.91925  1.0000
  H   H190      1.0  0.25968  0.44670  0.90852  1.0000
  C   C119      1.0  0.27356  0.02534  0.93104  1.0000
  H   H191      1.0  0.26162  0.44456  0.96547  1.0000
  H   H192      1.0  0.26509  0.14971  0.98674  1.0000
  H   H193      1.0  0.20084  0.44264  0.97580  1.0000
  H   H194      1.0  0.19982  0.40980  0.96160  1.0000
  C   C120      1.0  0.21577  0.99134  0.81802  1.0000
  C   C121      1.0  0.28841  0.15924  0.99523  1.0000
  H   H195      1.0  0.08609  0.33093  0.62729  1.0000
  H   H196      1.0  0.17386  0.46691  0.91688  1.0000
  H   H197      1.0  0.15932  0.43623  0.94937  1.0000
  H   H198      1.0  0.23823  0.42745  0.00275  1.0000
  C   C122      1.0  0.07673  0.34026  0.55311  1.0000
  S   S36       1.0  0.30909  0.13590  0.82836  1.0000
  H   H199      1.0  0.01576  0.31262  0.92782  1.0000
  H   H200      1.0  0.09264  0.29484  0.96155  1.0000
  H   H201      1.0  0.26086  0.20323  0.99246  1.0000
  H   H202      1.0  0.99103  0.26291  0.91335  1.0000
  H   H203      1.0  0.26555  0.48872  0.81420  1.0000
  H   H204      1.0  0.01293  0.28053  0.97824  1.0000
  H   H205      1.0  0.20192  0.20887  0.53044  1.0000
  H   H206      1.0  0.27509  0.23889  0.96893  1.0000
  H   H207      1.0  0.99686  0.27451  0.74018  1.0000
  H   H208      1.0  0.24349  0.00204  0.88746  1.0000
  C   C123      1.0  0.13942  0.37632  0.99443  1.0000
  H   H209      1.0  0.25577  0.22158  0.52534  1.0000
  C   C124      1.0  0.20974  0.25136  0.50885  1.0000
  H   H210      1.0  0.18242  0.99268  0.90030  1.0000
  H   H211      1.0  0.12857  0.38930  0.00094  1.0000
  H   H212      1.0  0.25138  0.46681  0.99379  1.0000
  H   H213      1.0  0.31354  0.12800  0.65793  1.0000
  C   C125      1.0  0.07116  0.30556  0.00319  1.0000
  C   C126      1.0  0.98760  0.24866  0.93713  1.0000
  S   S37       1.0  0.31746  0.06184  0.82507  1.0000
  H   H214      1.0  0.98723  0.21403  0.84013  1.0000
  H   H215      1.0  0.31792  0.07685  0.99556  1.0000
  S   S38       1.0  0.24886  0.65077  0.14304  1.0000
  S   S39       1.0  0.24493  0.65796  0.22932  1.0000
  Fe  Fe17      1.0  0.25003  0.62588  0.19220  1.0000
  S   S40       1.0  0.21887  0.57466  0.19173  1.0000
  Fe  Fe18      1.0  0.24865  0.68525  0.18023  1.0000
  S   S41       1.0  0.21744  0.70493  0.17172  1.0000
  Fe  Fe19      1.0  0.16088  0.82525  0.46102  1.0000
  S   S42       1.0  0.13580  0.77450  0.45941  1.0000
  S   S43       1.0  0.19129  0.85454  0.41538  1.0000
  H   H216      1.0  0.28555  0.81471  0.50484  1.0000
  H   H217      1.0  0.26329  0.58699  0.13159  1.0000
  H   H218      1.0  0.24234  0.53474  0.06496  1.0000
  Fe  Fe20      1.0  0.22850  0.86627  0.16249  1.0000
  S   S44       1.0  0.17773  0.84064  0.16209  1.0000
  S   S45       1.0  0.25765  0.84427  0.15634  1.0000
  Fe  Fe21      1.0  0.23110  0.92743  0.17243  1.0000
  S   S46       1.0  0.18046  0.90575  0.17305  1.0000
  C   C127      1.0  0.25746  0.95712  0.29083  1.0000
  Fe  Fe22      1.0  0.18133  0.87040  0.20811  1.0000
  S   S47       1.0  0.14897  0.84934  0.25473  1.0000
  Fe  Fe23      1.0  0.18185  0.87838  0.12707  1.0000
  S   S48       1.0  0.14982  0.86955  0.08100  1.0000
  S   S49       1.0  0.23203  0.89380  0.21097  1.0000
  S   S50       1.0  0.23264  0.90224  0.12394  1.0000
  C   C128      1.0  0.16177  0.87290  0.03624  1.0000
  C   C129      1.0  0.19129  0.87986  0.02749  1.0000
  H   H219      1.0  0.28257  0.96828  0.28880  1.0000
  H   H220      1.0  0.20781  0.88521  0.04833  1.0000
  C   C130      1.0  0.27769  0.78335  0.06611  1.0000
  C   C131      1.0  0.17889  0.85316  0.37108  1.0000
  C   C132      1.0  0.14857  0.83461  0.36140  1.0000
  C   C133      1.0  0.13967  0.83398  0.32570  1.0000
  C   C134      1.0  0.16102  0.85158  0.29939  1.0000
  C   C135      1.0  0.19139  0.87005  0.30904  1.0000
  C   C136      1.0  0.20022  0.87094  0.34479  1.0000
  H   H221      1.0  0.13200  0.82086  0.38148  1.0000
  H   H222      1.0  0.11614  0.81962  0.31843  1.0000
  H   H223      1.0  0.20807  0.88348  0.28903  1.0000
  H   H224      1.0  0.22373  0.88528  0.35219  1.0000
  C   C137      1.0  0.20350  0.95902  0.32376  1.0000
  H   H225      1.0  0.20906  0.69530  0.48197  1.0000
  C   C138      1.0  0.20964  0.51785  0.17791  1.0000
  C   C139      1.0  0.23083  0.54761  0.18779  1.0000
  C   C140      1.0  0.26080  0.55500  0.19441  1.0000
  C   C141      1.0  0.26940  0.53284  0.19117  1.0000
  C   C142      1.0  0.24766  0.98037  0.28130  1.0000
  H   H226      1.0  0.18639  0.51191  0.17275  1.0000
  C   C143      1.0  0.27292  0.52088  0.08583  1.0000
  C   C144      1.0  0.19001  0.49865  0.26961  1.0000
  C   C145      1.0  0.22914  0.74392  0.16969  1.0000
  C   C146      1.0  0.20699  0.75272  0.16882  1.0000
  C   C147      1.0  0.21531  0.78341  0.16564  1.0000
  C   C148      1.0  0.24593  0.80559  0.16277  1.0000
  C   C149      1.0  0.26805  0.79681  0.16398  1.0000
  C   C150      1.0  0.25976  0.76619  0.16778  1.0000
  H   H227      1.0  0.18325  0.73562  0.17044  1.0000
  H   H228      1.0  0.19802  0.78978  0.16482  1.0000
  H   H229      1.0  0.27308  0.82948  0.24935  1.0000
  H   H230      1.0  0.27705  0.75984  0.16902  1.0000
  C   C151      1.0  0.30668  0.57573  0.02484  1.0000
  C   C152      1.0  0.02033  0.75615  0.48702  1.0000
  H   H231      1.0  0.15095  0.92121  0.28521  1.0000
  H   H232      1.0  0.98712  0.75868  0.33554  1.0000
  H   H233      1.0  0.24584  0.53577  0.11217  1.0000
  H   H234      1.0  0.25857  0.65795  0.46502  1.0000
  H   H235      1.0  0.99578  0.81652  0.40157  1.0000
  H   H236      1.0  0.23498  0.58967  0.05957  1.0000
  H   H237      1.0  0.25114  0.94845  0.31853  1.0000
  H   H238      1.0  0.18870  0.96005  0.02023  1.0000
  Fe  Fe24      1.0  0.09885  0.77715  0.49007  1.0000
  H   H239      1.0  0.17786  0.74480  0.09478  1.0000
  H   H240      1.0  0.17948  0.95331  0.32699  1.0000
  H   H241      1.0  0.24832  0.93812  0.27172  1.0000
  H   H242      1.0  0.20430  0.74376  0.06455  1.0000
  S   S51       1.0  0.26316  0.97791  0.17971  1.0000
  H   H243      1.0  0.26722  0.57935  0.03177  1.0000
  H   H244      1.0  0.15238  0.91252  0.23978  1.0000
  H   H245      1.0  0.16665  0.74886  0.03051  1.0000
  H   H246      1.0  0.28783  0.86640  0.26756  1.0000
  H   H247      1.0  0.25455  0.98756  0.25312  1.0000
  S   S52       1.0  0.04829  0.74575  0.47939  1.0000
  C   C153      1.0  0.19600  0.75858  0.07522  1.0000
  C   C154      1.0  0.30617  0.65970  0.36363  1.0000
  H   H248      1.0  0.17514  0.68514  0.45760  1.0000
  H   H249      1.0  0.22870  0.83129  0.03159  1.0000
  C   C155      1.0  0.28843  0.58651  0.04709  1.0000
  H   H250      1.0  0.99217  0.80027  0.35900  1.0000
  H   H251      1.0  0.23157  0.80192  0.50644  1.0000
  H   H252      1.0  0.20499  0.97464  0.16596  1.0000
  H   H253      1.0  0.25415  0.49706  0.08417  1.0000
  C   C156      1.0  0.98955  0.73360  0.48753  1.0000
  H   H254      1.0  0.20607  0.95006  0.23350  1.0000
  H   H255      1.0  0.25737  0.79140  0.30886  1.0000
  H   H256      1.0  0.23888  0.69532  0.10255  1.0000
  C   C157      1.0  0.14063  0.86652  0.00887  1.0000
  H   H257      1.0  0.12789  0.74936  0.06330  1.0000
  H   H258      1.0  0.21531  0.77744  0.08914  1.0000
  H   H259      1.0  0.21786  0.96772  0.37915  1.0000
  C   C158      1.0  0.23405  0.58261  0.08779  1.0000
  H   H260      1.0  0.24034  0.72156  0.07021  1.0000
  C   C159      1.0  0.25927  0.54190  0.08690  1.0000
  H   H261      1.0  0.24839  0.69225  0.05757  1.0000
  H   H262      1.0  0.29340  0.71261  0.09324  1.0000
  H   H263      1.0  0.27255  0.65921  0.06950  1.0000
  H   H264      1.0  0.20331  0.72393  0.46065  1.0000
  N   N10       1.0  0.21430  0.80520  0.28208  1.0000
  C   C160      1.0  0.19858  0.81144  0.25178  1.0000
  C   C161      1.0  0.24348  0.83422  0.28921  1.0000
  C   C162      1.0  0.19369  0.79599  0.31449  1.0000
  C   C163      1.0  0.21967  0.77999  0.27059  1.0000
  C   C164      1.0  0.16606  0.78598  0.24316  1.0000
  C   C165      1.0  0.26671  0.84624  0.25828  1.0000
  C   C166      1.0  0.20861  0.80111  0.35160  1.0000
  C   C167      1.0  0.23834  0.77173  0.29581  1.0000
  H   H265      1.0  0.19718  0.83209  0.25726  1.0000
  H   H266      1.0  0.21172  0.81624  0.22650  1.0000
  H   H267      1.0  0.25569  0.83234  0.31265  1.0000
  H   H268      1.0  0.23849  0.85244  0.29648  1.0000
  H   H269      1.0  0.18110  0.80861  0.31529  1.0000
  H   H270      1.0  0.17589  0.77170  0.31308  1.0000
  H   H271      1.0  0.19771  0.75867  0.26715  1.0000
  H   H272      1.0  0.23001  0.78409  0.24342  1.0000
  H   H273      1.0  0.15027  0.78070  0.26602  1.0000
  H   H274      1.0  0.15694  0.79372  0.22117  1.0000
  H   H275      1.0  0.16554  0.76520  0.23374  1.0000
  H   H276      1.0  0.25856  0.85383  0.23524  1.0000
  H   H277      1.0  0.28527  0.52243  0.11089  1.0000
  H   H278      1.0  0.15666  0.94842  0.25026  1.0000
  H   H279      1.0  0.22308  0.79081  0.35444  1.0000
  H   H280      1.0  0.19049  0.79076  0.37230  1.0000
  H   H281      1.0  0.22188  0.82556  0.35806  1.0000
  S   S53       1.0  0.31834  0.66846  0.43525  1.0000
  H   H282      1.0  0.24228  0.82943  0.07570  1.0000
  H   H283      1.0  0.22356  0.75513  0.31637  1.0000
  N   N11       1.0  0.24855  0.71269  0.42303  1.0000
  C   C168      1.0  0.26075  0.74591  0.42997  1.0000
  C   C169      1.0  0.21437  0.69760  0.42326  1.0000
  C   C170      1.0  0.25919  0.71006  0.38630  1.0000
  C   C171      1.0  0.26084  0.70046  0.45127  1.0000
  C   C172      1.0  0.30699  0.66902  0.32802  1.0000
  C   C173      1.0  0.20005  0.70086  0.45804  1.0000
  C   C174      1.0  0.24737  0.67793  0.37193  1.0000
  S   S54       1.0  0.30094  0.65019  0.19570  1.0000
  H   H284      1.0  0.25053  0.75536  0.41131  1.0000
  H   H285      1.0  0.25433  0.74939  0.45716  1.0000
  H   H286      1.0  0.20336  0.67311  0.41789  1.0000
  H   H287      1.0  0.20656  0.70676  0.40120  1.0000
  H   H288      1.0  0.25310  0.72234  0.36629  1.0000
  H   H289      1.0  0.28431  0.72092  0.38539  1.0000
  H   H290      1.0  0.28447  0.70615  0.44453  1.0000
  C   C175      1.0  0.16474  0.80151  0.02040  1.0000
  H   H291      1.0  0.14896  0.76567  0.10253  1.0000
  H   H292      1.0  0.22480  0.59456  0.10352  1.0000
  H   H293      1.0  0.19961  0.92410  0.26871  1.0000
  H   H294      1.0  0.29500  0.63584  0.36999  1.0000
  C   C176      1.0  0.27998  0.65497  0.01366  1.0000
  S   S55       1.0  0.29925  0.71296  0.18180  1.0000
  H   H295      1.0  0.25638  0.67966  0.34443  1.0000
  H   H296      1.0  0.22235  0.66477  0.36977  1.0000
  H   H297      1.0  0.25597  0.66552  0.38788  1.0000
  H   H298      1.0  0.20249  0.93710  0.32953  1.0000
  H   H299      1.0  0.20341  0.52250  0.26030  1.0000
  C   C177      1.0  0.29555  0.76640  0.42760  1.0000
  H   H300      1.0  0.02487  0.74821  0.36463  1.0000
  C   C178      1.0  0.24246  0.66611  0.45920  1.0000
  Fe  Fe25      1.0  0.29595  0.68415  0.22912  1.0000
  C   C179      1.0  0.28914  0.66275  0.04925  1.0000
  C   C180      1.0  0.21832  0.49576  0.17431  1.0000
  H   H301      1.0  0.29181  0.81384  0.16205  1.0000
  N   N12       1.0  0.17161  0.78974  0.05401  1.0000
  C   C181      1.0  0.14326  0.77148  0.07607  1.0000
  H   H302      1.0  0.27109  0.73803  0.01960  1.0000
  Fe  Fe26      1.0  0.29938  0.67661  0.14837  1.0000
  C   C182      1.0  0.19400  0.81638  0.07579  1.0000
  C   C183      1.0  0.12436  0.78679  0.08419  1.0000
  C   C184      1.0  0.18425  0.76964  0.04398  1.0000
  N   N13       1.0  0.30545  0.75269  0.06117  1.0000
  C   C185      1.0  0.22663  0.83448  0.06043  1.0000
  H   H303      1.0  0.30256  0.57493  0.13466  1.0000
  H   H304      1.0  0.29258  0.53871  0.19667  1.0000
  C   C186      1.0  0.25141  0.70872  0.07869  1.0000
  N   N14       1.0  0.28110  0.57560  0.08524  1.0000
  H   H305      1.0  0.29663  0.65243  0.30708  1.0000
  C   C187      1.0  0.26580  0.59128  0.10231  1.0000
  H   H306      1.0  0.18577  0.83268  0.07965  1.0000
  H   H307      1.0  0.19588  0.80890  0.10316  1.0000
  C   C188      1.0  0.16237  0.93121  0.25943  1.0000
  H   H308      1.0  0.13766  0.80831  0.09870  1.0000
  C   C189      1.0  0.00797  0.75047  0.38116  1.0000
  N   N15       1.0  0.21441  0.96993  0.28623  1.0000
  H   H309      1.0  0.27990  0.61623  0.09940  1.0000
  H   H310      1.0  0.24929  0.76144  0.27987  1.0000
  H   H311      1.0  0.11776  0.86117  0.01551  1.0000
  C   C190      1.0  0.19697  0.94371  0.26124  1.0000
  H   H312      1.0  0.26259  0.71172  0.47730  1.0000
  H   H313      1.0  0.23542  0.85899  0.06443  1.0000
  H   H314      1.0  0.30770  0.75780  0.44408  1.0000
  H   H315      1.0  0.21747  0.55820  0.09097  1.0000
  H   H316      1.0  0.27728  0.57773  0.20236  1.0000
  H   H317      1.0  0.00265  0.73519  0.40449  1.0000
  H   H318      1.0  0.26103  0.76865  0.08656  1.0000
  H   H319      1.0  0.01929  0.77423  0.39048  1.0000
  H   H320      1.0  0.11451  0.79079  0.05980  1.0000
  H   H321      1.0  0.31534  0.78970  0.09695  1.0000
  H   H322      1.0  0.22784  0.65186  0.43739  1.0000
  C   C191      1.0  0.24827  0.50315  0.18107  1.0000
  C   C192      1.0  0.02793  0.78632  0.49104  1.0000
  H   H323      1.0  0.10500  0.77171  0.10179  1.0000
  H   H324      1.0  0.28638  0.73924  0.11463  1.0000
  H   H325      1.0  0.22883  0.66162  0.48401  1.0000
  C   C193      1.0  0.00493  0.79386  0.49464  1.0000
  H   H326      1.0  0.30383  0.76975  0.39962  1.0000
  H   H327      1.0  0.26776  0.77739  0.03902  1.0000
  S   S56       1.0  0.12244  0.82779  0.48754  1.0000
  H   H328      1.0  0.17888  0.49917  0.29488  1.0000
  H   H329      1.0  0.30186  0.78909  0.43820  1.0000
  H   H330      1.0  0.15689  0.81766  0.02685  1.0000
  C   C194      1.0  0.28531  0.72887  0.08820  1.0000
  C   C195      1.0  0.22060  0.98101  0.35445  1.0000
  H   H331      1.0  0.05152  0.80393  0.49061  1.0000
  C   C196      1.0  0.30737  0.78250  0.06916  1.0000
  H   H332      1.0  0.22570  0.49179  0.25054  1.0000
  H   H333      1.0  0.20292  0.78084  0.02405  1.0000
  H   H334      1.0  0.01108  0.81735  0.49698  1.0000
  C   C197      1.0  0.30910  0.58350  0.10680  1.0000
  H   H335      1.0  0.28798  0.52515  0.06263  1.0000
  H   H336      1.0  0.30012  0.61158  0.04522  1.0000
  H   H337      1.0  0.28251  0.80670  0.07161  1.0000
  H   H338      1.0  0.29268  0.71957  0.01926  1.0000
  H   H339      1.0  0.22779  0.50050  0.29660  1.0000
  C   C198      1.0  0.29435  0.74193  0.02376  1.0000
  H   H340      1.0  0.29142  0.55353  0.01235  1.0000
  H   H341      1.0  0.11881  0.76328  0.00876  1.0000
  H   H342      1.0  0.25791  0.55583  0.77164  1.0000
  H   H343      1.0  0.27920  0.62072  0.74540  1.0000
  Fe  Fe27      1.0  0.14366  0.82589  0.53965  1.0000
  S   S57       1.0  0.11815  0.77531  0.54340  1.0000
  S   S58       1.0  0.14240  0.85517  0.58452  1.0000
  H   H344      1.0  0.20030  0.91410  0.64051  1.0000
  S   S59       1.0  0.17610  0.74619  0.52669  1.0000
  H   H345      1.0  0.27687  0.49421  0.94289  1.0000
  Fe  Fe28      1.0  0.15921  0.86859  0.87342  1.0000
  S   S60       1.0  0.13089  0.89097  0.87304  1.0000
  S   S61       1.0  0.18812  0.86986  0.92010  1.0000
  Fe  Fe29      1.0  0.15112  0.85631  0.79301  1.0000
  S   S62       1.0  0.12312  0.87857  0.78693  1.0000
  S   S63       1.0  0.16286  0.83509  0.74735  1.0000
  Fe  Fe30      1.0  0.15732  0.91428  0.82338  1.0000
  S   S64       1.0  0.17653  0.96465  0.81507  1.0000
  Fe  Fe31      1.0  0.09940  0.85280  0.83691  1.0000
  S   S65       1.0  0.04789  0.83162  0.83716  1.0000
  S   S66       1.0  0.18710  0.89384  0.82549  1.0000
  S   S67       1.0  0.12584  0.82846  0.84122  1.0000
  H   H346      1.0  0.14813  0.94942  0.70416  1.0000
  C   C199      1.0  0.30119  0.65939  0.98688  1.0000
  H   H347      1.0  0.99972  0.74086  0.59574  1.0000
  H   H348      1.0  0.19353  0.90788  0.72618  1.0000
  S   S68       1.0  0.30930  0.69908  0.52792  1.0000
  C   C200      1.0  0.25650  0.52369  0.83129  1.0000
  C   C201      1.0  0.23374  0.53061  0.83888  1.0000
  C   C202      1.0  0.20296  0.50836  0.83511  1.0000
  H   H349      1.0  0.05827  0.74486  0.66552  1.0000
  C   C203      1.0  0.26938  0.60545  0.66070  1.0000
  H   H350      1.0  0.23983  0.55309  0.84761  1.0000
  H   H351      1.0  0.18551  0.51395  0.84093  1.0000
  C   C204      1.0  0.02019  0.79297  0.84251  1.0000
  C   C205      1.0  0.02760  0.77164  0.85494  1.0000
  C   C206      1.0  0.21254  0.93046  0.73376  1.0000
  C   C207      1.0  0.23667  0.98527  0.71913  1.0000
  H   H352      1.0  0.05092  0.77858  0.86121  1.0000
  C   C208      1.0  0.26830  0.79261  0.51409  1.0000
  H   H353      1.0  0.16200  0.96967  0.93873  1.0000
  C   C209      1.0  0.17779  0.87207  0.96438  1.0000
  H   H354      1.0  0.27592  0.49700  0.89472  1.0000
  C   C210      1.0  0.22365  0.73593  0.53810  1.0000
  H   H355      1.0  0.13208  0.86096  0.95209  1.0000
  C   C211      1.0  0.14736  0.84848  0.62956  1.0000
  C   C212      1.0  0.14046  0.86322  0.65643  1.0000
  C   C213      1.0  0.14529  0.85949  0.69258  1.0000
  C   C214      1.0  0.15706  0.84092  0.70217  1.0000
  C   C215      1.0  0.16367  0.82593  0.67533  1.0000
  C   C216      1.0  0.15875  0.82960  0.63914  1.0000
  H   H356      1.0  0.13151  0.87774  0.64910  1.0000
  H   H357      1.0  0.13980  0.87091  0.71294  1.0000
  H   H358      1.0  0.17273  0.81146  0.68250  1.0000
  H   H359      1.0  0.16421  0.81819  0.61860  1.0000
  H   H360      1.0  0.18104  0.52222  0.73218  1.0000
  C   C217      1.0  0.23596  0.59592  0.77169  1.0000
  S   S69       1.0  0.31308  0.68399  0.76974  1.0000
  H   H361      1.0  0.02193  0.74610  0.70536  1.0000
  C   C218      1.0  0.08208  0.76104  0.67279  1.0000
  H   H362      1.0  0.01675  0.73258  0.78621  1.0000
  H   H363      1.0  0.25938  0.95572  0.68027  1.0000
  H   H364      1.0  0.08490  0.74405  0.72397  1.0000
  H   H365      1.0  0.24714  0.61342  0.71922  1.0000
  H   H366      1.0  0.03353  0.72367  0.72890  1.0000
  H   H367      1.0  0.09638  0.75191  0.66246  1.0000
  H   H368      1.0  0.29363  0.58352  0.75630  1.0000
  H   H369      1.0  0.09012  0.78299  0.65883  1.0000
  H   H370      1.0  0.28303  0.52963  0.75494  1.0000
  H   H371      1.0  0.01926  0.75326  0.63705  1.0000
  H   H372      1.0  0.17512  0.92548  0.68045  1.0000
  H   H373      1.0  0.23074  0.95876  0.81784  1.0000
  H   H374      1.0  0.25649  0.93068  0.72671  1.0000
  H   H375      1.0  0.19314  0.96404  0.66740  1.0000
  C   C219      1.0  0.20504  0.52885  0.73757  1.0000
  H   H376      1.0  0.23677  0.91788  0.63608  1.0000
  C   C220      1.0  0.22083  0.91870  0.65576  1.0000
  H   H377      1.0  0.23959  0.61764  0.78273  1.0000
  Fe  Fe32      1.0  0.15756  0.77754  0.51275  1.0000
  S   S70       1.0  0.31535  0.78109  0.52099  1.0000
  C   C221      1.0  0.23872  0.92580  0.74676  1.0000
  H   H378      1.0  0.25632  0.64556  0.00672  1.0000
  H   H379      1.0  0.20370  0.93612  0.75797  1.0000
  H   H380      1.0  0.14917  0.76307  0.98338  1.0000
  C   C222      1.0  0.23605  0.95020  0.67327  1.0000
  C   C223      1.0  0.25419  0.74292  0.53665  1.0000
  C   C224      1.0  0.17162  0.96971  0.91216  1.0000
  N   N16       1.0  0.06458  0.77212  0.73322  1.0000
  C   C225      1.0  0.08636  0.76518  0.71357  1.0000
  C   C226      1.0  0.07560  0.77979  0.77116  1.0000
  C   C227      1.0  0.06632  0.79964  0.71585  1.0000
  C   C228      1.0  0.03292  0.74513  0.73061  1.0000
  C   C229      1.0  0.08065  0.75606  0.79080  1.0000
  C   C230      1.0  0.04675  0.81168  0.73238  1.0000
  S   S71       1.0  0.29557  0.55107  0.83452  1.0000
  H   H381      1.0  0.11023  0.78318  0.71819  1.0000
  H   H382      1.0  0.06005  0.78390  0.78788  1.0000
  H   H383      1.0  0.09758  0.80150  0.77185  1.0000
  H   H384      1.0  0.09016  0.81860  0.71591  1.0000
  H   H385      1.0  0.05946  0.79542  0.68736  1.0000
  H   H386      1.0  0.08164  0.76007  0.82003  1.0000
  H   H387      1.0  0.06226  0.73263  0.78576  1.0000
  H   H388      1.0  0.10275  0.75831  0.78286  1.0000
  H   H389      1.0  0.24942  0.93928  0.77107  1.0000
  H   H390      1.0  0.26032  0.72643  0.54514  1.0000
  H   H391      1.0  0.98755  0.72197  0.75411  1.0000
  H   H392      1.0  0.20594  0.50765  0.73507  1.0000
  C   C231      1.0  0.00465  0.74132  0.85990  1.0000
  H   H393      1.0  0.30767  0.71163  0.70534  1.0000
  H   H394      1.0  0.02231  0.79633  0.72709  1.0000
  H   H395      1.0  0.22179  0.88369  0.98508  1.0000
  C   C232      1.0  0.31806  0.69831  0.69841  1.0000
  C   C233      1.0  0.19351  0.95704  0.91359  1.0000
  H   H396      1.0  0.18031  0.97710  0.72789  1.0000
  H   H397      1.0  0.20639  0.71393  0.54760  1.0000
  S   S72       1.0  0.28708  0.62416  0.84815  1.0000
  C   C234      1.0  0.18940  0.94882  0.69063  1.0000
  H   H398      1.0  0.18057  0.93335  0.92368  1.0000
  H   H399      1.0  0.22344  0.93477  0.94860  1.0000
  H   H400      1.0  0.23165  0.93819  0.88320  1.0000
  C   C235      1.0  0.14866  0.86633  0.97297  1.0000
  H   H401      1.0  0.21151  0.58231  0.76513  1.0000
  N   N17       1.0  0.21929  0.95351  0.70463  1.0000
  H   H402      1.0  0.01053  0.72500  0.86980  1.0000
  H   H403      1.0  0.26237  0.93952  0.90714  1.0000
  H   H404      1.0  0.13688  0.78927  0.97285  1.0000
  H   H405      1.0  0.21508  0.90027  0.67536  1.0000
  H   H406      1.0  0.17083  0.93905  0.98106  1.0000
  H   H407      1.0  0.22938  0.90156  0.75379  1.0000
  H   H408      1.0  0.19899  0.95501  0.88534  1.0000
  H   H409      1.0  0.01596  0.77987  0.60922  1.0000
  H   H410      1.0  0.20939  0.53650  0.76553  1.0000
  H   H411      1.0  0.24195  0.58496  0.79318  1.0000
  C   C236      1.0  0.21516  0.75699  0.52697  1.0000
  H   H412      1.0  0.23937  0.96695  0.65201  1.0000
  C   C237      1.0  0.01064  0.74023  0.76146  1.0000
  H   H413      1.0  0.24529  0.59248  0.65244  1.0000
  H   H414      1.0  0.05280  0.83358  0.71936  1.0000
  H   H415      1.0  0.15219  0.95511  0.89463  1.0000
  C   C238      1.0  0.31377  0.76283  0.99294  1.0000
  H   H416      1.0  0.21296  0.56312  0.69800  1.0000
  C   C239      1.0  0.23858  0.95764  0.93726  1.0000
  C   C240      1.0  0.98970  0.78361  0.83490  1.0000
  C   C241      1.0  0.22566  0.55249  0.70924  1.0000
  H   H417      1.0  0.26693  0.97362  0.88818  1.0000
  S   S73       1.0  0.18454  0.82823  0.51311  1.0000
  C   C242      1.0  0.27741  0.58843  0.68886  1.0000
  S   S74       1.0  0.28852  0.65040  0.94243  1.0000
  H   H418      1.0  0.22774  0.53912  0.68708  1.0000
  C   C243      1.0  0.25587  0.60278  0.73813  1.0000
  H   H419      1.0  0.05085  0.81646  0.76126  1.0000
  H   H420      1.0  0.00006  0.80295  0.91665  1.0000
  C   C244      1.0  0.25044  0.95230  0.90165  1.0000
  H   H421      1.0  0.27271  0.52348  0.92223  1.0000
  C   C245      1.0  0.27133  0.56476  0.74693  1.0000
  N   N18       1.0  0.25684  0.57652  0.72120  1.0000
  C   C246      1.0  0.27695  0.53976  0.73239  1.0000
  H   H422      1.0  0.18550  0.81483  0.00395  1.0000
  H   H423      1.0  0.31685  0.78581  0.99495  1.0000
  H   H424      1.0  0.22700  0.98681  0.74515  1.0000
  C   C247      1.0  0.21506  0.98107  0.97207  1.0000
  H   H425      1.0  0.27493  0.62821  0.67013  1.0000
  H   H426      1.0  0.28355  0.60935  0.63644  1.0000
  C   C248      1.0  0.27670  0.77135  0.52458  1.0000
  H   H427      1.0  0.98569  0.76663  0.96402  1.0000
  C   C249      1.0  0.23766  0.98243  0.81867  1.0000
  H   H428      1.0  0.16227  0.93750  0.74039  1.0000
  C   C250      1.0  0.23771  0.78544  0.51502  1.0000
  H   H429      1.0  0.25800  0.96848  0.95608  1.0000
  H   H430      1.0  0.27652  0.98441  0.74173  1.0000
  H   H431      1.0  0.27778  0.56971  0.67418  1.0000
  N   N19       1.0  0.22213  0.97526  0.93481  1.0000
  H   H432      1.0  0.20320  0.93841  0.00000  1.0000
  H   H433      1.0  0.00889  0.76042  0.76767  1.0000
  C   C251      1.0  0.19914  0.87905  0.99167  1.0000
  C   C252      1.0  0.14096  0.77749  0.99536  1.0000
  H   H434      1.0  0.30130  0.60381  0.69709  1.0000
  C   C253      1.0  0.26618  0.49927  0.92031  1.0000
  C   C254      1.0  0.00378  0.75610  0.61869  1.0000
  C   C255      1.0  0.16928  0.95363  0.71770  1.0000
  H   H435      1.0  0.25665  0.52133  0.71933  1.0000
  H   H436      1.0  0.29646  0.54917  0.71358  1.0000
  Fe  Fe33      1.0  0.31480  0.60136  0.84535  1.0000
  C   C256      1.0  0.19316  0.95280  0.99406  1.0000
  C   C257      1.0  0.24811  0.49425  0.82030  1.0000
  Fe  Fe34      1.0  0.31614  0.64901  0.89539  1.0000
  H   H437      1.0  0.30191  0.75316  0.96731  1.0000
  H   H438      1.0  0.34440  0.13444  0.07448  1.0000
  S   S75       1.0  0.36129  0.24596  0.46404  1.0000
  H   H439      1.0  0.51062  0.23586  0.42032  1.0000
  H   H440      1.0  0.49953  0.25472  0.38942  1.0000
  H   H441      1.0  0.56774  0.28533  0.43376  1.0000
  C   C258      1.0  0.33651  0.26741  0.08218  1.0000
  H   H442      1.0  0.54211  0.31317  0.34669  1.0000
  H   H443      1.0  0.50559  0.19885  0.37418  1.0000
  H   H444      1.0  0.50890  0.27699  0.33610  1.0000
  H   H445      1.0  0.61797  0.24160  0.12693  1.0000
  H   H446      1.0  0.37197  0.19469  0.02533  1.0000
  H   H447      1.0  0.63188  0.34104  0.39413  1.0000
  C   C259      1.0  0.51314  0.24332  0.39192  1.0000
  H   H448      1.0  0.57953  0.31074  0.39711  1.0000
  S   S76       1.0  0.33697  0.19219  0.08650  1.0000
  C   C260      1.0  0.63822  0.34453  0.33673  1.0000
  H   H449      1.0  0.32892  0.07889  0.09383  1.0000
  C   C261      1.0  0.55099  0.27531  0.34517  1.0000
  C   C262      1.0  0.51383  0.24677  0.49926  1.0000
  H   H450      1.0  0.32725  0.06803  0.03793  1.0000
  C   C263      1.0  0.49682  0.21449  0.36908  1.0000
  H   H451      1.0  0.53827  0.29671  0.30396  1.0000
  H   H452      1.0  0.55535  0.22859  0.36911  1.0000
  C   C264      1.0  0.48367  0.22626  0.48963  1.0000
  C   C265      1.0  0.34315  0.21983  0.33064  1.0000
  C   C266      1.0  0.64069  0.35866  0.01667  1.0000
  H   H453      1.0  0.49777  0.21962  0.34019  1.0000
  H   H454      1.0  0.52047  0.28533  0.44110  1.0000
  H   H455      1.0  0.35836  0.24352  0.32494  1.0000
  H   H456      1.0  0.35298  0.22439  0.38713  1.0000
  S   S77       1.0  0.62927  0.26581  0.47126  1.0000
  H   H457      1.0  0.52667  0.30758  0.40147  1.0000
  H   H458      1.0  0.47244  0.20203  0.37680  1.0000
  Fe  Fe35      1.0  0.33373  0.19531  0.46532  1.0000
  C   C267      1.0  0.56281  0.24720  0.38877  1.0000
  H   H459      1.0  0.60812  0.28452  0.40471  1.0000
  S   S78       1.0  0.65141  0.36432  0.08849  1.0000
  H   H460      1.0  0.61698  0.34378  0.33139  1.0000
  S   S79       1.0  0.32987  0.21511  0.25936  1.0000
  H   H461      1.0  0.64800  0.22344  0.04552  1.0000
  Fe  Fe36      1.0  0.32800  0.24349  0.50565  1.0000
  C   C268      1.0  0.64642  0.34274  0.37216  1.0000
  C   C269      1.0  0.34859  0.18466  0.01700  1.0000
  C   C270      1.0  0.59775  0.26573  0.38533  1.0000
  H   H462      1.0  0.32627  0.29276  0.40818  1.0000
  C   C271      1.0  0.47273  0.26810  0.02503  1.0000
  H   H463      1.0  0.61824  0.35435  0.02377  1.0000
  C   C272      1.0  0.53806  0.30214  0.42288  1.0000
  H   H464      1.0  0.60531  0.27457  0.35790  1.0000
  S   S80       1.0  0.61647  0.32029  0.49603  1.0000
  H   H465      1.0  0.34420  0.10673  0.02247  1.0000
  H   H466      1.0  0.35079  0.26779  0.05954  1.0000
  H   H467      1.0  0.55152  0.32296  0.43882  1.0000
  C   C273      1.0  0.53380  0.29134  0.33289  1.0000
  H   H468      1.0  0.54492  0.25618  0.32662  1.0000
  C   C274      1.0  0.55934  0.29092  0.40904  1.0000
  H   H469      1.0  0.55754  0.23617  0.41560  1.0000
  H   H470      1.0  0.57535  0.29155  0.33983  1.0000
  N   N20       1.0  0.54621  0.26452  0.38343  1.0000
  C   C275      1.0  0.33881  0.12431  0.10157  1.0000
  C   C276      1.0  0.46029  0.23292  0.49589  1.0000
  H   H471      1.0  0.60717  0.25072  0.39127  1.0000
  C   C277      1.0  0.32051  0.17850  0.37348  1.0000
  H   H472      1.0  0.43723  0.21705  0.48811  1.0000
  H   H473      1.0  0.62812  0.24898  0.06535  1.0000
  H   H474      1.0  0.42881  0.23064  0.01012  1.0000
  C   C278      1.0  0.64231  0.25625  0.11988  1.0000
  H   H475      1.0  0.63222  0.25381  0.00769  1.0000
  Fe  Fe37      1.0  0.59288  0.26971  0.50149  1.0000
  H   H476      1.0  0.36025  0.12835  0.11420  1.0000
  C   C279      1.0  0.34009  0.20907  0.36591  1.0000
  H   H477      1.0  0.32235  0.25639  0.41384  1.0000
  H   H478      1.0  0.33018  0.13640  0.11802  1.0000
  H   H479      1.0  0.46419  0.25991  0.05250  1.0000
  C   C280      1.0  0.64482  0.26821  0.08141  1.0000
  H   H480      1.0  0.32216  0.29526  0.05512  1.0000
  H   H481      1.0  0.63581  0.28415  0.08175  1.0000
  H   H482      1.0  0.48289  0.29306  0.02440  1.0000
  H   H483      1.0  0.47836  0.20518  0.47701  1.0000
  H   H484      1.0  0.32769  0.24582  0.09691  1.0000
  S   S81       1.0  0.64623  0.34939  0.26402  1.0000
  S   S82       1.0  0.54278  0.23826  0.48887  1.0000
  C   C281      1.0  0.32295  0.08447  0.02374  1.0000
  H   H485      1.0  0.32267  0.27094  0.36948  1.0000
  H   H486      1.0  0.35168  0.28562  0.10076  1.0000
  C   C282      1.0  0.32614  0.17996  0.04220  1.0000
  H   H487      1.0  0.49064  0.26225  0.02080  1.0000
  C   C283      1.0  0.32637  0.20024  0.30283  1.0000
  H   H488      1.0  0.65165  0.27489  0.13944  1.0000
  Fe  Fe38      1.0  0.35017  0.17338  0.80076  1.0000
  S   S83       1.0  0.35695  0.24377  0.55133  1.0000
  H   H489      1.0  0.47174  0.19256  0.97176  1.0000
  H   H490      1.0  0.47599  0.23172  0.92879  1.0000
  H   H491      1.0  0.42851  0.22719  0.91279  1.0000
  S   S84       1.0  0.37600  0.14837  0.80060  1.0000
  C   C284      1.0  0.50573  0.29810  0.94646  1.0000
  H   H492      1.0  0.32785  0.14421  0.72090  1.0000
  S   S85       1.0  0.35756  0.13313  0.88512  1.0000
  C   C285      1.0  0.49698  0.28051  0.52194  1.0000
  Fe  Fe39      1.0  0.39459  0.17143  0.85308  1.0000
  S   S86       1.0  0.44471  0.19125  0.86680  1.0000
  C   C286      1.0  0.47102  0.23337  0.95727  1.0000
  S   S87       1.0  0.37062  0.19819  0.85216  1.0000
  C   C287      1.0  0.47325  0.22897  0.85715  1.0000
  C   C288      1.0  0.46602  0.25097  0.84695  1.0000
  H   H493      1.0  0.50966  0.22082  0.87095  1.0000
  H   H494      1.0  0.44259  0.24466  0.84248  1.0000
  C   C289      1.0  0.34462  0.21163  0.68370  1.0000
  H   H495      1.0  0.46259  0.29592  0.95227  1.0000
  H   H496      1.0  0.40994  0.20933  0.95319  1.0000
  H   H497      1.0  0.35819  0.18039  0.96162  1.0000
  C   C290      1.0  0.32546  0.17237  0.63853  1.0000
  C   C291      1.0  0.34157  0.19071  0.71018  1.0000
  C   C292      1.0  0.44605  0.25284  0.99868  1.0000
  H   H498      1.0  0.63066  0.35128  0.96032  1.0000
  H   H499      1.0  0.41498  0.26822  0.92378  1.0000
  C   C293      1.0  0.64767  0.35692  0.98074  1.0000
  H   H500      1.0  0.50230  0.30168  0.53438  1.0000
  H   H501      1.0  0.38326  0.23091  0.92176  1.0000
  S   S88       1.0  0.61286  0.26959  0.55497  1.0000
  S   S89       1.0  0.63199  0.38473  0.88289  1.0000
  S   S90       1.0  0.62363  0.37519  0.79656  1.0000
  Fe  Fe40      1.0  0.59895  0.34861  0.84567  1.0000
  S   S91       1.0  0.54757  0.32895  0.84653  1.0000
  S   S92       1.0  0.62283  0.32178  0.84780  1.0000
  C   C294      1.0  0.51964  0.29017  0.84985  1.0000
  C   C295      1.0  0.52696  0.26807  0.85921  1.0000
  C   C296      1.0  0.50386  0.23766  0.86290  1.0000
  C   C297      1.0  0.48910  0.28141  0.84354  1.0000
  H   H502      1.0  0.55035  0.27447  0.86417  1.0000
  H   H503      1.0  0.48320  0.29833  0.83624  1.0000
  Fe  Fe41      1.0  0.65169  0.27067  0.52435  1.0000
  H   H504      1.0  0.51618  0.28705  0.93112  1.0000
  C   C298      1.0  0.40361  0.24607  0.93775  1.0000
  C   C299      1.0  0.33035  0.16052  0.70073  1.0000
  C   C300      1.0  0.47087  0.28072  0.94267  1.0000
  H   H505      1.0  0.49368  0.24578  0.96981  1.0000
  C   C301      1.0  0.33664  0.20255  0.64802  1.0000
  H   H506      1.0  0.39499  0.24815  0.96417  1.0000
  C   C302      1.0  0.42411  0.23183  0.94056  1.0000
  H   H507      1.0  0.43569  0.18515  0.95657  1.0000
  H   H508      1.0  0.63732  0.29894  0.62734  1.0000
  H   H509      1.0  0.37162  0.14533  0.60217  1.0000
  N   N21       1.0  0.45358  0.25000  0.96045  1.0000
  C   C303      1.0  0.46688  0.26020  0.51195  1.0000
  N   N22       1.0  0.54000  0.29025  0.73509  1.0000
  C   C304      1.0  0.51231  0.29140  0.74751  1.0000
  C   C305      1.0  0.56701  0.32129  0.74074  1.0000
  C   C306      1.0  0.54274  0.26728  0.75796  1.0000
  C   C307      1.0  0.53548  0.28102  0.69636  1.0000
  C   C308      1.0  0.48261  0.26069  0.75060  1.0000
  C   C309      1.0  0.56776  0.34688  0.71800  1.0000
  C   C310      1.0  0.57432  0.27021  0.76081  1.0000
  C   C311      1.0  0.56280  0.28286  0.67622  1.0000
  H   H510      1.0  0.51631  0.30230  0.77421  1.0000
  H   H511      1.0  0.50734  0.30565  0.72935  1.0000
  H   H512      1.0  0.58884  0.32208  0.73563  1.0000
  H   H513      1.0  0.56816  0.32767  0.76934  1.0000
  H   H514      1.0  0.53615  0.26837  0.78605  1.0000
  H   H515      1.0  0.52671  0.24388  0.74886  1.0000
  H   H516      1.0  0.51693  0.25720  0.69362  1.0000
  H   H517      1.0  0.52721  0.29396  0.68055  1.0000
  H   H518      1.0  0.46377  0.26471  0.75809  1.0000
  H   H519      1.0  0.47639  0.24832  0.72507  1.0000
  H   H520      1.0  0.48378  0.24618  0.77194  1.0000
  H   H521      1.0  0.56766  0.34258  0.68898  1.0000
  H   H522      1.0  0.54901  0.35107  0.72496  1.0000
  H   H523      1.0  0.58925  0.36818  0.72350  1.0000
  H   H524      1.0  0.58536  0.27237  0.73470  1.0000
  H   H525      1.0  0.57209  0.24977  0.77422  1.0000
  H   H526      1.0  0.58950  0.28970  0.77783  1.0000
  H   H527      1.0  0.56357  0.26163  0.67924  1.0000
  H   H528      1.0  0.58475  0.30224  0.68416  1.0000
  H   H529      1.0  0.56099  0.28674  0.64732  1.0000
  N   N23       1.0  0.42439  0.20463  0.61673  1.0000
  C   C312      1.0  0.40583  0.19203  0.65032  1.0000
  C   C313      1.0  0.40346  0.19225  0.58511  1.0000
  C   C314      1.0  0.43984  0.23865  0.61564  1.0000
  C   C315      1.0  0.44835  0.19552  0.61577  1.0000
  C   C316      1.0  0.42251  0.20506  0.68579  1.0000
  C   C317      1.0  0.38768  0.15768  0.58005  1.0000
  C   C318      1.0  0.41910  0.25231  0.62114  1.0000
  C   C319      1.0  0.46684  0.20276  0.58077  1.0000
  H   H530      1.0  0.38586  0.19519  0.64992  1.0000
  H   H531      1.0  0.39624  0.16716  0.65215  1.0000
  H   H532      1.0  0.41552  0.20336  0.55983  1.0000
  H   H533      1.0  0.38480  0.19754  0.58723  1.0000
  H   H534      1.0  0.45837  0.24895  0.63566  1.0000
  H   H535      1.0  0.45115  0.24747  0.58937  1.0000
  H   H536      1.0  0.46519  0.20692  0.63740  1.0000
  H   H537      1.0  0.43823  0.17089  0.62118  1.0000
  H   H538      1.0  0.40611  0.19411  0.70816  1.0000
  H   H539      1.0  0.44115  0.20013  0.68995  1.0000
  H   H540      1.0  0.43106  0.22962  0.68799  1.0000
  H   H541      1.0  0.40392  0.14945  0.57664  1.0000
  H   H542      1.0  0.54344  0.28992  0.52316  1.0000
  H   H543      1.0  0.37376  0.15150  0.55542  1.0000
  H   H544      1.0  0.40758  0.24659  0.64749  1.0000
  H   H545      1.0  0.40201  0.24550  0.59973  1.0000
  H   H546      1.0  0.43311  0.27733  0.61962  1.0000
  H   H547      1.0  0.45252  0.19010  0.55773  1.0000
  H   H548      1.0  0.48429  0.19590  0.58364  1.0000
  H   H549      1.0  0.47908  0.22724  0.57443  1.0000
  H   H550      1.0  0.46680  0.27880  0.91333  1.0000
  S   S93       1.0  0.35276  0.20349  0.75440  1.0000
  H   H551      1.0  0.51491  0.32104  0.93463  1.0000
  Fe  Fe42      1.0  0.33206  0.15821  0.87997  1.0000
  Fe  Fe43      1.0  0.33637  0.11250  0.83231  1.0000
  H   H552      1.0  0.64838  0.46864  0.93044  1.0000
  H   H553      1.0  0.64228  0.28848  0.69108  1.0000
  Fe  Fe44      1.0  0.33083  0.19327  0.54717  1.0000
  C   C320      1.0  0.34097  0.17674  0.98100  1.0000
  S   S94       1.0  0.36264  0.19070  0.50744  1.0000
  H   H554      1.0  0.35321  0.23501  0.69083  1.0000
  H   H555      1.0  0.44872  0.20021  0.00115  1.0000
  H   H556      1.0  0.33912  0.21888  0.62793  1.0000
  C   C321      1.0  0.45547  0.20104  0.97284  1.0000
  H   H557      1.0  0.43457  0.26646  0.00015  1.0000
  C   C322      1.0  0.32221  0.15139  0.66506  1.0000
  C   C323      1.0  0.64392  0.30970  0.68355  1.0000
  C   C324      1.0  0.64885  0.33114  0.70991  1.0000
  H   H558      1.0  0.51331  0.30098  0.97452  1.0000
  C   C325      1.0  0.65021  0.35821  0.70009  1.0000
  C   C326      1.0  0.64111  0.31557  0.64746  1.0000
  Fe  Fe45      1.0  0.64895  0.34988  0.80020  1.0000
  C   C327      1.0  0.52034  0.27388  0.51569  1.0000
  Fe  Fe46      1.0  0.63844  0.31995  0.54823  1.0000
  H   H559      1.0  0.32038  0.26305  0.00588  1.0000
  H   H560      1.0  0.64955  0.38549  0.65633  1.0000
  C   C328      1.0  0.64366  0.34311  0.63744  1.0000
  S   S95       1.0  0.64252  0.35217  0.59217  1.0000
  C   C329      1.0  0.64774  0.36420  0.66392  1.0000
  Fe  Fe47      1.0  0.38764  0.24124  0.50962  1.0000
  S   S96       1.0  0.43846  0.26983  0.52052  1.0000
  C   C330      1.0  0.52736  0.78600  0.48886  1.0000
  S   S97       1.0  0.36208  0.75147  0.47555  1.0000
  S   S98       1.0  0.62343  0.82503  0.48555  1.0000
  H   H561      1.0  0.64717  0.92908  0.25019  1.0000
  C   C331      1.0  0.47638  0.72394  0.40794  1.0000
  H   H562      1.0  0.32454  0.80069  0.05169  1.0000
  Fe  Fe48      1.0  0.33835  0.70122  0.48136  1.0000
  H   H563      1.0  0.34672  0.74498  0.34052  1.0000
  H   H564      1.0  0.43787  0.72132  0.33943  1.0000
  H   H565      1.0  0.46649  0.75670  0.42984  1.0000
  H   H566      1.0  0.41682  0.73036  0.44869  1.0000
  C   C332      1.0  0.46255  0.74464  0.40405  1.0000
  H   H567      1.0  0.32438  0.62948  0.12617  1.0000
  C   C333      1.0  0.51964  0.75576  0.49293  1.0000
  H   H568      1.0  0.34452  0.72843  0.40333  1.0000
  C   C334      1.0  0.33275  0.61738  0.10928  1.0000
  H   H569      1.0  0.36465  0.68935  0.03847  1.0000
  C   C335      1.0  0.46719  0.74255  0.50559  1.0000
  N   N24       1.0  0.42954  0.73000  0.39359  1.0000
  H   H570      1.0  0.33766  0.74828  0.12197  1.0000
  H   H571      1.0  0.38353  0.70712  0.33650  1.0000
  C   C336      1.0  0.32170  0.69981  0.31957  1.0000
  C   C337      1.0  0.40906  0.71493  0.42533  1.0000
  H   H572      1.0  0.47711  0.76228  0.38412  1.0000
  H   H573      1.0  0.38577  0.71098  0.42043  1.0000
  C   C338      1.0  0.34093  0.67958  0.03164  1.0000
  H   H574      1.0  0.41913  0.77341  0.43172  1.0000
  H   H575      1.0  0.46381  0.70518  0.42700  1.0000
  H   H576      1.0  0.57307  0.80182  0.03698  1.0000
  H   H577      1.0  0.33733  0.73660  0.05491  1.0000
  S   S99       1.0  0.63078  0.76858  0.45397  1.0000
  H   H578      1.0  0.42080  0.68874  0.46211  1.0000
  H   H579      1.0  0.45684  0.79394  0.41247  1.0000
  C   C339      1.0  0.39009  0.69176  0.34961  1.0000
  C   C340      1.0  0.42384  0.75474  0.38046  1.0000
  H   H580      1.0  0.42930  0.69127  0.36875  1.0000
  H   H581      1.0  0.38763  0.67504  0.32910  1.0000
  C   C341      1.0  0.63737  0.82292  0.31631  1.0000
  C   C342      1.0  0.48946  0.73412  0.50126  1.0000
  H   H582      1.0  0.61399  0.80831  0.30863  1.0000
  H   H583      1.0  0.62840  0.81281  0.37273  1.0000
  H   H584      1.0  0.48327  0.71066  0.50440  1.0000
  H   H585      1.0  0.51111  0.81777  0.48923  1.0000
  H   H586      1.0  0.63522  0.75007  0.21424  1.0000
  C   C343      1.0  0.42321  0.70878  0.36272  1.0000
  H   H587      1.0  0.38196  0.66974  0.44788  1.0000
  H   H588      1.0  0.37390  0.67895  0.37143  1.0000
  H   H589      1.0  0.43647  0.76484  0.35509  1.0000
  C   C344      1.0  0.40576  0.68482  0.43890  1.0000
  H   H590      1.0  0.63248  0.88486  0.01186  1.0000
  Fe  Fe49      1.0  0.59801  0.77434  0.48948  1.0000
  H   H591      1.0  0.47867  0.71515  0.38178  1.0000
  H   H592      1.0  0.42643  0.79734  0.39400  1.0000
  H   H593      1.0  0.40994  0.67166  0.41875  1.0000
  H   H594      1.0  0.33978  0.62839  0.08272  1.0000
  H   H595      1.0  0.64914  0.76131  0.30535  1.0000
  C   C345      1.0  0.43223  0.78112  0.40648  1.0000
  H   H596      1.0  0.49977  0.73750  0.41861  1.0000
  H   H597      1.0  0.64695  0.77501  0.25150  1.0000
  H   H598      1.0  0.39948  0.74558  0.37403  1.0000
  C   C346      1.0  0.33707  0.75721  0.06398  1.0000
  C   C347      1.0  0.47482  0.77272  0.50110  1.0000
  H   H599      1.0  0.35698  0.78799  0.11003  1.0000
  C   C348      1.0  0.35167  0.76514  0.10141  1.0000
  S   S100      1.0  0.54662  0.74386  0.48691  1.0000
  H   H600      1.0  0.35319  0.77582  0.04616  1.0000
  H   H601      1.0  0.37353  0.76521  0.10038  1.0000
  C   C349      1.0  0.31971  0.67534  0.05833  1.0000
  H   H602      1.0  0.64236  0.89823  0.27906  1.0000
  H   H603      1.0  0.64757  0.89699  0.23246  1.0000
  H   H604      1.0  0.35344  0.62004  0.12255  1.0000
  C   C350      1.0  0.50502  0.79439  0.49290  1.0000
  H   H605      1.0  0.55042  0.80284  0.48206  1.0000
  C   C351      1.0  0.33410  0.71180  0.38255  1.0000
  C   C352      1.0  0.64547  0.82537  0.35261  1.0000
  C   C353      1.0  0.33524  0.72112  0.34695  1.0000
  S   S101      1.0  0.33235  0.68708  0.10237  1.0000
  S   S102      1.0  0.32485  0.71277  0.27521  1.0000
  S   S103      1.0  0.64840  0.83504  0.24463  1.0000
  S   S104      1.0  0.44731  0.78417  0.50421  1.0000
  C   C354      1.0  0.31967  0.68103  0.39100  1.0000
  H   H606      1.0  0.32134  0.57218  0.09671  1.0000
  H   H607      1.0  0.32470  0.57460  0.03993  1.0000
  C   C355      1.0  0.57632  0.80236  0.00758  1.0000
  Fe  Fe50      1.0  0.34820  0.70472  0.56232  1.0000
  S   S105      1.0  0.37227  0.75554  0.56215  1.0000
  H   H608      1.0  0.55349  0.74606  0.56429  1.0000
  C   C356      1.0  0.54812  0.76460  0.61515  1.0000
  H   H609      1.0  0.63001  0.79677  0.61337  1.0000
  S   S106      1.0  0.34951  0.63641  0.80810  1.0000
  H   H610      1.0  0.61664  0.78086  0.67659  1.0000
  H   H611      1.0  0.54204  0.75575  0.00427  1.0000
  S   S107      1.0  0.34216  0.62409  0.89448  1.0000
  H   H612      1.0  0.58299  0.81950  0.93735  1.0000
  Fe  Fe51      1.0  0.37445  0.66159  0.85741  1.0000
  S   S108      1.0  0.42582  0.68166  0.85693  1.0000
  H   H613      1.0  0.48051  0.70455  0.93907  1.0000
  S   S109      1.0  0.35036  0.68821  0.86201  1.0000
  C   C357      1.0  0.45251  0.72076  0.85353  1.0000
  C   C358      1.0  0.48232  0.72998  0.84243  1.0000
  H   H614      1.0  0.42212  0.73599  0.87098  1.0000
  H   H615      1.0  0.48834  0.71310  0.83547  1.0000
  H   H616      1.0  0.59268  0.80859  0.58002  1.0000
  C   C359      1.0  0.63192  0.82585  0.69593  1.0000
  H   H617      1.0  0.57126  0.76988  0.62347  1.0000
  H   H618      1.0  0.44512  0.79834  0.79786  1.0000
  H   H619      1.0  0.34821  0.67500  0.97555  1.0000
  H   H620      1.0  0.59460  0.84598  0.53859  1.0000
  C   C360      1.0  0.33867  0.67941  0.65335  1.0000
  H   H621      1.0  0.55063  0.84097  0.92434  1.0000
  C   C361      1.0  0.39912  0.74523  0.77165  1.0000
  C   C362      1.0  0.53717  0.73957  0.58673  1.0000
  H   H622      1.0  0.59356  0.78034  0.94971  1.0000
  C   C363      1.0  0.54033  0.81925  0.93934  1.0000
  S   S110      1.0  0.62097  0.77255  0.54002  1.0000
  S   S111      1.0  0.60966  0.87439  0.87470  1.0000
  S   S112      1.0  0.59838  0.86839  0.78813  1.0000
  Fe  Fe52      1.0  0.57454  0.84092  0.83705  1.0000
  S   S113      1.0  0.52415  0.82193  0.84818  1.0000
  S   S114      1.0  0.59622  0.81231  0.83417  1.0000
  C   C364      1.0  0.49701  0.78285  0.84967  1.0000
  C   C365      1.0  0.46716  0.77363  0.86055  1.0000
  C   C366      1.0  0.44494  0.74277  0.86227  1.0000
  C   C367      1.0  0.50439  0.76087  0.84007  1.0000
  H   H623      1.0  0.46120  0.79049  0.86785  1.0000
  H   H624      1.0  0.52714  0.76762  0.83117  1.0000
  H   H625      1.0  0.37089  0.76208  0.79352  1.0000
  H   H626      1.0  0.56123  0.79064  0.68145  1.0000
  H   H627      1.0  0.51867  0.80890  0.58469  1.0000
  H   H628      1.0  0.51168  0.77515  0.56536  1.0000
  H   H629      1.0  0.51430  0.73303  0.57644  1.0000
  H   H630      1.0  0.45171  0.74710  0.78513  1.0000
  H   H631      1.0  0.38228  0.72062  0.77118  1.0000
  H   H632      1.0  0.42245  0.77815  0.67355  1.0000
  H   H633      1.0  0.54057  0.82478  0.96793  1.0000
  H   H634      1.0  0.56238  0.79188  0.54938  1.0000
  H   H635      1.0  0.48909  0.78673  0.63535  1.0000
  C   C368      1.0  0.55008  0.80347  0.67250  1.0000
  C   C369      1.0  0.33170  0.67146  0.99602  1.0000
  N   N25       1.0  0.54849  0.79319  0.60402  1.0000
  C   C370      1.0  0.51791  0.78730  0.59127  1.0000
  H   H636      1.0  0.58148  0.82508  0.99842  1.0000
  Fe  Fe53      1.0  0.62233  0.84146  0.78725  1.0000
  H   H637      1.0  0.55352  0.83345  0.62989  1.0000
  H   H638      1.0  0.58751  0.85558  0.58158  1.0000
  H   H639      1.0  0.52523  0.78932  0.67554  1.0000
  H   H640      1.0  0.53567  0.71902  0.59895  1.0000
  C   C371      1.0  0.44576  0.78625  0.74119  1.0000
  C   C372      1.0  0.49082  0.77061  0.61705  1.0000
  H   H641      1.0  0.46960  0.75892  0.60113  1.0000
  Fe  Fe54      1.0  0.63592  0.89946  0.82552  1.0000
  H   H642      1.0  0.39071  0.74343  0.65999  1.0000
  H   H643      1.0  0.58525  0.82827  0.63491  1.0000
  S   S115      1.0  0.34718  0.67548  0.60875  1.0000
  C   C373      1.0  0.34436  0.66366  0.68018  1.0000
  C   C374      1.0  0.44241  0.73869  0.75811  1.0000
  C   C375      1.0  0.64152  0.86289  0.96839  1.0000
  H   H644      1.0  0.49121  0.75241  0.63259  1.0000
  N   N26       1.0  0.54806  0.77371  0.95050  1.0000
  S   S116      1.0  0.62283  0.81337  0.74058  1.0000
  C   C376      1.0  0.51638  0.75153  0.93811  1.0000
  H   H645      1.0  0.49967  0.75748  0.94900  1.0000
  C   C377      1.0  0.57005  0.76289  0.94226  1.0000
  C   C378      1.0  0.57744  0.83830  0.56033  1.0000
  C   C379      1.0  0.62663  0.80447  0.66936  1.0000
  Fe  Fe55      1.0  0.33521  0.74985  0.52420  1.0000
  C   C380      1.0  0.57176  0.75496  0.90277  1.0000
  H   H646      1.0  0.64901  0.87295  0.70672  1.0000
  H   H647      1.0  0.51729  0.70890  0.93422  1.0000
  H   H648      1.0  0.51424  0.75263  0.90879  1.0000
  C   C381      1.0  0.54709  0.77707  0.99042  1.0000
  C   C382      1.0  0.55873  0.80340  0.93150  1.0000
  H   H649      1.0  0.56526  0.74294  0.95907  1.0000
  H   H650      1.0  0.55804  0.80038  0.90204  1.0000
  H   H651      1.0  0.62850  0.86760  0.94934  1.0000
  C   C383      1.0  0.55997  0.81581  0.63419  1.0000
  C   C384      1.0  0.57055  0.80671  0.57320  1.0000
  H   H652      1.0  0.41552  0.69257  0.73544  1.0000
  H   H653      1.0  0.55716  0.83791  0.54896  1.0000
  H   H654      1.0  0.51659  0.80570  0.92992  1.0000
  C   C385      1.0  0.63432  0.81342  0.63357  1.0000
  C   C386      1.0  0.50446  0.71816  0.94807  1.0000
  C   C387      1.0  0.32350  0.68230  0.72519  1.0000
  C   C388      1.0  0.33686  0.66511  0.71597  1.0000
  H   H655      1.0  0.59469  0.77065  0.89171  1.0000
  H   H656      1.0  0.55503  0.75602  0.88496  1.0000
  H   H657      1.0  0.56835  0.73177  0.90095  1.0000
  H   H658      1.0  0.50466  0.71479  0.97729  1.0000
  N   N27       1.0  0.42419  0.75273  0.74493  1.0000
  H   H659      1.0  0.32112  0.70911  0.64204  1.0000
  H   H660      1.0  0.39101  0.71657  0.71202  1.0000
  H   H661      1.0  0.35445  0.65008  0.67316  1.0000
  H   H662      1.0  0.46251  0.74527  0.74057  1.0000
  C   C389      1.0  0.40227  0.75742  0.68377  1.0000
  H   H663      1.0  0.47352  0.82772  0.77074  1.0000
  H   H664      1.0  0.42789  0.73555  0.69326  1.0000
  C   C390      1.0  0.46144  0.80296  0.77581  1.0000
  C   C391      1.0  0.42511  0.70386  0.76124  1.0000
  H   H665      1.0  0.47899  0.79750  0.78437  1.0000
  H   H666      1.0  0.53377  0.75401  0.63904  1.0000
  H   H667      1.0  0.44115  0.69641  0.77023  1.0000
  H   H668      1.0  0.34124  0.65276  0.73628  1.0000
  C   C392      1.0  0.38020  0.76097  0.76706  1.0000
  H   H669      1.0  0.39329  0.78466  0.75791  1.0000
  H   H670      1.0  0.36076  0.74797  0.74888  1.0000
  H   H671      1.0  0.46399  0.79053  0.72155  1.0000
  H   H672      1.0  0.40696  0.69567  0.78179  1.0000
  H   H673      1.0  0.43454  0.79822  0.72993  1.0000
  H   H674      1.0  0.40761  0.74880  0.79964  1.0000
  H   H675      1.0  0.55780  0.82281  0.69114  1.0000
  H   H676      1.0  0.38623  0.76329  0.69626  1.0000
  C   C393      1.0  0.41136  0.73926  0.70885  1.0000
  Fe  Fe56      1.0  0.63306  0.84751  0.86827  1.0000
  Fe  Fe57      1.0  0.39671  0.75235  0.51362  1.0000
  H   H677      1.0  0.64955  0.76413  0.62750  1.0000
  C   C394      1.0  0.64383  0.87267  0.00386  1.0000
  Fe  Fe58      1.0  0.32367  0.66092  0.81469  1.0000
  H   H678      1.0  0.52822  0.78100  0.99824  1.0000
  Fe  Fe59      1.0  0.64825  0.82285  0.53418  1.0000
  S   S117      1.0  0.37482  0.70205  0.51579  1.0000
  H   H679      1.0  0.64284  0.93590  0.91353  1.0000
  H   H680      1.0  0.31894  0.59253  0.00325  1.0000
  C   C395      1.0  0.64481  0.85631  0.68642  1.0000
  C   C396      1.0  0.32570  0.69696  0.66257  1.0000
  H   H681      1.0  0.44411  0.72570  0.51221  1.0000
  C   C397      1.0  0.64772  0.84389  0.62408  1.0000
  H   H682      1.0  0.59625  0.79950  0.00293  1.0000
  H   H683      1.0  0.33606  0.76396  0.99077  1.0000
  Fe  Fe60      1.0  0.83486  0.20058  0.48329  1.0000
  S   S118      1.0  0.85820  0.25083  0.47774  1.0000
  S   S119      1.0  0.81369  0.16747  0.43778  1.0000
  H   H684      1.0  0.75111  0.24073  0.05928  1.0000
  H   H685      1.0  0.85584  0.25947  0.05249  1.0000
  H   H686      1.0  0.80067  0.32151  0.09567  1.0000
  Fe  Fe61      1.0  0.79974  0.16682  0.14967  1.0000
  S   S120      1.0  0.74921  0.14080  0.14487  1.0000
  S   S121      1.0  0.83189  0.17476  0.10357  1.0000
  Fe  Fe62      1.0  0.79693  0.17749  0.22975  1.0000
  S   S122      1.0  0.74585  0.15160  0.23045  1.0000
  S   S123      1.0  0.82732  0.20652  0.27472  1.0000
  Fe  Fe63      1.0  0.75059  0.11797  0.19573  1.0000
  S   S124      1.0  0.71991  0.06672  0.19739  1.0000
  Fe  Fe64      1.0  0.74956  0.17701  0.17955  1.0000
  S   S125      1.0  0.71909  0.19680  0.16623  1.0000
  S   S126      1.0  0.80146  0.14219  0.19873  1.0000
  S   S127      1.0  0.80022  0.20456  0.18067  1.0000
  H   H687      1.0  0.76238  0.08065  0.12981  1.0000
  N   N28       1.0  0.72418  0.45451  0.30448  1.0000
  Fe  Fe65      1.0  0.72648  0.35788  0.17310  1.0000
  S   S128      1.0  0.67553  0.33380  0.17164  1.0000
  S   S129      1.0  0.75581  0.33586  0.16632  1.0000
  Fe  Fe66      1.0  0.73136  0.42036  0.18285  1.0000
  S   S130      1.0  0.68099  0.40019  0.18139  1.0000
  S   S131      1.0  0.76406  0.47055  0.19248  1.0000
  Fe  Fe67      1.0  0.67935  0.36403  0.21734  1.0000
  Fe  Fe68      1.0  0.68208  0.37217  0.13594  1.0000
  S   S132      1.0  0.72996  0.38569  0.22139  1.0000
  S   S133      1.0  0.73285  0.39485  0.13459  1.0000
  H   H688      1.0  0.66147  0.43341  0.28858  1.0000
  C   C398      1.0  0.74411  0.22143  0.38342  1.0000
  C   C399      1.0  0.79913  0.26686  0.42749  1.0000
  H   H689      1.0  0.70825  0.37670  0.05463  1.0000
  C   C400      1.0  0.72739  0.48507  0.29727  1.0000
  H   H690      1.0  0.71535  0.34973  0.35617  1.0000
  H   H691      1.0  0.86088  0.27938  0.09441  1.0000
  C   C401      1.0  0.75732  0.42917  0.30674  1.0000
  H   H692      1.0  0.67996  0.45944  0.34352  1.0000
  C   C402      1.0  0.75530  0.45797  0.30018  1.0000
  H   H693      1.0  0.69563  0.40855  0.28607  1.0000
  H   H694      1.0  0.74356  0.03829  0.04172  1.0000
  C   C403      1.0  0.76233  0.04787  0.20400  1.0000
  C   C404      1.0  0.73260  0.04016  0.19530  1.0000
  C   C405      1.0  0.77935  0.15360  0.01492  1.0000
  H   H695      1.0  0.81080  0.23707  0.11627  1.0000
  H   H696      1.0  0.70632  0.46901  0.18218  1.0000
  H   H697      1.0  0.77829  0.07067  0.21230  1.0000
  H   H698      1.0  0.74115  0.31863  0.07310  1.0000
  C   C406      1.0  0.67401  0.34408  0.37928  1.0000
  C   C407      1.0  0.72949  0.23543  0.17058  1.0000
  C   C408      1.0  0.70685  0.24353  0.16888  1.0000
  C   C409      1.0  0.71441  0.27412  0.16949  1.0000
  C   C410      1.0  0.74482  0.29703  0.17041  1.0000
  C   C411      1.0  0.76743  0.28892  0.17250  1.0000
  C   C412      1.0  0.75982  0.25833  0.17319  1.0000
  H   H699      1.0  0.68330  0.22597  0.16738  1.0000
  H   H700      1.0  0.69678  0.27998  0.16904  1.0000
  H   H701      1.0  0.79102  0.30646  0.17369  1.0000
  H   H702      1.0  0.77747  0.25247  0.17495  1.0000
  C   C413      1.0  0.81904  0.16788  0.05904  1.0000
  C   C414      1.0  0.78881  0.15819  0.05069  1.0000
  H   H703      1.0  0.72013  0.00590  0.32708  1.0000
  H   H704      1.0  0.77276  0.15444  0.07170  1.0000
  H   H705      1.0  0.75618  0.09204  0.02997  1.0000
  H   H706      1.0  0.80695  0.21656  0.07739  1.0000
  C   C415      1.0  0.77032  0.08264  0.02033  1.0000
  C   C416      1.0  0.74405  0.16848  0.43986  1.0000
  C   C417      1.0  0.83955  0.17219  0.03144  1.0000
  H   H707      1.0  0.83254  0.30019  0.08223  1.0000
  C   C418      1.0  0.69812  0.22438  0.43266  1.0000
  H   H708      1.0  0.66026  0.41325  0.24964  1.0000
  C   C419      1.0  0.81602  0.17901  0.39284  1.0000
  C   C420      1.0  0.80053  0.15709  0.36658  1.0000
  C   C421      1.0  0.80303  0.16527  0.33029  1.0000
  C   C422      1.0  0.82152  0.19543  0.32002  1.0000
  C   C423      1.0  0.83679  0.21739  0.34633  1.0000
  C   C424      1.0  0.83371  0.20931  0.38266  1.0000
  H   H709      1.0  0.78673  0.13360  0.37429  1.0000
  H   H710      1.0  0.79122  0.14819  0.31019  1.0000
  H   H711      1.0  0.85094  0.24080  0.33851  1.0000
  H   H712      1.0  0.84520  0.22650  0.40262  1.0000
  N   N29       1.0  0.74581  0.21918  0.42346  1.0000
  C   C425      1.0  0.73213  0.23654  0.44007  1.0000
  C   C426      1.0  0.77812  0.23311  0.43646  1.0000
  C   C427      1.0  0.72741  0.18665  0.43607  1.0000
  C   C428      1.0  0.68550  0.34983  0.31536  1.0000
  H   H713      1.0  0.90523  0.26462  0.38980  1.0000
  C   C429      1.0  0.68313  0.44093  0.35379  1.0000
  H   H714      1.0  0.91530  0.27397  0.43538  1.0000
  H   H715      1.0  0.80614  0.21806  0.02024  1.0000
  H   H716      1.0  0.73478  0.23711  0.46950  1.0000
  H   H717      1.0  0.74402  0.26052  0.43102  1.0000
  H   H718      1.0  0.78954  0.22109  0.42576  1.0000
  H   H719      1.0  0.77842  0.23077  0.46607  1.0000
  H   H720      1.0  0.74100  0.34963  0.09392  1.0000
  H   H721      1.0  0.78596  0.22219  0.36632  1.0000
  H   H722      1.0  0.75869  0.21331  0.33218  1.0000
  C   C430      1.0  0.66224  0.36515  0.04356  1.0000
  C   C431      1.0  0.69375  0.34823  0.35080  1.0000
  H   H723      1.0  0.70485  0.02037  0.29468  1.0000
  H   H724      1.0  0.75788  0.19079  0.09646  1.0000
  H   H725      1.0  0.79302  0.28152  0.44302  1.0000
  H   H726      1.0  0.68360  0.20064  0.44154  1.0000
  H   H727      1.0  0.75526  0.42330  0.33558  1.0000
  H   H728      1.0  0.74010  0.40946  0.29181  1.0000
  C   C432      1.0  0.71209  0.01034  0.18496  1.0000
  H   H729      1.0  0.68901  0.00416  0.17831  1.0000
  C   C433      1.0  0.76131  0.20967  0.36093  1.0000
  H   H730      1.0  0.82265  0.27351  0.43546  1.0000
  H   H731      1.0  0.66338  0.41876  0.34634  1.0000
  N   N30       1.0  0.91720  0.21292  0.39371  1.0000
  C   C434      1.0  0.89245  0.18016  0.39481  1.0000
  C   C435      1.0  0.91784  0.22457  0.35641  1.0000
  C   C436      1.0  0.90946  0.23012  0.42071  1.0000
  C   C437      1.0  0.94671  0.21442  0.40324  1.0000
  C   C438      1.0  0.92359  0.20796  0.32573  1.0000
  C   C439      1.0  0.91921  0.26333  0.41173  1.0000
  H   H732      1.0  0.87067  0.17772  0.38495  1.0000
  H   H733      1.0  0.89781  0.16619  0.37682  1.0000
  H   H734      1.0  0.93543  0.24873  0.35357  1.0000
  H   H735      1.0  0.89587  0.22355  0.35057  1.0000
  H   H736      1.0  0.88452  0.21895  0.42510  1.0000
  H   H737      1.0  0.91884  0.22992  0.44747  1.0000
  H   H738      1.0  0.82805  0.27919  0.02626  1.0000
  H   H739      1.0  0.79008  0.26851  0.01936  1.0000
  H   H740      1.0  0.71421  0.05261  0.07070  1.0000
  H   H741      1.0  0.94488  0.20735  0.32928  1.0000
  H   H742      1.0  0.90412  0.18482  0.32193  1.0000
  C   C440      1.0  0.67522  0.43349  0.26575  1.0000
  H   H743      1.0  0.69704  0.30561  0.11478  1.0000
  H   H744      1.0  0.76648  0.28653  0.09068  1.0000
  H   H745      1.0  0.79974  0.27170  0.39855  1.0000
  N   N31       1.0  0.79800  0.25385  0.07047  1.0000
  C   C441      1.0  0.80851  0.28368  0.08905  1.0000
  H   H746      1.0  0.92591  0.22031  0.30035  1.0000
  C   C442      1.0  0.76431  0.23419  0.07723  1.0000
  H   H747      1.0  0.69063  0.23809  0.44808  1.0000
  C   C443      1.0  0.79025  0.29974  0.08098  1.0000
  S   S134      1.0  0.68554  0.34271  0.42341  1.0000
  H   H748      1.0  0.69734  0.30692  0.01548  1.0000
  H   H749      1.0  0.75204  0.18512  0.36443  1.0000
  H   H750      1.0  0.80800  0.28073  0.11863  1.0000
  H   H751      1.0  0.68513  0.32618  0.08759  1.0000
  H   H752      1.0  0.72722  0.14442  0.44545  1.0000
  H   H753      1.0  0.77991  0.43331  0.29776  1.0000
  H   H754      1.0  0.75857  0.23755  0.10488  1.0000
  C   C444      1.0  0.81505  0.23978  0.08700  1.0000
  H   H755      1.0  0.94349  0.27724  0.40473  1.0000
  C   C445      1.0  0.80458  0.26016  0.03111  1.0000
  H   H756      1.0  0.72541  0.18872  0.07622  1.0000
  C   C446      1.0  0.70367  0.43205  0.27691  1.0000
  H   H757      1.0  0.79069  0.30516  0.05225  1.0000
  C   C447      1.0  0.84970  0.25703  0.08122  1.0000
  C   C448      1.0  0.77135  0.02591  0.20231  1.0000
  H   H758      1.0  0.94613  0.20691  0.43129  1.0000
  H   H759      1.0  0.75993  0.17662  0.46282  1.0000
  H   H760      1.0  0.75270  0.24531  0.37513  1.0000
  C   C449      1.0  0.69129  0.37098  0.03417  1.0000
  C   C450      1.0  0.96388  0.24212  0.50143  1.0000
  C   C451      1.0  0.75051  0.19975  0.07396  1.0000
  N   N32       1.0  0.77567  0.06467  0.08330  1.0000
  C   C452      1.0  0.80858  0.08922  0.08467  1.0000
  H   H761      1.0  0.70747  0.17346  0.41845  1.0000
  C   C453      1.0  0.77254  0.03746  0.10346  1.0000
  C   C454      1.0  0.75715  0.07671  0.10082  1.0000
  C   C455      1.0  0.82223  0.09886  0.12242  1.0000
  H   H762      1.0  0.72512  0.00309  0.08914  1.0000
  H   H763      1.0  0.71631  0.43466  0.25157  1.0000
  C   C456      1.0  0.72884  0.33136  0.07416  1.0000
  H   H764      1.0  0.82306  0.08230  0.06967  1.0000
  H   H765      1.0  0.81210  0.11028  0.07158  1.0000
  H   H766      1.0  0.97495  0.26188  0.41926  1.0000
  H   H767      1.0  0.71192  0.06854  0.11205  1.0000
  H   H768      1.0  0.79406  0.03671  0.10248  1.0000
  H   H769      1.0  0.76843  0.03908  0.13221  1.0000
  H   H770      1.0  0.73751  0.01796  0.28330  1.0000
  H   H771      1.0  0.69389  0.22671  0.40411  1.0000
  H   H772      1.0  0.81211  0.11056  0.13693  1.0000
  H   H773      1.0  0.82006  0.07977  0.13883  1.0000
  H   H774      1.0  0.84684  0.11550  0.11982  1.0000
  H   H775      1.0  0.70909  0.41954  0.34498  1.0000
  H   H776      1.0  0.71772  0.18538  0.46321  1.0000
  C   C457      1.0  0.71569  0.00630  0.29826  1.0000
  H   H777      1.0  0.76324  0.09925  0.08957  1.0000
  H   H778      1.0  0.79436  0.03204  0.20924  1.0000
  H   H779      1.0  0.70058  0.35224  0.29362  1.0000
  H   H780      1.0  0.90516  0.16191  0.44119  1.0000
  H   H781      1.0  0.72015  0.20885  0.37424  1.0000
  H   H782      1.0  0.86601  0.14130  0.42928  1.0000
  C   C458      1.0  0.88593  0.16443  0.43166  1.0000
  H   H783      1.0  0.87988  0.17609  0.45209  1.0000
  H   H784      1.0  0.95036  0.19850  0.38662  1.0000
  C   C459      1.0  0.65758  0.34775  0.30817  1.0000
  H   H785      1.0  0.68142  0.45348  0.24848  1.0000
  H   H786      1.0  0.86298  0.17959  0.03775  1.0000
  H   H787      1.0  0.77179  0.47492  0.31904  1.0000
  C   C460      1.0  0.76737  0.05686  0.04458  1.0000
  H   H788      1.0  0.71438  0.03515  0.11313  1.0000
  H   H789      1.0  0.70078  0.26495  0.09238  1.0000
  H   H790      1.0  0.72881  0.45954  0.04131  1.0000
  H   H791      1.0  0.85925  0.24379  0.09361  1.0000
  C   C461      1.0  0.69555  0.31150  0.08657  1.0000
  H   H792      1.0  0.78168  0.04831  0.03255  1.0000
  H   H793      1.0  0.75420  0.00004  0.06484  1.0000
  C   C462      1.0  0.72249  0.05671  0.09858  1.0000
  H   H794      1.0  0.73083  0.34283  0.04833  1.0000
  H   H795      1.0  0.75666  0.16900  0.41565  1.0000
  H   H796      1.0  0.76453  0.46660  0.27290  1.0000
  C   C463      1.0  0.74800  0.00575  0.09092  1.0000
  H   H797      1.0  0.75573  0.19279  0.04830  1.0000
  C   C464      1.0  0.97550  0.24564  0.40027  1.0000
  H   H798      1.0  0.71034  0.27317  0.04660  1.0000
  C   C465      1.0  0.75095  0.99622  0.19134  1.0000
  C   C466      1.0  0.71305  0.44294  0.34176  1.0000
  H   H799      1.0  0.73072  0.45594  0.36213  1.0000
  H   H800      1.0  0.79422  0.10088  0.01698  1.0000
  H   H801      1.0  0.68326  0.44305  0.38333  1.0000
  H   H802      1.0  0.68216  0.22296  0.03751  1.0000
  H   H803      1.0  0.69670  0.46219  0.02802  1.0000
  C   C467      1.0  0.67443  0.29339  0.02755  1.0000
  H   H804      1.0  0.66435  0.30836  0.02801  1.0000
  Fe  Fe69      1.0  0.65441  0.31659  0.46994  1.0000
  C   C468      1.0  0.69080  0.26393  0.06555  1.0000
  N   N33       1.0  0.67617  0.28336  0.06500  1.0000
  C   C469      1.0  0.97126  0.27235  0.49872  1.0000
  H   H805      1.0  0.66695  0.21600  0.08136  1.0000
  C   C470      1.0  0.79986  0.23357  0.00731  1.0000
  H   H806      1.0  0.98029  0.21060  0.49736  1.0000
  H   H807      1.0  0.97962  0.25483  0.37271  1.0000
  H   H808      1.0  0.75597  0.14639  0.00859  1.0000
  C   C471      1.0  0.67037  0.22991  0.05703  1.0000
  C   C472      1.0  0.71943  0.46678  0.01903  1.0000
  H   H809      1.0  0.70518  0.48415  0.29692  1.0000
  H   H810      1.0  0.77821  0.30916  0.50541  1.0000
  S   S135      1.0  0.94396  0.28366  0.50594  1.0000
  H   H811      1.0  0.65344  0.24255  0.12336  1.0000
  Fe  Fe70      1.0  0.84545  0.20371  0.56400  1.0000
  S   S136      1.0  0.86926  0.25450  0.56423  1.0000
  S   S137      1.0  0.84461  0.17413  0.60989  1.0000
  H   H812      1.0  0.75107  0.31200  0.57863  1.0000
  H   H813      1.0  0.74213  0.11987  0.74015  1.0000
  H   H814      1.0  0.72028  0.37216  0.99123  1.0000
  C   C473      1.0  0.69807  0.36852  0.99830  1.0000
  H   H815      1.0  0.77295  0.02715  0.93655  1.0000
  H   H816      1.0  0.81634  0.09396  0.75117  1.0000
  S   S138      1.0  0.80619  0.19809  0.53042  1.0000
  H   H817      1.0  0.95360  0.20433  0.76778  1.0000
  S   S139      1.0  0.67169  0.24128  0.54099  1.0000
  H   H818      1.0  0.76209  0.07364  0.99315  1.0000
  S   S140      1.0  0.68468  0.35630  0.92735  1.0000
  C   C474      1.0  0.91450  0.23650  0.67196  1.0000
  H   H819      1.0  0.74952  0.30759  0.68353  1.0000
  S   S141      1.0  0.67785  0.45974  0.82816  1.0000
  S   S142      1.0  0.68655  0.38568  0.83323  1.0000
  Fe  Fe71      1.0  0.82114  0.16093  0.81575  1.0000
  S   S143      1.0  0.84827  0.13776  0.80931  1.0000
  S   S144      1.0  0.80920  0.18243  0.77029  1.0000
  Fe  Fe72      1.0  0.81403  0.14930  0.89637  1.0000
  S   S145      1.0  0.84100  0.12535  0.89568  1.0000
  S   S146      1.0  0.78666  0.15152  0.94296  1.0000
  Fe  Fe73      1.0  0.87276  0.16320  0.85863  1.0000
  S   S147      1.0  0.92419  0.18398  0.85904  1.0000
  Fe  Fe74      1.0  0.81400  0.10225  0.84647  1.0000
  S   S148      1.0  0.79571  0.05232  0.83458  1.0000
  S   S149      1.0  0.84756  0.18873  0.86294  1.0000
  S   S150      1.0  0.78518  0.12382  0.84939  1.0000
  S   S151      1.0  0.87177  0.20148  0.51692  1.0000
  H   H820      1.0  0.94786  0.27508  0.75819  1.0000
  H   H821      1.0  0.71972  0.99368  0.93972  1.0000
  C   C475      1.0  0.75678  0.02441  0.83231  1.0000
  C   C476      1.0  0.73378  0.03108  0.83944  1.0000
  C   C477      1.0  0.70311  0.00827  0.83700  1.0000
  H   H822      1.0  0.73387  0.45725  0.83383  1.0000
  H   H823      1.0  0.81110  0.08900  0.70314  1.0000
  H   H824      1.0  0.73958  0.05375  0.84698  1.0000
  H   H825      1.0  0.68546  0.01365  0.84254  1.0000
  H   H826      1.0  0.81520  0.24250  0.98374  1.0000
  C   C478      1.0  0.75019  0.06398  0.66282  1.0000
  C   C479      1.0  0.73532  0.43498  0.91282  1.0000
  H   H827      1.0  0.91968  0.23886  0.86158  1.0000
  C   C480      1.0  0.71899  0.32485  0.69118  1.0000
  C   C481      1.0  0.78139  0.30832  0.61557  1.0000
  H   H828      1.0  0.78403  0.11086  0.75626  1.0000
  H   H829      1.0  0.72385  0.29466  0.51002  1.0000
  H   H830      1.0  0.71198  0.26378  0.60529  1.0000
  C   C482      1.0  0.80654  0.07731  0.72932  1.0000
  H   H831      1.0  0.77614  0.22060  0.99754  1.0000
  H   H832      1.0  0.76104  0.08215  0.78734  1.0000
  C   C483      1.0  0.95071  0.22267  0.85139  1.0000
  N   N34       1.0  0.71084  0.45957  0.95093  1.0000
  S   S152      1.0  0.67873  0.32116  0.52182  1.0000
  C   C484      1.0  0.75474  0.08307  0.69645  1.0000
  C   C485      1.0  0.79981  0.15784  0.98730  1.0000
  H   H833      1.0  0.76825  0.99733  0.96583  1.0000
  H   H834      1.0  0.72914  0.41788  0.89150  1.0000
  H   H835      1.0  0.84587  0.17034  0.97451  1.0000
  C   C486      1.0  0.83433  0.17679  0.65408  1.0000
  C   C487      1.0  0.83849  0.15989  0.68079  1.0000
  C   C488      1.0  0.83089  0.16148  0.71646  1.0000
  C   C489      1.0  0.81864  0.17967  0.72565  1.0000
  C   C490      1.0  0.81429  0.19645  0.69890  1.0000
  C   C491      1.0  0.82232  0.19521  0.66320  1.0000
  H   H836      1.0  0.84788  0.14569  0.67383  1.0000
  H   H837      1.0  0.83467  0.14875  0.73679  1.0000
  H   H838      1.0  0.80488  0.21064  0.70584  1.0000
  H   H839      1.0  0.81902  0.20830  0.64274  1.0000
  C   C492      1.0  0.96471  0.27568  0.84920  1.0000
  C   C493      1.0  0.76067  0.09175  0.76071  1.0000
  C   C494      1.0  0.93052  0.18771  0.75849  1.0000
  H   H840      1.0  0.67656  0.23137  0.64857  1.0000
  N   N35       1.0  0.73115  0.30718  0.63114  1.0000
  C   C495      1.0  0.74044  0.10627  0.76409  1.0000
  H   H841      1.0  0.72578  0.05054  0.65576  1.0000
  C   C496      1.0  0.71639  0.27318  0.63277  1.0000
  H   H842      1.0  0.73171  0.26614  0.64527  1.0000
  H   H843      1.0  0.91486  0.17831  0.78159  1.0000
  H   H844      1.0  0.95840  0.29288  0.85211  1.0000
  H   H845      1.0  0.70400  0.35384  0.59977  1.0000
  C   C497      1.0  0.73935  0.48050  0.83665  1.0000
  H   H846      1.0  0.74262  0.42645  0.93575  1.0000
  H   H847      1.0  0.73715  0.36433  0.62617  1.0000
  H   H848      1.0  0.74862  0.12233  0.78677  1.0000
  C   C498      1.0  0.70745  0.43819  0.92132  1.0000
  Fe  Fe75      1.0  0.89333  0.25174  0.51507  1.0000
  H   H849      1.0  0.75807  0.22396  0.55129  1.0000
  H   H850      1.0  0.93193  0.16854  0.74669  1.0000
  H   H851      1.0  0.70160  0.44506  0.89573  1.0000
  C   C499      1.0  0.74180  0.32096  0.66767  1.0000
  H   H852      1.0  0.91004  0.26607  0.79470  1.0000
  H   H853      1.0  0.76633  0.03602  0.71696  1.0000
  H   H854      1.0  0.68986  0.25902  0.68264  1.0000
  C   C500      1.0  0.94270  0.24506  0.85452  1.0000
  C   C501      1.0  0.66824  0.46650  0.92240  1.0000
  C   C502      1.0  0.70892  0.01177  0.72520  1.0000
  H   H855      1.0  0.93233  0.20443  0.70572  1.0000
  C   C503      1.0  0.94880  0.25431  0.75194  1.0000
  H   H856      1.0  0.91166  0.26357  0.71407  1.0000
  C   C504      1.0  0.88965  0.24574  0.78450  1.0000
  H   H857      1.0  0.69964  0.30223  0.58934  1.0000
  H   H858      1.0  0.71437  0.34240  0.68043  1.0000
  Fe  Fe76      1.0  0.83179  0.24884  0.52699  1.0000
  C   C505      1.0  0.67615  0.36116  0.97157  1.0000
  H   H859      1.0  0.90594  0.24748  0.65327  1.0000
  C   C506      1.0  0.74873  0.99473  0.82280  1.0000
  H   H860      1.0  0.75990  0.04896  0.66485  1.0000
  H   H861      1.0  0.70382  0.20982  0.55690  1.0000
  H   H862      1.0  0.87469  0.20057  0.76640  1.0000
  S   S153      1.0  0.81107  0.27942  0.52546  1.0000
  C   C507      1.0  0.68059  0.45808  0.95545  1.0000
  N   N36       1.0  0.91805  0.22924  0.74055  1.0000
  C   C508      1.0  0.73114  0.27914  0.51892  1.0000
  C   C509      1.0  0.91855  0.20101  0.73004  1.0000
  C   C510      1.0  0.90548  0.23954  0.71045  1.0000
  C   C511      1.0  0.89680  0.22114  0.77213  1.0000
  H   H863      1.0  0.71443  0.04071  0.76849  1.0000
  H   H864      1.0  0.97463  0.24583  0.70984  1.0000
  H   H865      1.0  0.87320  0.23661  0.80699  1.0000
  H   H866      1.0  0.68398  0.99746  0.72894  1.0000
  H   H867      1.0  0.70312  0.05062  0.72827  1.0000
  H   H868      1.0  0.71381  0.01150  0.69648  1.0000
  C   C512      1.0  0.77193  0.26755  0.52805  1.0000
  H   H869      1.0  0.89528  0.18289  0.72270  1.0000
  H   H870      1.0  0.88021  0.22646  0.71066  1.0000
  C   C513      1.0  0.68623  0.25593  0.65345  1.0000
  H   H871      1.0  0.69885  0.42465  0.99078  1.0000
  H   H872      1.0  0.77007  0.04487  0.76248  1.0000
  H   H873      1.0  0.90354  0.21243  0.66382  1.0000
  H   H874      1.0  0.75435  0.45621  0.90193  1.0000
  H   H875      1.0  0.90585  0.21523  0.79590  1.0000
  H   H876      1.0  0.72885  0.33256  0.71815  1.0000
  C   C514      1.0  0.76196  0.28732  0.51639  1.0000
  H   H877      1.0  0.71640  0.08947  0.76987  1.0000
  H   H878      1.0  0.73624  0.35479  0.57952  1.0000
  H   H879      1.0  0.94097  0.22495  0.50827  1.0000
  H   H880      1.0  0.93927  0.24744  0.66803  1.0000
  C   C515      1.0  0.77250  0.05503  0.73551  1.0000
  H   H881      1.0  0.78822  0.31199  0.64402  1.0000
  H   H882      1.0  0.81891  0.06452  0.72957  1.0000
  H   H883      1.0  0.68825  0.41514  0.92734  1.0000
  C   C516      1.0  0.70937  0.31543  0.61430  1.0000
  H   H884      1.0  0.68957  0.30918  0.63175  1.0000
  H   H885      1.0  0.80216  0.32150  0.59905  1.0000
  C   C517      1.0  0.72280  0.34914  0.60462  1.0000
  H   H886      1.0  0.66276  0.43495  0.96405  1.0000
  C   C518      1.0  0.71916  0.04380  0.73922  1.0000
  C   C519      1.0  0.75839  0.31869  0.60667  1.0000
  H   H887      1.0  0.76212  0.34397  0.66555  1.0000
  H   H888      1.0  0.78101  0.99944  0.91989  1.0000
  C   C520      1.0  0.71997  0.23139  0.54523  1.0000
  H   H889      1.0  0.77153  0.34384  0.60629  1.0000
  H   H890      1.0  0.73783  0.09070  0.69411  1.0000
  C   C521      1.0  0.76551  0.00268  0.93786  1.0000
  H   H891      1.0  0.76263  0.07940  0.64015  1.0000
  H   H892      1.0  0.77679  0.10456  0.69382  1.0000
  H   H893      1.0  0.65981  0.44846  0.90207  1.0000
  H   H894      1.0  0.77240  0.28425  0.60842  1.0000
  H   H895      1.0  0.95594  0.24899  0.77773  1.0000
  C   C522      1.0  0.71709  0.44836  0.98545  1.0000
  H   H896      1.0  0.87862  0.25210  0.76338  1.0000
  H   H897      1.0  0.69722  0.30374  0.69502  1.0000
  C   C523      1.0  0.75071  0.23935  0.54212  1.0000
  C   C524      1.0  0.82994  0.16700  0.99564  1.0000
  N   N37       1.0  0.75171  0.06802  0.73214  1.0000
  H   H898      1.0  0.98288  0.22600  0.92824  1.0000
  C   C525      1.0  0.71007  0.25131  0.53392  1.0000
  H   H899      1.0  0.68172  0.47363  0.97685  1.0000
  H   H900      1.0  0.96968  0.26186  0.59755  1.0000
  H   H901      1.0  0.73806  0.44697  0.98425  1.0000
  H   H902      1.0  0.71934  0.00083  0.74091  1.0000
  H   H903      1.0  0.65626  0.27947  0.97439  1.0000
  H   H904      1.0  0.97605  0.28193  0.70655  1.0000
  C   C526      1.0  0.98084  0.23121  0.84264  1.0000
  H   H905      1.0  0.96693  0.24536  0.95122  1.0000
  C   C527      1.0  0.97517  0.26452  0.72513  1.0000
  H   H906      1.0  0.68506  0.48830  0.91010  1.0000
  H   H907      1.0  0.73180  0.99063  0.89695  1.0000
  H   H908      1.0  0.66880  0.26139  0.64443  1.0000
  H   H909      1.0  0.65398  0.37487  0.72019  1.0000
  Fe  Fe77      1.0  0.65804  0.35996  0.88081  1.0000
  Fe  Fe78      1.0  0.65904  0.40889  0.83375  1.0000
  S   S154      1.0  0.65399  0.32362  0.75456  1.0000
  H   H910      1.0  0.66726  0.25485  0.99441  1.0000
  C   C528      1.0  0.71632  0.48778  0.83451  1.0000
  C   C529      1.0  0.65632  0.26847  0.00007  1.0000
  H   H911      1.0  0.77300  0.48277  0.95318  1.0000
  H   H912      1.0  0.76637  0.98940  0.81702  1.0000
  Fe  Fe79      1.0  0.83675  0.69825  0.47489  1.0000
  S   S155      1.0  0.85957  0.74855  0.46951  1.0000
  S   S156      1.0  0.81352  0.66613  0.42916  1.0000
  C   C530      1.0  0.91621  0.71323  0.32632  1.0000
  H   H913      1.0  0.74940  0.98265  0.30650  1.0000
  H   H914      1.0  0.74538  0.53065  0.31736  1.0000
  Fe  Fe80      1.0  0.80998  0.67028  0.14482  1.0000
  S   S157      1.0  0.75936  0.64601  0.14068  1.0000
  S   S158      1.0  0.84129  0.67144  0.10097  1.0000
  Fe  Fe81      1.0  0.80856  0.68407  0.22380  1.0000
  S   S159      1.0  0.75758  0.65972  0.22578  1.0000
  S   S160      1.0  0.83952  0.71230  0.26859  1.0000
  Fe  Fe82      1.0  0.76002  0.62407  0.19263  1.0000
  S   S161      1.0  0.72765  0.57326  0.19694  1.0000
  Fe  Fe83      1.0  0.76162  0.68385  0.17387  1.0000
  S   S162      1.0  0.73038  0.70277  0.16145  1.0000
  S   S163      1.0  0.81070  0.64657  0.19518  1.0000
  S   S164      1.0  0.81250  0.71009  0.17342  1.0000
  H   H915      1.0  0.90122  0.68464  0.43625  1.0000
  S   S165      1.0  0.68699  0.84895  0.40787  1.0000
  Fe  Fe84      1.0  0.73335  0.86057  0.15682  1.0000
  S   S166      1.0  0.68261  0.83445  0.15033  1.0000
  S   S167      1.0  0.76526  0.84118  0.15584  1.0000
  Fe  Fe85      1.0  0.73378  0.92005  0.17371  1.0000
  H   H916      1.0  0.77576  0.72319  0.32202  1.0000
  S   S168      1.0  0.76350  0.96953  0.18910  1.0000
  Fe  Fe86      1.0  0.68223  0.85920  0.19988  1.0000
  Fe  Fe87      1.0  0.68881  0.87549  0.11997  1.0000
  S   S169      1.0  0.73241  0.88306  0.20797  1.0000
  S   S170      1.0  0.73981  0.90018  0.12289  1.0000
  H   H917      1.0  0.93485  0.69284  0.38518  1.0000
  H   H918      1.0  0.84608  0.76151  0.11537  1.0000
  C   C531      1.0  0.76247  0.78542  0.04770  1.0000
  C   C532      1.0  0.67483  0.85064  0.01872  1.0000
  N   N38       1.0  0.79028  0.75526  0.05707  1.0000
  C   C533      1.0  0.69755  0.86055  0.33641  1.0000
  C   C534      1.0  0.68949  0.85788  0.30017  1.0000
  H   H919      1.0  0.84671  0.78975  0.08759  1.0000
  H   H920      1.0  0.72093  0.87509  0.34412  1.0000
  H   H921      1.0  0.70667  0.87015  0.28021  1.0000
  H   H922      1.0  0.70379  0.73431  0.44186  1.0000
  H   H923      1.0  0.77791  0.72730  0.45895  1.0000
  C   C535      1.0  0.71603  0.51495  0.18972  1.0000
  C   C536      1.0  0.73819  0.54500  0.19703  1.0000
  C   C537      1.0  0.76795  0.55170  0.20382  1.0000
  C   C538      1.0  0.77542  0.52857  0.20280  1.0000
  H   H924      1.0  0.80260  0.52795  0.10324  1.0000
  H   H925      1.0  0.78639  0.77238  0.41766  1.0000
  H   H926      1.0  0.78518  0.57466  0.20982  1.0000
  H   H927      1.0  0.79850  0.53398  0.20797  1.0000
  C   C539      1.0  0.74022  0.74127  0.16182  1.0000
  C   C540      1.0  0.71816  0.74897  0.15253  1.0000
  C   C541      1.0  0.72531  0.77941  0.15113  1.0000
  C   C542      1.0  0.75481  0.80253  0.15847  1.0000
  C   C543      1.0  0.77690  0.79482  0.16771  1.0000
  C   C544      1.0  0.76957  0.76434  0.16990  1.0000
  H   H928      1.0  0.69542  0.73127  0.14611  1.0000
  H   H929      1.0  0.70814  0.78501  0.14378  1.0000
  H   H930      1.0  0.79976  0.81256  0.17357  1.0000
  H   H931      1.0  0.78667  0.75872  0.17745  1.0000
  C   C545      1.0  0.83263  0.67097  0.05544  1.0000
  C   C546      1.0  0.80786  0.67357  0.04427  1.0000
  C   C547      1.0  0.85130  0.66824  0.02984  1.0000
  H   H932      1.0  0.79293  0.67491  0.06384  1.0000
  H   H933      1.0  0.87016  0.66564  0.03843  1.0000
  C   C548      1.0  0.75335  0.49863  0.19475  1.0000
  H   H934      1.0  0.77677  0.51181  0.06594  1.0000
  C   C549      1.0  0.81336  0.77267  0.02827  1.0000
  H   H935      1.0  0.74320  0.69680  0.08624  1.0000
  H   H936      1.0  0.75768  0.73992  0.36948  1.0000
  H   H937      1.0  0.81874  0.77303  0.43636  1.0000
  C   C550      1.0  0.72124  0.98855  0.18266  1.0000
  C   C551      1.0  0.82137  0.67917  0.38463  1.0000
  C   C552      1.0  0.80477  0.65938  0.35692  1.0000
  C   C553      1.0  0.80996  0.66928  0.32116  1.0000
  C   C554      1.0  0.83203  0.69901  0.31298  1.0000
  C   C555      1.0  0.84870  0.71878  0.34068  1.0000
  C   C556      1.0  0.84329  0.70896  0.37642  1.0000
  H   H938      1.0  0.78775  0.63630  0.36312  1.0000
  H   H939      1.0  0.79706  0.65388  0.29996  1.0000
  H   H940      1.0  0.86563  0.74187  0.33442  1.0000
  H   H941      1.0  0.85612  0.72443  0.39752  1.0000
  C   C557      1.0  0.75129  0.71585  0.37247  1.0000
  N   N39       1.0  0.70326  0.95060  0.28943  1.0000
  C   C558      1.0  0.76483  0.53764  0.10339  1.0000
  H   H942      1.0  0.74375  0.75542  0.44581  1.0000
  C   C559      1.0  0.82363  0.59049  0.12905  1.0000
  H   H943      1.0  0.73692  0.49309  0.26998  1.0000
  H   H944      1.0  0.78650  0.73380  0.10824  1.0000
  C   C560      1.0  0.77291  0.56224  0.04493  1.0000
  H   H945      1.0  0.97301  0.72032  0.34564  1.0000
  H   H946      1.0  0.74917  0.54421  0.03967  1.0000
  C   C561      1.0  0.96656  0.74109  0.49160  1.0000
  H   H947      1.0  0.77455  0.95543  0.29289  1.0000
  H   H948      1.0  0.76895  0.58842  0.12881  1.0000
  H   H949      1.0  0.81616  0.60434  0.14390  1.0000
  H   H950      1.0  0.81649  0.56903  0.14357  1.0000
  H   H951      1.0  0.84883  0.60338  0.12927  1.0000
  C   C562      1.0  0.83178  0.77075  0.10538  1.0000
  H   H952      1.0  0.74162  0.92956  0.31774  1.0000
  C   C563      1.0  0.74936  0.94224  0.29222  1.0000
  H   H953      1.0  0.76317  0.82954  0.27041  1.0000
  N   N40       1.0  0.70309  0.77479  0.26290  1.0000
  C   C564      1.0  0.72850  0.76870  0.25400  1.0000
  C   C565      1.0  0.71466  0.80792  0.25588  1.0000
  H   H954      1.0  0.77160  0.51752  0.32113  1.0000
  C   C566      1.0  0.68945  0.92759  0.25995  1.0000
  C   C567      1.0  0.72032  0.73520  0.25454  1.0000
  C   C568      1.0  0.74249  0.83037  0.27777  1.0000
  H   H955      1.0  0.94198  0.76114  0.33369  1.0000
  C   C569      1.0  0.65468  0.91251  0.25565  1.0000
  H   H956      1.0  0.73789  0.77782  0.22709  1.0000
  H   H957      1.0  0.74782  0.78055  0.27276  1.0000
  H   H958      1.0  0.69687  0.81395  0.26094  1.0000
  H   H959      1.0  0.72074  0.81328  0.22707  1.0000
  H   H960      1.0  0.69403  0.90871  0.26387  1.0000
  H   H961      1.0  0.71819  0.55617  0.11806  1.0000
  H   H962      1.0  0.74012  0.52403  0.09756  1.0000
  H   H963      1.0  0.71523  0.77714  0.31868  1.0000
  H   H964      1.0  0.90062  0.71578  0.30771  1.0000
  H   H965      1.0  0.71372  0.72502  0.28155  1.0000
  C   C570      1.0  0.73711  0.70787  0.06487  1.0000
  H   H966      1.0  0.74749  0.85369  0.27156  1.0000
  H   H967      1.0  0.73828  0.82712  0.30693  1.0000
  H   H968      1.0  0.75937  0.67565  0.46803  1.0000
  H   H969      1.0  0.74082  0.63939  0.44756  1.0000
  H   H970      1.0  0.72521  0.70254  0.45912  1.0000
  C   C571      1.0  0.74064  0.66098  0.44983  1.0000
  C   C572      1.0  0.72356  0.49191  0.18837  1.0000
  H   H971      1.0  0.74555  0.97546  0.26062  1.0000
  C   C573      1.0  0.72551  0.70807  0.43034  1.0000
  H   H972      1.0  0.70327  0.69038  0.41950  1.0000
  C   C574      1.0  0.74474  0.67512  0.41227  1.0000
  C   C575      1.0  0.78122  0.72727  0.42954  1.0000
  C   C576      1.0  0.72525  0.73805  0.42939  1.0000
  H   H973      1.0  0.80985  0.76295  0.39070  1.0000
  C   C577      1.0  0.76511  0.58546  0.09950  1.0000
  C   C578      1.0  0.74722  0.51037  0.32373  1.0000
  H   H974      1.0  0.71853  0.65547  0.46193  1.0000
  N   N41       1.0  0.75126  0.70739  0.41112  1.0000
  C   C579      1.0  0.79962  0.76065  0.41750  1.0000
  H   H975      1.0  0.72400  0.66007  0.39659  1.0000
  H   H976      1.0  0.76345  0.67319  0.39957  1.0000
  H   H977      1.0  0.79691  0.71812  0.42627  1.0000
  H   H978      1.0  0.72573  0.74657  0.40206  1.0000
  H   H979      1.0  0.75565  0.73365  0.01636  1.0000
  C   C580      1.0  0.69465  0.76632  0.30158  1.0000
  C   C581      1.0  0.67561  0.84434  0.36277  1.0000
  C   C582      1.0  0.70405  0.95278  0.35892  1.0000
  H   H980      1.0  0.82506  0.77990  0.12827  1.0000
  H   H981      1.0  0.89007  0.69894  0.39959  1.0000
  H   H982      1.0  0.72799  0.70275  0.36117  1.0000
  H   H983      1.0  0.79911  0.79636  0.08398  1.0000
  C   C583      1.0  0.77247  0.71077  0.34757  1.0000
  S   S171      1.0  0.68339  0.89755  0.16921  1.0000
  H   H984      1.0  0.79505  0.71894  0.35961  1.0000
  H   H985      1.0  0.72159  0.55810  0.07019  1.0000
  H   H986      1.0  0.76590  0.54074  0.13268  1.0000
  S   S172      1.0  0.68521  0.82188  0.50238  1.0000
  H   H987      1.0  0.76250  0.68651  0.34076  1.0000
  H   H988      1.0  0.74088  0.76603  0.03827  1.0000
  H   H989      1.0  0.71443  0.95157  0.02227  1.0000
  C   C584      1.0  0.77863  0.51755  0.09466  1.0000
  H   H990      1.0  0.69997  0.93799  0.23374  1.0000
  H   H991      1.0  0.82428  0.57491  0.07582  1.0000
  C   C585      1.0  0.81274  0.58553  0.08992  1.0000
  H   H992      1.0  0.91038  0.72310  0.43680  1.0000
  H   H993      1.0  0.77667  0.60913  0.08922  1.0000
  H   H994      1.0  0.70072  0.93682  0.38106  1.0000
  H   H995      1.0  0.70530  0.96587  0.17405  1.0000
  N   N42       1.0  0.77887  0.56771  0.08443  1.0000
  H   H996      1.0  0.77664  0.79862  0.02464  1.0000
  C   C586      1.0  0.80353  0.74536  0.08658  1.0000
  H   H997      1.0  0.69257  0.96565  0.36621  1.0000
  C   C587      1.0  0.73043  0.57118  0.09502  1.0000
  H   H998      1.0  0.78711  0.55348  0.03320  1.0000
  C   C588      1.0  0.83194  0.75833  0.01466  1.0000
  H   H999      1.0  0.68766  0.84583  0.03803  1.0000
  H   H1000     1.0  0.68470  0.75202  0.21246  1.0000
  H   H1001     1.0  0.97819  0.76851  0.42347  1.0000
  H   H1002     1.0  0.80868  0.72767  0.07756  1.0000
  H   H1003     1.0  0.82243  0.60846  0.07787  1.0000
  C   C589      1.0  0.76443  0.72757  0.04032  1.0000
  H   H1004     1.0  0.69141  0.91324  0.32650  1.0000
  H   H1005     1.0  0.69291  0.50950  0.18463  1.0000
  H   H1006     1.0  0.71909  0.68938  0.04885  1.0000
  H   H1007     1.0  0.82962  0.79614  0.03683  1.0000
  C   C590      1.0  0.93884  0.71297  0.40086  1.0000
  H   H1008     1.0  0.70234  0.72123  0.23508  1.0000
  Fe  Fe88      1.0  0.65621  0.77157  0.50437  1.0000
  H   H1009     1.0  0.76468  0.76434  0.09640  1.0000
  H   H1010     1.0  0.91232  0.74249  0.36504  1.0000
  H   H1011     1.0  0.67134  0.96704  0.29329  1.0000
  C   C591      1.0  0.77963  0.77537  0.07306  1.0000
  H   H1012     1.0  0.73957  0.50400  0.35176  1.0000
  H   H1013     1.0  0.74069  0.73390  0.24653  1.0000
  C   C592      1.0  0.73724  0.96425  0.28700  1.0000
  C   C593      1.0  0.77913  0.59004  0.02227  1.0000
  H   H1014     1.0  0.75639  0.80044  0.06264  1.0000
  H   H1015     1.0  0.90980  0.73486  0.03611  1.0000
  C   C594      1.0  0.67656  0.75558  0.23864  1.0000
  H   H1016     1.0  0.69361  0.97838  0.25375  1.0000
  H   H1017     1.0  0.94301  0.72350  0.49175  1.0000
  H   H1018     1.0  0.72455  0.58936  0.09355  1.0000
  H   H1019     1.0  0.95453  0.71473  0.42252  1.0000
  Fe  Fe89      1.0  0.89558  0.74944  0.50514  1.0000
  C   C595      1.0  0.69053  0.93453  0.32449  1.0000
  H   H1020     1.0  0.84588  0.75622  0.03597  1.0000
  H   H1021     1.0  0.94365  0.76711  0.41628  1.0000
  H   H1022     1.0  0.72688  0.72055  0.07677  1.0000
  H   H1023     1.0  0.66684  0.78730  0.20960  1.0000
  C   C596      1.0  0.93086  0.74083  0.35132  1.0000
  H   H1024     1.0  0.66216  0.73254  0.25012  1.0000
  S   S173      1.0  0.94605  0.78205  0.49705  1.0000
  H   H1025     1.0  0.68470  0.74159  0.30565  1.0000
  H   H1026     1.0  0.93333  0.71160  0.30964  1.0000
  H   H1027     1.0  0.90231  0.69176  0.34108  1.0000
  C   C597      1.0  0.90849  0.70493  0.41912  1.0000
  H   H1028     1.0  0.76379  0.59881  0.02937  1.0000
  H   H1029     1.0  0.72882  0.96818  0.35778  1.0000
  H   H1030     1.0  0.74336  0.92648  0.26949  1.0000
  H   H1031     1.0  0.76591  0.49594  0.10978  1.0000
  H   H1032     1.0  0.80301  0.60836  0.02444  1.0000
  C   C598      1.0  0.69459  0.97456  0.28294  1.0000
  H   H1033     1.0  0.77242  0.71232  0.03020  1.0000
  S   S174      1.0  0.87465  0.69923  0.50644  1.0000
  C   C599      1.0  0.97417  0.77134  0.49473  1.0000
  N   N43       1.0  0.95314  0.74114  0.37799  1.0000
  H   H1034     1.0  0.66581  0.92641  0.32623  1.0000
  C   C600      1.0  0.97969  0.74245  0.35830  1.0000
  H   H1035     1.0  0.68000  0.79870  0.31644  1.0000
  H   H1036     1.0  0.73455  0.49134  0.01490  1.0000
  C   C601      1.0  0.66048  0.86664  0.02916  1.0000
  C   C602      1.0  0.65933  0.83917  0.28996  1.0000
  C   C603      1.0  0.67175  0.77422  0.31781  1.0000
  H   H1037     1.0  0.98348  0.71019  0.48452  1.0000
  Fe  Fe90      1.0  0.65795  0.81937  0.45384  1.0000
  S   S175      1.0  0.66236  0.87948  0.07330  1.0000
  C   C604      1.0  0.96325  0.76821  0.40175  1.0000
  H   H1038     1.0  0.66865  0.76807  0.34662  1.0000
  H   H1039     1.0  0.74655  0.98860  0.11042  1.0000
  H   H1040     1.0  0.90400  0.76627  0.03028  1.0000
  C   C605      1.0  0.65536  0.76791  0.22840  1.0000
  C   C606      1.0  0.90685  0.74897  0.01565  1.0000
  C   C607      1.0  0.97906  0.79938  0.38299  1.0000
  H   H1041     1.0  0.96222  0.80615  0.37530  1.0000
  C   C608      1.0  0.80275  0.67496  0.00762  1.0000
  H   H1042     1.0  0.95536  0.77370  0.00836  1.0000
  H   H1043     1.0  0.73005  0.79744  0.50658  1.0000
  Fe  Fe91      1.0  0.84956  0.70103  0.55505  1.0000
  S   S176      1.0  0.87247  0.75166  0.55536  1.0000
  S   S177      1.0  0.85293  0.67336  0.60058  1.0000
  H   H1044     1.0  0.78945  0.60042  0.63980  1.0000
  H   H1045     1.0  0.73302  0.49621  0.91270  1.0000
  H   H1046     1.0  0.83530  0.58018  0.77556  1.0000
  H   H1047     1.0  0.84788  0.77308  0.99353  1.0000
  H   H1048     1.0  0.67501  0.97240  0.90752  1.0000
  H   H1049     1.0  0.71967  0.89462  0.92843  1.0000
  H   H1050     1.0  0.95140  0.72394  0.00103  1.0000
  C   C609      1.0  0.73594  0.78023  0.51210  1.0000
  H   H1051     1.0  0.80207  0.54625  0.76335  1.0000
  H   H1052     1.0  0.70361  0.70505  0.52915  1.0000
  C   C610      1.0  0.81635  0.57049  0.75612  1.0000
  H   H1053     1.0  0.93572  0.74530  0.69346  1.0000
  C   C611      1.0  0.78982  0.58675  0.69491  1.0000
  H   H1054     1.0  0.77675  0.51684  0.97222  1.0000
  S   S178      1.0  0.80920  0.69514  0.52351  1.0000
  Fe  Fe92      1.0  0.84182  0.66711  0.81021  1.0000
  S   S179      1.0  0.86827  0.64271  0.80919  1.0000
  S   S180      1.0  0.82529  0.68333  0.76364  1.0000
  Fe  Fe93      1.0  0.83805  0.66584  0.89176  1.0000
  S   S181      1.0  0.86410  0.64134  0.89691  1.0000
  S   S182      1.0  0.81707  0.67899  0.93670  1.0000
  Fe  Fe94      1.0  0.89490  0.67366  0.85437  1.0000
  S   S183      1.0  0.94605  0.69388  0.86042  1.0000
  Fe  Fe95      1.0  0.83511  0.61263  0.85154  1.0000
  S   S184      1.0  0.81577  0.56162  0.85207  1.0000
  S   S185      1.0  0.87065  0.70016  0.85244  1.0000
  S   S186      1.0  0.80696  0.63499  0.84938  1.0000
  N   N44       1.0  0.95176  0.75361  0.61831  1.0000
  H   H1055     1.0  0.74358  0.59626  0.71716  1.0000
  C   C612      1.0  0.70417  0.95185  0.99619  1.0000
  C   C613      1.0  0.77728  0.53378  0.84524  1.0000
  C   C614      1.0  0.75425  0.54109  0.84323  1.0000
  C   C615      1.0  0.72395  0.51819  0.83772  1.0000
  H   H1056     1.0  0.71216  0.94911  0.81332  1.0000
  H   H1057     1.0  0.95463  0.82285  0.60197  1.0000
  H   H1058     1.0  0.75971  0.56431  0.84611  1.0000
  H   H1059     1.0  0.70626  0.52403  0.83618  1.0000
  C   C616      1.0  0.72166  0.90604  0.90252  1.0000
  C   C617      1.0  0.96675  0.75330  0.83982  1.0000
  H   H1060     1.0  0.95199  0.70477  0.55760  1.0000
  H   H1061     1.0  0.94338  0.74647  0.83400  1.0000
  H   H1062     1.0  0.65666  0.74509  0.59192  1.0000
  C   C618      1.0  0.96754  0.76205  0.94425  1.0000
  C   C619      1.0  0.93723  0.70773  0.57713  1.0000
  H   H1063     1.0  0.68319  0.82796  0.97539  1.0000
  N   N45       1.0  0.71735  0.95056  0.92905  1.0000
  H   H1064     1.0  0.68928  0.82010  0.70138  1.0000
  C   C620      1.0  0.94756  0.74171  0.58081  1.0000
  H   H1065     1.0  0.70958  0.97546  0.99256  1.0000
  H   H1066     1.0  0.68585  0.93460  0.88462  1.0000
  N   N46       1.0  0.93668  0.74532  0.96182  1.0000
  H   H1067     1.0  0.74337  0.54079  0.76283  1.0000
  H   H1068     1.0  0.76143  0.53256  0.72794  1.0000
  C   C621      1.0  0.82201  0.67326  0.98201  1.0000
  H   H1069     1.0  0.96362  0.72401  0.64753  1.0000
  H   H1070     1.0  0.78730  0.49751  0.84350  1.0000
  H   H1071     1.0  0.86008  0.66666  0.97359  1.0000
  C   C622      1.0  0.84633  0.67772  0.64581  1.0000
  C   C623      1.0  0.85620  0.66506  0.67226  1.0000
  C   C624      1.0  0.85077  0.66743  0.70862  1.0000
  C   C625      1.0  0.83482  0.68194  0.71865  1.0000
  C   C626      1.0  0.82519  0.69482  0.69221  1.0000
  C   C627      1.0  0.83118  0.69299  0.65589  1.0000
  H   H1072     1.0  0.86804  0.65329  0.66455  1.0000
  H   H1073     1.0  0.85851  0.65766  0.72877  1.0000
  H   H1074     1.0  0.81287  0.70611  0.69985  1.0000
  H   H1075     1.0  0.82349  0.70282  0.63570  1.0000
  H   H1076     1.0  0.74046  0.94578  0.97554  1.0000
  C   C628      1.0  0.76963  0.50339  0.84204  1.0000
  C   C629      1.0  0.91174  0.73572  0.93443  1.0000
  C   C630      1.0  0.76815  0.50132  0.94904  1.0000
  H   H1077     1.0  0.81495  0.61209  0.75906  1.0000
  H   H1078     1.0  0.80212  0.77565  0.00435  1.0000
  H   H1079     1.0  0.91817  0.78090  0.91973  1.0000
  H   H1080     1.0  0.91321  0.71307  0.63943  1.0000
  H   H1081     1.0  0.77836  0.62389  0.73586  1.0000
  C   C631      1.0  0.73230  0.98443  0.92533  1.0000
  C   C632      1.0  0.75190  0.73585  0.52555  1.0000
  H   H1082     1.0  0.66318  0.88894  0.64341  1.0000
  H   H1083     1.0  0.79003  0.56660  0.68402  1.0000
  H   H1084     1.0  0.72561  0.57157  0.77820  1.0000
  H   H1085     1.0  0.91175  0.70398  0.99275  1.0000
  C   C633      1.0  0.79833  0.58737  0.75927  1.0000
  C   C634      1.0  0.66649  0.95091  0.92267  1.0000
  H   H1086     1.0  0.73868  0.95009  0.87900  1.0000
  N   N47       1.0  0.71983  0.81120  0.62075  1.0000
  C   C635      1.0  0.74342  0.83579  0.59703  1.0000
  C   C636      1.0  0.73406  0.79383  0.63597  1.0000
  C   C637      1.0  0.71225  0.82629  0.65045  1.0000
  C   C638      1.0  0.69232  0.79191  0.59812  1.0000
  C   C639      1.0  0.73592  0.86000  0.58381  1.0000
  C   C640      1.0  0.74261  0.77690  0.60851  1.0000
  H   H1087     1.0  0.82659  0.57267  0.72936  1.0000
  H   H1088     1.0  0.76570  0.84813  0.61093  1.0000
  H   H1089     1.0  0.74767  0.82606  0.57260  1.0000
  H   H1090     1.0  0.71928  0.77679  0.65602  1.0000
  H   H1091     1.0  0.75500  0.80930  0.65107  1.0000
  H   H1092     1.0  0.73326  0.84644  0.66033  1.0000
  H   H1093     1.0  0.92153  0.78909  0.61599  1.0000
  H   H1094     1.0  0.69892  0.78694  0.57172  1.0000
  H   H1095     1.0  0.75354  0.87510  0.56431  1.0000
  H   H1096     1.0  0.71389  0.85002  0.56991  1.0000
  H   H1097     1.0  0.73605  0.87450  0.60588  1.0000
  H   H1098     1.0  0.72274  0.76064  0.59274  1.0000
  H   H1099     1.0  0.76111  0.79260  0.59040  1.0000
  H   H1100     1.0  0.75120  0.76361  0.62283  1.0000
  H   H1101     1.0  0.93821  0.79175  0.57231  1.0000
  C   C641      1.0  0.76055  0.59959  0.73783  1.0000
  C   C642      1.0  0.97608  0.79226  0.92584  1.0000
  H   H1102     1.0  0.96096  0.70427  0.94505  1.0000
  H   H1103     1.0  0.69928  0.89529  0.88916  1.0000
  H   H1104     1.0  0.70406  0.91541  0.96899  1.0000
  S   S187      1.0  0.81379  0.77679  0.52182  1.0000
  C   C643      1.0  0.97405  0.74797  0.63867  1.0000
  C   C644      1.0  0.71803  0.97184  0.82072  1.0000
  H   H1105     1.0  0.73368  0.60969  0.77439  1.0000
  C   C645      1.0  0.84572  0.66890  0.99318  1.0000
  H   H1106     1.0  0.69758  0.83512  0.64041  1.0000
  H   H1107     1.0  0.78230  0.51468  0.92587  1.0000
  H   H1108     1.0  0.67925  0.93687  0.99865  1.0000
  H   H1109     1.0  0.93779  0.69653  0.60217  1.0000
  C   C646      1.0  0.97413  0.73201  0.85245  1.0000
  H   H1110     1.0  0.66542  0.95500  0.95139  1.0000
  H   H1111     1.0  0.93121  0.67415  0.96970  1.0000
  H   H1112     1.0  0.75291  0.58407  0.66055  1.0000
  H   H1113     1.0  0.68065  0.80462  0.59076  1.0000
  H   H1114     1.0  0.71235  0.80303  0.70012  1.0000
  H   H1115     1.0  0.93037  0.74512  0.56647  1.0000
  C   C647      1.0  0.93416  0.71752  0.97949  1.0000
  C   C648      1.0  0.77747  0.59881  0.66529  1.0000
  C   C649      1.0  0.72290  0.53527  0.71105  1.0000
  C   C650      1.0  0.75121  0.54674  0.73465  1.0000
  H   H1116     1.0  0.70772  0.51074  0.71632  1.0000
  H   H1117     1.0  0.76006  0.60245  0.79669  1.0000
  H   H1118     1.0  0.88655  0.75898  0.94926  1.0000
  C   C651      1.0  0.90000  0.75783  0.92666  1.0000
  C   C652      1.0  0.69652  0.80721  0.68402  1.0000
  H   H1119     1.0  0.92661  0.77281  0.67533  1.0000
  H   H1120     1.0  0.91362  0.69513  0.56697  1.0000
  N   N48       1.0  0.77436  0.57987  0.73121  1.0000
  H   H1121     1.0  0.72885  0.53772  0.68233  1.0000
  H   H1122     1.0  0.70960  0.54647  0.71726  1.0000
  H   H1123     1.0  0.78836  0.58215  0.78653  1.0000
  H   H1124     1.0  0.97470  0.80867  0.94382  1.0000
  C   C653      1.0  0.74416  0.59513  0.77396  1.0000
  C   C654      1.0  0.96424  0.78731  0.61661  1.0000
  H   H1125     1.0  0.88432  0.74936  0.90355  1.0000
  H   H1126     1.0  0.78233  0.62208  0.67139  1.0000
  H   H1127     1.0  0.73002  0.50788  0.95623  1.0000
  H   H1128     1.0  0.98377  0.80000  0.82536  1.0000
  C   C655      1.0  0.67225  0.84056  0.98325  1.0000
  C   C656      1.0  0.68548  0.93576  0.91433  1.0000
  H   H1129     1.0  0.96245  0.78867  0.90142  1.0000
  C   C657      1.0  0.69505  0.97853  0.82784  1.0000
  H   H1130     1.0  0.73685  0.90168  0.88534  1.0000
  H   H1131     1.0  0.91901  0.73075  0.90844  1.0000
  H   H1132     1.0  0.67209  0.91190  0.92342  1.0000
  Fe  Fe96      1.0  0.83409  0.74588  0.51984  1.0000
  C   C658      1.0  0.73535  0.94052  0.90651  1.0000
  C   C659      1.0  0.92074  0.74881  0.67501  1.0000
  H   H1133     1.0  0.67590  0.78561  0.67796  1.0000
  H   H1134     1.0  0.93546  0.78517  0.97980  1.0000
  H   H1135     1.0  0.77510  0.58355  0.99367  1.0000
  H   H1136     1.0  0.90366  0.73884  0.62093  1.0000
  S   S188      1.0  0.66162  0.87433  0.82119  1.0000
  H   H1137     1.0  0.89728  0.73544  0.68581  1.0000
  S   S189      1.0  0.65255  0.83322  0.91389  1.0000
  H   H1138     1.0  0.81420  0.60439  0.69698  1.0000
  C   C660      1.0  0.65285  0.86529  0.65059  1.0000
  C   C661      1.0  0.93496  0.76477  0.99090  1.0000
  H   H1139     1.0  0.75785  0.71866  0.53099  1.0000
  C   C662      1.0  0.94304  0.79780  0.60084  1.0000
  H   H1140     1.0  0.96867  0.75498  0.56489  1.0000
  C   C663      1.0  0.93732  0.69522  0.95465  1.0000
  H   H1141     1.0  0.98526  0.79844  0.60004  1.0000
  H   H1142     1.0  0.92175  0.68872  0.93160  1.0000
  C   C664      1.0  0.71738  0.94048  0.96698  1.0000
  H   H1143     1.0  0.78391  0.67752  0.99892  1.0000
  C   C665      1.0  0.92145  0.73768  0.63700  1.0000
  H   H1144     1.0  0.89127  0.71407  0.94229  1.0000
  H   H1145     1.0  0.81729  0.73601  0.00230  1.0000
  S   S190      1.0  0.65860  0.85593  0.57956  1.0000
  H   H1146     1.0  0.75851  0.94909  0.91750  1.0000
  H   H1147     1.0  0.67589  0.75048  0.63236  1.0000
  C   C666      1.0  0.73458  0.49164  0.94152  1.0000
  C   C667      1.0  0.65563  0.84667  0.95796  1.0000
  C   C668      1.0  0.66750  0.76154  0.61397  1.0000
  H   H1148     1.0  0.88563  0.73456  0.00077  1.0000
  C   C669      1.0  0.72118  0.72823  0.52459  1.0000
  S   S191      1.0  0.65610  0.95068  0.82559  1.0000
  C   C670      1.0  0.77481  0.76579  0.52004  1.0000
  H   H1149     1.0  0.96977  0.74811  0.92306  1.0000
  H   H1150     1.0  0.98078  0.76108  0.66396  1.0000
  H   H1151     1.0  0.97126  0.79768  0.64351  1.0000
  C   C671      1.0  0.71303  0.75031  0.51769  1.0000
  S   S192      1.0  0.67409  0.73949  0.51635  1.0000
  C   C672      1.0  0.76665  0.78791  0.51346  1.0000
  H   H1152     1.0  0.78423  0.81114  0.50918  1.0000
