data_image0
_chemical_formula_structural       NHSCSCH2FeCFeS2FeHFeSHSFeS2FeS2FeH2CSHSC7H4SC5H4CHCH5C9H6FeCH6CHC2H5CH2C2NC5H10FeH4CNHCH3C4HCH2CHC2H3CH7CH7CHCH3CH3CNCSH2C3H2C3HCHCHNCHCH4C2H7C2H3CSH2CH5CHCHCH4CHCH2CH3CH2CFeHS2HCHSHFeS2FeHFeS3FeS2FeH2FeHFeS3CHC6H4C6H2SCH2SH8C6H5CHCH2CH2CH3CHCH3CNHCH6SHCH2SC2H2CNSCH4C2H4NH2C2HCH3C2HC2H2C2H7CSHCH5C2N2C8H11CH5CH2NH2SHCH2CH2C2H3NH2CH3C2H2CH6NH2FeCH4C2H2CH3C7H3CHCSH6FeHC4H4C2HFeS2FeS2FeSFeS3FeS2FeSHFeSFeS3H2C2H2C5H4C4HCH4C4HCHC6H5SHCHC6H4CHSC2HCH2C2H2CH2NCHCH2FeH4SH2NHC2NH4CH2CH2CH4CH6CH2CH2CH2CHCH5C2HCNH2C2H7CH6C2HC2HCHCH3CH4CH3CH3CSCH3CH2C2H3CH3C3HFeS2FeS2FeSFeS3FeS2FeS2FeSFeS3HC2HCH3C3H4C6H4C3H4C6H4CHCH4C4H9C2HCHC2NH2CHNHCH6CHC2H5CH2SH4NH2C4HC4HCNH5CH2CHCH6CHC2H5CHCH8C3NCHNCHC2H3SH2C2H2NC8H14CH2CH5CH3CH2CHC2H2C4HCH4FeHCH6CH3SH2FeH3FeS2FeH3S2FeS2FeS2FeSFeS3CHCHSC3SHCHCH2C2H2C4H2CH2C6H4C6H8CHC3HC8H6C2NC3H8CH3FeH3NHCH3C3HNC8H24C2HSHCHCHSH4CHNFeH3CH3CHNHNHCHCH2CH2CNCH2CH2CH3C4H3CH7CH7CHCSHSCH5CHCHSH2CH3FeS2FeSHCS2FeS2FeS2FeSFeS3HC3H3CH4C4H2C4SFeH4C6H4C6H8CH6C6H4CH2CH2C2H4NCH3NHCHCH3FeH3CH2C2H2CHCHSHCH5C2H2CH3C2HFeH6CNC2H6CNHCHCHNH2SCH7NCH2C2HC3SCH2CH9SCSH2C2H5CH2CH2CH2C5SH2CH4CHFeS2FeS2FeSFeS3FeSC2HCFeSHCSC2HC3HC2H2CHC3H2CH2CHC6H6CHC3HNH2CHC2H2CHCHC2HSCH9FeHC2H4CHCH2C2HS2H3NHCH2C3H4SH2CH5CHCH2CH9C3HNH2C2H2CNC6HCH5CHCFeH8C2HCSH2C2HCHCH5SHSH14SHFeS2FeS2FeCFeS3FeS2FeS2FeSFeHS2H2C6H4C6H4C6H4C2H2C2HFeH2CH6CHCNH5SCH5CH2C2HC3H2C2NCFeH6SCH4CH6C2H2CH2CSH3C2HC3H2C4SNC8H20CSHCH3C2H3SCHCHNC2H6CHNHCH7SHCHSFeSHSHSHFeS2FeSFeSCSFeS2FeSHFeSFeS3CH2C6H4CHC4H4FeC8H4C2NHFeC2H4S2HC2H2SCHCHCHNHCSHC2HCH9CHCH3CH4NC6H9SCHFeH5C3HSCH2NC3H2CH2NHCH2C2H2NH4C2H2CH4C3H3C3H2C2H3CH2CH3CH8CSH2CH4CH4CH5CH5C2HCHSFeSHSC2HFeS2C2FeSHSFeS2FeSHFeSFeS3CH2C6H7C4H5NC6H5CH4CNC3HC3H8CH2CH2NH4CHC2SHCFeCH2FeH5CH2FeH2SC2HCHCHCH2CH3SHFeC2HCHCHCH2CSHC2H2SH10C2H2C2H3CH5C2H3CH6CH2SHCHNH2C2HSCHFeSH2SFeS2FeS2FeSFeS3HFeNFeS2H2FeS3HCHC2H3C6H4C2HC3H5C2H2SHC6H5CHSH7SH3NHC9H8CH6FeHC2H4CHCH3CH2C4NC2HC2H4CH6C3H2NCHC2H4SC2H4CH2CH3CSNC8H14SH6CH2CFeCH5SH3FeSCHSFeS2FeS2FeSFeS3H3FeS2HSFeSCSC3HCH2C7H4C6HCH2C2HCH3C6H3C2HCHSH2CH5C2HCH4NH3CH5C5HNCH3CSHNH3FeCH2CH2SH2C2H3CH2CHSHCH4NC4HCHCH8FeH5CHCH3NC2HCH2SH7CNC2SHCHCH5CHC2H10CSHCH3CH2NHC2HCH2FeHCHFeH6C2H4CH2CH2CH2CH5SH2SHC2HCHCH5SC2HCFeH2CH2CH2CFeSHFeSHFeHFeSCSFeCSFeS2FeS2FeSFeHS2CH5C6H2CSC6H8C2HSCH5SCHNC8HCH9C2H8CH5CH2CH2FeH2NH2CSHC2H2CHCH2CHC3HNC4HC2H7CHCH8C4SCHCSFeCH2CSCH2SH3SH2SHC3HCH3CHCNC2HCHCH6CH2CH2FeSH2SHFeCFeSNSFeHSFeS2FeS2FeSFeHS3CH3SC5H4C7H6CH2CHC2HCH5SHC2H2CH3C2HCSH2C3HCSH2CH3C2HCNH8CHCSFe2C2H10C2NSHCH4FeHCH2C2HCHCH2CHCH5CHSCH6NC5HC2H10C2H3CHC2HCHCH5C3FeSHFeS2FeSFeS3CSHFeS2FeH2SHFeS3H2C2HCH2CH2C3HCH2C6H4C6H9S2CNC8H8C2H7CHSFeSC2NCH2C3SCH8CHC2H5C2H3SNH2SH2CHCH2SCHNHCH5C2HNFeCH8SH6CH6CH4CHC2SCH4C3FeH2CHFeSH4CFeHC4HC2H5CHCH2C2H5CH4C2HCH2CH4CHC2H2FeS2FeS2FeSFeS3FeS2FeS2FeS2FeHFeS3HC3H4C4H6C6H4C6H4C3H6NH7CH3CSC2H4CHCNHC4HC2H9CH2C3H6C2H7CH6CH3C4H3CH2NHCHC2SH2CNCHCH7CH3CHSHC2HFeH2SHCH2CH3C4H2CH2CHSHNHCH4C2H3NCH2CH5C2FeC3H5CH3CHCHCHFeS2FeH2CSH3FeS2HFeCHSFeS2FeS2FeSFeS3C6H5CHC7H3C2H2CH2SH3NC2H6C2H2CH8SH2C2H2FeHC2H5SH2C3HCH2CH2C2H2FeNHCHCH2SFeHC3HCHCH6C2HNCHCHCHCHCHCHNC2HC2H2C2HCH7CHCH2SNHCH4C4H8CHCH3SH7C4HC5HC2H4C2HCH2C2NHSH11CHFeSCFeS2FeH3S2FeCFeS2Fe2CS2FeS2FeS2FeSFeS3C6H5CHCHC3HCH6CH4CHSHC3H2CNC3HCH2CH2C2HC7H3C4H2CH6SH6CNH3NH3NC8H25SH2CH2CHCH3FeH5CSCHC2H6CHCH2C2H6C4H2NCHCHCH5CHCHCH2CHC2H5CH4CHS3FeS2FeS2FeSFeS3FeS2HS2FeHFeS3FeSFeS2FeSCHS2C2H5CH2CH4C3H4CHC6H9CH10NCHCNC2H3C2HC2H4C2H2CH3CH2CHC2FeSHCH3CHNH2CHC2H4CH2NHCH2CHSH2C2HCHC2HSH6CH3CH2CFeCHCH3C3HC3H3CH2NCHCH4CH2CH7CHCFeSHFeS2FeHFeS3FeS2HSNFeCFeS2HCHFeS2FeSHCS2C3NHSHCHC2H2C4H3CHCHC6H8NCH3C3H6CH2CHCSH2CH7C3H2CH4CH4CHSH2C2H3SCHCH2SH3C3H7CH3CHFeH2SHC2H6CH5CH2CNH4CHCHCHNH2CH2FeC2HC2SH4CH5C3H2CH2C3HC2H2CHCHSHCFeCFeS2FeSNFeSFeS2CFeS2CSHFeSFeS2CFeS2FeH2FeH2SC3H2C2H6CH4C6H4C2H2SCH4CH3CHC6H4SH2CH3CHNC3HCSCH7CH3CHNH3CH2SCH2CHCHCHCH3C3H2CS2H3CHCH2C2HNC8H9CH11NC2H9C5HCFeHCH3FeC2H2CH4C3H2CH2CHCH3SH14FeS2FeSHFeSFeS3FeS2H2CFeS2HSCFeS2HC2FeHNSHC2SH3C4H4CHC7H4C2HNC2H3CH2CHCHC2HSC2H4CHCHCSH3C2H2CH2NC8H15CH4FeCHCH6CHFeC3H4CH3C2H5CH3SH3FeHCH2CH3FeHCH2CNCHSHCH3C2HCH2CHC3H2NHCH4C2H3CHCH2CH6CH4CH2CH3CH2CFeH2FeSHFeSH2SCHCFeS2FeH2SHFeS2FeS2FeSFeS3HCH4C7H4C6H4C2NH3C2SH3C2H4SHNC5HC2SFeH9CH8C2H10C2H2C6HC2H2CH9FeS2CHNCHC2H2CH2C2HNSH4CNH2CH3CHCHCH2C2SH4FeHCHC2SHSCH2FeH2FeSHFeSCHS2H2FeS2CH2SHFeS2FeS2FeHFeS3H2C3H2C6H4C6H4C2H2CHC2FeSCHSH3CHC2H5NHNH3CHCHC2HC2H2NCSH10C5H2CH2CH2C2HCFeH2CHC2H2SH3SCH4CH2SH3CHNFeCH5C2HC2H4SH6CH3C3HNH
_chemical_formula_sum              "N128 H3072 S512 C1792 Fe256"
_cell_length_a       71.7577
_cell_length_b       69.9285
_cell_length_c       34.4587
_cell_angle_alpha    90.0758
_cell_angle_beta     91.1166
_cell_angle_gamma    88.296

_space_group_name_H-M_alt    "P 1"
_space_group_IT_number       1

loop_
  _space_group_symop_operation_xyz
  'x, y, z'

loop_
  _atom_site_type_symbol
  _atom_site_label
  _atom_site_symmetry_multiplicity
  _atom_site_fract_x
  _atom_site_fract_y
  _atom_site_fract_z
  _atom_site_occupancy
  N   N1        1.0  0.04941  0.01559  0.15264  1.0000
  H   H1        1.0  0.97126  0.08723  0.06532  1.0000
  S   S1        1.0  0.20999  0.20669  0.50129  1.0000
  C   C1        1.0  0.19778  0.22360  0.47210  1.0000
  S   S2        1.0  0.26878  0.17828  0.27237  1.0000
  C   C2        1.0  0.28396  0.12720  0.24975  1.0000
  H   H2        1.0  0.05615  0.13622  0.44521  1.0000
  H   H3        1.0  0.27852  0.24414  0.27872  1.0000
  Fe  Fe1       1.0  0.97379  0.06446  0.16683  1.0000
  C   C3        1.0  0.30264  0.10498  0.29000  1.0000
  Fe  Fe2       1.0  0.22127  0.17141  0.07105  1.0000
  S   S3        1.0  0.19249  0.16182  0.08573  1.0000
  S   S4        1.0  0.24994  0.16274  0.09471  1.0000
  Fe  Fe3       1.0  0.18638  0.16264  0.02097  1.0000
  H   H4        1.0  0.26764  0.23843  0.35104  1.0000
  Fe  Fe4       1.0  0.18501  0.19339  0.08337  1.0000
  S   S5        1.0  0.16829  0.21081  0.12610  1.0000
  H   H5        1.0  0.01990  0.02258  0.14470  1.0000
  S   S6        1.0  0.21407  0.20263  0.07343  1.0000
  Fe  Fe5       1.0  0.05157  0.06475  0.43316  1.0000
  S   S7        1.0  0.04291  0.03866  0.46496  1.0000
  S   S8        1.0  0.03416  0.08152  0.38921  1.0000
  Fe  Fe6       1.0  0.09106  0.06282  0.46698  1.0000
  S   S9        1.0  0.17675  0.19363  0.02005  1.0000
  S   S10       1.0  0.97321  0.03483  0.19145  1.0000
  Fe  Fe7       1.0  0.07056  0.02600  0.44726  1.0000
  H   H6        1.0  0.14957  0.13449  0.04560  1.0000
  H   H7        1.0  0.98997  0.05606  0.49216  1.0000
  C   C4        1.0  0.26446  0.22039  0.02879  1.0000
  S   S11       1.0  0.07822  0.05136  0.41201  1.0000
  H   H8        1.0  0.25650  0.13753  0.26735  1.0000
  S   S12       1.0  0.99930  0.07554  0.13831  1.0000
  C   C5        1.0  0.10110  0.15591  0.36666  1.0000
  C   C6        1.0  0.01604  0.06934  0.36546  1.0000
  C   C7        1.0  0.00665  0.05481  0.38408  1.0000
  C   C8        1.0  0.26830  0.23894  0.38331  1.0000
  C   C9        1.0  0.98640  0.05111  0.32702  1.0000
  C   C10       1.0  0.99593  0.06550  0.30831  1.0000
  C   C11       1.0  0.01054  0.07475  0.32767  1.0000
  H   H9        1.0  0.01054  0.05085  0.41348  1.0000
  H   H10       1.0  0.15574  0.22497  0.30204  1.0000
  H   H11       1.0  0.99201  0.06959  0.27899  1.0000
  H   H12       1.0  0.01768  0.08604  0.31318  1.0000
  S   S13       1.0  0.08576  0.03607  0.50069  1.0000
  C   C12       1.0  0.00729  0.03606  0.05358  1.0000
  C   C13       1.0  0.00035  0.04562  0.08637  1.0000
  C   C14       1.0  0.00800  0.06288  0.09823  1.0000
  C   C15       1.0  0.02274  0.07039  0.07757  1.0000
  C   C16       1.0  0.02947  0.06101  0.04440  1.0000
  H   H13       1.0  0.00126  0.02276  0.04430  1.0000
  H   H14       1.0  0.98906  0.03970  0.10238  1.0000
  H   H15       1.0  0.02874  0.08372  0.08681  1.0000
  H   H16       1.0  0.99492  0.99878  0.39750  1.0000
  C   C17       1.0  0.12751  0.11662  0.02399  1.0000
  H   H17       1.0  0.18246  0.02713  0.01921  1.0000
  C   C18       1.0  0.20036  0.21624  0.16882  1.0000
  H   H18       1.0  0.29141  0.13996  0.26066  1.0000
  H   H19       1.0  0.08827  0.01099  0.17507  1.0000
  H   H20       1.0  0.22965  0.21820  0.35785  1.0000
  H   H21       1.0  0.24052  0.22097  0.31202  1.0000
  H   H22       1.0  0.29238  0.16991  0.20642  1.0000
  C   C19       1.0  0.29802  0.22054  0.17164  1.0000
  C   C20       1.0  0.05400  0.03046  0.18288  1.0000
  C   C21       1.0  0.06134  0.99786  0.16048  1.0000
  C   C22       1.0  0.26384  0.17491  0.22254  1.0000
  C   C23       1.0  0.27803  0.17065  0.19640  1.0000
  C   C24       1.0  0.27361  0.16706  0.15719  1.0000
  C   C25       1.0  0.25502  0.16805  0.14373  1.0000
  C   C26       1.0  0.24088  0.17291  0.16962  1.0000
  C   C27       1.0  0.24528  0.17627  0.20896  1.0000
  H   H23       1.0  0.15771  0.04393  0.03809  1.0000
  H   H24       1.0  0.28462  0.16345  0.13720  1.0000
  H   H25       1.0  0.22651  0.17366  0.15947  1.0000
  H   H26       1.0  0.23423  0.17970  0.22895  1.0000
  H   H27       1.0  0.19087  0.19204  0.24168  1.0000
  H   H28       1.0  0.22533  0.22066  0.20262  1.0000
  Fe  Fe8       1.0  0.29864  0.17573  0.29490  1.0000
  C   C28       1.0  0.27183  0.21803  0.39664  1.0000
  H   H29       1.0  0.25313  0.23259  0.23613  1.0000
  H   H30       1.0  0.20568  0.20320  0.15570  1.0000
  H   H31       1.0  0.02620  0.99868  0.13309  1.0000
  H   H32       1.0  0.24241  0.22549  0.12170  1.0000
  H   H33       1.0  0.29894  0.24304  0.34929  1.0000
  H   H34       1.0  0.27754  0.08677  0.25072  1.0000
  C   C29       1.0  0.05131  0.00975  0.07865  1.0000
  H   H35       1.0  0.02204  0.01500  0.39159  1.0000
  C   C30       1.0  0.02157  0.04397  0.03207  1.0000
  C   C31       1.0  0.05090  0.13116  0.41683  1.0000
  H   H36       1.0  0.30125  0.11277  0.16797  1.0000
  H   H37       1.0  0.02637  0.04506  0.19067  1.0000
  H   H38       1.0  0.29593  0.18789  0.04422  1.0000
  H   H39       1.0  0.00730  0.00175  0.19201  1.0000
  H   H40       1.0  0.22273  0.23782  0.32595  1.0000
  C   C32       1.0  0.16909  0.23858  0.44700  1.0000
  H   H41       1.0  0.03834  0.12276  0.42267  1.0000
  H   H42       1.0  0.25887  0.11208  0.26843  1.0000
  C   C33       1.0  0.20798  0.23672  0.45106  1.0000
  C   C34       1.0  0.28064  0.23081  0.26180  1.0000
  N   N2        1.0  0.08421  0.12589  0.38893  1.0000
  C   C35       1.0  0.09327  0.11395  0.35746  1.0000
  C   C36       1.0  0.08250  0.14613  0.37391  1.0000
  C   C37       1.0  0.06510  0.11815  0.39551  1.0000
  C   C38       1.0  0.09628  0.12403  0.42519  1.0000
  C   C39       1.0  0.09361  0.09209  0.36360  1.0000
  H   H43       1.0  0.08546  0.15180  0.45045  1.0000
  H   H44       1.0  0.26292  0.20844  0.37908  1.0000
  H   H45       1.0  0.25218  0.21231  0.16137  1.0000
  H   H46       1.0  0.08615  0.11665  0.32882  1.0000
  H   H47       1.0  0.10806  0.11783  0.35374  1.0000
  H   H48       1.0  0.07451  0.15570  0.39353  1.0000
  H   H49       1.0  0.07419  0.14657  0.34621  1.0000
  H   H50       1.0  0.05821  0.11450  0.36725  1.0000
  H   H51       1.0  0.06622  0.10451  0.41217  1.0000
  H   H52       1.0  0.09536  0.10943  0.43766  1.0000
  Fe  Fe9       1.0  0.20663  0.20016  0.01057  1.0000
  H   H53       1.0  0.10065  0.08782  0.39126  1.0000
  H   H54       1.0  0.07937  0.08631  0.36206  1.0000
  H   H55       1.0  0.10160  0.08507  0.33996  1.0000
  H   H56       1.0  0.09108  0.01218  0.29754  1.0000
  C   C40       1.0  0.14302  0.10300  0.49437  1.0000
  N   N3        1.0  0.29700  0.10982  0.24866  1.0000
  H   H57       1.0  0.10557  0.14191  0.47323  1.0000
  C   C41       1.0  0.26761  0.23027  0.22578  1.0000
  H   H58       1.0  0.28645  0.21303  0.39271  1.0000
  H   H59       1.0  0.03678  0.00509  0.07438  1.0000
  H   H60       1.0  0.27749  0.09917  0.20577  1.0000
  C   C42       1.0  0.08221  0.00485  0.35492  1.0000
  C   C43       1.0  0.29911  0.19469  0.01601  1.0000
  C   C44       1.0  0.20463  0.24295  0.21303  1.0000
  C   C45       1.0  0.05310  0.02374  0.11314  1.0000
  H   H61       1.0  0.19704  0.17416  0.36588  1.0000
  C   C46       1.0  0.97557  0.05170  0.49815  1.0000
  H   H62       1.0  0.01592  0.00496  0.32034  1.0000
  H   H63       1.0  0.04588  0.05828  0.20655  1.0000
  C   C47       1.0  0.17513  0.23934  0.17855  1.0000
  H   H64       1.0  0.99247  0.00945  0.33217  1.0000
  C   C48       1.0  0.97811  0.00935  0.49695  1.0000
  C   C49       1.0  0.00213  0.99808  0.32134  1.0000
  H   H65       1.0  0.04099  0.05644  0.15584  1.0000
  H   H66       1.0  0.04326  0.03593  0.10660  1.0000
  H   H67       1.0  0.29923  0.07905  0.17908  1.0000
  C   C50       1.0  0.18505  0.23041  0.31854  1.0000
  H   H68       1.0  0.21215  0.21445  0.27571  1.0000
  H   H69       1.0  0.26974  0.12663  0.30588  1.0000
  H   H70       1.0  0.30300  0.20953  0.02393  1.0000
  H   H71       1.0  0.27723  0.21886  0.28133  1.0000
  H   H72       1.0  0.17035  0.21446  0.48630  1.0000
  H   H73       1.0  0.28719  0.20972  0.16920  1.0000
  H   H74       1.0  0.16103  0.24446  0.17202  1.0000
  C   C51       1.0  0.12974  0.05481  0.03272  1.0000
  H   H75       1.0  0.29028  0.10186  0.30757  1.0000
  H   H76       1.0  0.11018  0.15606  0.39307  1.0000
  H   H77       1.0  0.02538  0.01346  0.21764  1.0000
  H   H78       1.0  0.10874  0.14921  0.34226  1.0000
  H   H79       1.0  0.21862  0.19495  0.30584  1.0000
  H   H80       1.0  0.25144  0.22223  0.04543  1.0000
  H   H81       1.0  0.15347  0.09629  0.47621  1.0000
  C   C52       1.0  0.16385  0.23246  0.32484  1.0000
  H   H82       1.0  0.12114  0.11537  0.05204  1.0000
  C   C53       1.0  0.29899  0.07739  0.21113  1.0000
  H   H83       1.0  0.08353  0.13116  0.48105  1.0000
  H   H84       1.0  0.04605  0.14343  0.39851  1.0000
  H   H85       1.0  0.29236  0.06346  0.21616  1.0000
  C   C54       1.0  0.21149  0.22619  0.19538  1.0000
  H   H86       1.0  0.28821  0.23750  0.45060  1.0000
  H   H87       1.0  0.29549  0.22899  0.25406  1.0000
  H   H88       1.0  0.05447  0.02416  0.21259  1.0000
  C   C55       1.0  0.09218  0.13802  0.45893  1.0000
  N   N4        1.0  0.27169  0.24443  0.19429  1.0000
  C   C56       1.0  0.18219  0.22285  0.16015  1.0000
  S   S14       1.0  0.06498  0.07846  0.48544  1.0000
  H   H89       1.0  0.08543  0.01861  0.36695  1.0000
  H   H90       1.0  0.09812  0.17107  0.35839  1.0000
  C   C57       1.0  0.25476  0.22433  0.14157  1.0000
  C   C58       1.0  0.21270  0.20984  0.30662  1.0000
  C   C59       1.0  0.22705  0.22251  0.32726  1.0000
  H   H91       1.0  0.26802  0.21534  0.21529  1.0000
  H   H92       1.0  0.99671  0.00722  0.26206  1.0000
  C   C60       1.0  0.18198  0.19586  0.30217  1.0000
  C   C61       1.0  0.08251  0.00002  0.15535  1.0000
  C   C62       1.0  0.02444  0.99937  0.39587  1.0000
  H   H93       1.0  0.18864  0.18136  0.30518  1.0000
  C   C63       1.0  0.20413  0.18681  0.37776  1.0000
  H   H94       1.0  0.20396  0.18553  0.40994  1.0000
  C   C64       1.0  0.19394  0.20573  0.36599  1.0000
  H   H95       1.0  0.06827  0.03582  0.17871  1.0000
  N   N5        1.0  0.19343  0.21046  0.32327  1.0000
  C   C65       1.0  0.12499  0.09573  0.49484  1.0000
  H   H96       1.0  0.21899  0.18637  0.36952  1.0000
  C   C66       1.0  0.17927  0.19897  0.25797  1.0000
  H   H97       1.0  0.17958  0.20499  0.37739  1.0000
  H   H98       1.0  0.16810  0.19425  0.31550  1.0000
  H   H99       1.0  0.17822  0.21421  0.24960  1.0000
  H   H100      1.0  0.04060  0.06712  0.02817  1.0000
  C   C67       1.0  0.14362  0.12750  0.02043  1.0000
  C   C68       1.0  0.17831  0.22453  0.47010  1.0000
  H   H101      1.0  0.98422  0.03498  0.37991  1.0000
  H   H102      1.0  0.15989  0.22751  0.35400  1.0000
  H   H103      1.0  0.16588  0.19284  0.24807  1.0000
  H   H104      1.0  0.26797  0.21608  0.42740  1.0000
  H   H105      1.0  0.18793  0.23646  0.28952  1.0000
  H   H106      1.0  0.20049  0.21732  0.38300  1.0000
  H   H107      1.0  0.27877  0.13103  0.22003  1.0000
  C   C69       1.0  0.02922  0.01036  0.15405  1.0000
  C   C70       1.0  0.28686  0.09356  0.22960  1.0000
  H   H108      1.0  0.26691  0.22096  0.12314  1.0000
  H   H109      1.0  0.06719  0.02994  0.11225  1.0000
  H   H110      1.0  0.19168  0.24049  0.33930  1.0000
  C   C71       1.0  0.04092  0.04841  0.18355  1.0000
  S   S15       1.0  0.11947  0.07607  0.46499  1.0000
  H   H111      1.0  0.11137  0.12494  0.41854  1.0000
  H   H112      1.0  0.05509  0.01729  0.05169  1.0000
  C   C72       1.0  0.99173  0.04587  0.36505  1.0000
  H   H113      1.0  0.26364  0.19000  0.03588  1.0000
  H   H114      1.0  0.16787  0.24509  0.05571  1.0000
  H   H115      1.0  0.13338  0.06991  0.03796  1.0000
  H   H116      1.0  0.27633  0.22275  0.04912  1.0000
  H   H117      1.0  0.19060  0.23725  0.04200  1.0000
  C   C73       1.0  0.26636  0.12542  0.27442  1.0000
  H   H118      1.0  0.22306  0.23616  0.45287  1.0000
  C   C74       1.0  0.29089  0.24144  0.17774  1.0000
  H   H119      1.0  0.98431  0.01512  0.47015  1.0000
  C   C75       1.0  0.08548  0.00115  0.31555  1.0000
  H   H120      1.0  0.28338  0.16069  0.02678  1.0000
  H   H121      1.0  0.25398  0.24330  0.39261  1.0000
  H   H122      1.0  0.08609  0.00326  0.12499  1.0000
  H   H123      1.0  0.99467  0.07713  0.02065  1.0000
  C   C76       1.0  0.25687  0.24357  0.16277  1.0000
  H   H124      1.0  0.15400  0.23930  0.44550  1.0000
  C   C77       1.0  0.02261  0.00329  0.19370  1.0000
  H   H125      1.0  0.12601  0.04883  0.06128  1.0000
  H   H126      1.0  0.22221  0.24569  0.05897  1.0000
  C   C78       1.0  0.14620  0.04284  0.01618  1.0000
  H   H127      1.0  0.00842  0.03050  0.50108  1.0000
  H   H128      1.0  0.14202  0.02760  0.01631  1.0000
  H   H129      1.0  0.11707  0.05431  0.01397  1.0000
  C   C79       1.0  0.26518  0.20010  0.01126  1.0000
  H   H130      1.0  0.02246  0.00022  0.50335  1.0000
  H   H131      1.0  0.06088  0.99710  0.08137  1.0000
  C   C80       1.0  0.16008  0.06833  0.97914  1.0000
  Fe  Fe10      1.0  0.19502  0.19059  0.54773  1.0000
  H   H132      1.0  0.28875  0.22088  0.63574  1.0000
  S   S16       1.0  0.13871  0.14821  0.56876  1.0000
  S   S17       1.0  0.26084  0.17856  0.79486  1.0000
  H   H133      1.0  0.28225  0.22048  0.58638  1.0000
  C   C81       1.0  0.02639  0.03534  0.73955  1.0000
  H   H134      1.0  0.17862  0.08792  0.95147  1.0000
  S   S18       1.0  0.16602  0.19475  0.57026  1.0000
  H   H135      1.0  0.09762  0.09912  0.51860  1.0000
  Fe  Fe11      1.0  0.20631  0.16200  0.61042  1.0000
  S   S19       1.0  0.17831  0.16324  0.63803  1.0000
  S   S20       1.0  0.23151  0.14570  0.63443  1.0000
  Fe  Fe12      1.0  0.16652  0.16264  0.57707  1.0000
  H   H136      1.0  0.21065  0.22193  0.81626  1.0000
  Fe  Fe13      1.0  0.17964  0.19486  0.62948  1.0000
  S   S21       1.0  0.16920  0.21396  0.67766  1.0000
  S   S22       1.0  0.19470  0.15841  0.54974  1.0000
  S   S23       1.0  0.20855  0.19371  0.60648  1.0000
  Fe  Fe14      1.0  0.05966  0.06921  0.88325  1.0000
  S   S24       1.0  0.05523  0.03829  0.89515  1.0000
  S   S25       1.0  0.04665  0.08192  0.82865  1.0000
  Fe  Fe15      1.0  0.08432  0.07439  0.95516  1.0000
  H   H137      1.0  0.30102  0.17303  0.63332  1.0000
  H   H138      1.0  0.13063  0.07395  0.68714  1.0000
  Fe  Fe16      1.0  0.08561  0.03693  0.90990  1.0000
  H   H139      1.0  0.14877  0.07880  0.98639  1.0000
  Fe  Fe17      1.0  0.05136  0.04751  0.95679  1.0000
  S   S26       1.0  0.04952  0.04901  0.57759  1.0000
  S   S27       1.0  0.09082  0.06730  0.89300  1.0000
  S   S28       1.0  0.05333  0.07884  0.94402  1.0000
  C   C82       1.0  0.28823  0.18022  0.64495  1.0000
  H   H140      1.0  0.16187  0.23482  0.60293  1.0000
  C   C83       1.0  0.02356  0.07528  0.81918  1.0000
  C   C84       1.0  0.01458  0.06326  0.84473  1.0000
  C   C85       1.0  0.99623  0.05789  0.83680  1.0000
  C   C86       1.0  0.98667  0.06463  0.80353  1.0000
  C   C87       1.0  0.99568  0.07640  0.77749  1.0000
  C   C88       1.0  0.01412  0.08176  0.78541  1.0000
  H   H141      1.0  0.02167  0.05832  0.87091  1.0000
  H   H142      1.0  0.98935  0.04861  0.85662  1.0000
  H   H143      1.0  0.98836  0.08165  0.75171  1.0000
  H   H144      1.0  0.02103  0.09105  0.76551  1.0000
  C   C89       1.0  0.02851  0.06156  0.58682  1.0000
  C   C90       1.0  0.01977  0.05905  0.62238  1.0000
  C   C91       1.0  0.00212  0.06752  0.62888  1.0000
  C   C92       1.0  0.99320  0.07860  0.59986  1.0000
  C   C93       1.0  0.00223  0.08158  0.56476  1.0000
  C   C94       1.0  0.01981  0.07297  0.55812  1.0000
  H   H145      1.0  0.02645  0.05023  0.64460  1.0000
  H   H146      1.0  0.99542  0.06554  0.65629  1.0000
  S   S29       1.0  0.30152  0.18243  0.86877  1.0000
  C   C95       1.0  0.21417  0.18781  0.84462  1.0000
  H   H147      1.0  0.98809  0.03791  0.92421  1.0000
  H   H148      1.0  0.98048  0.03170  0.61351  1.0000
  S   S30       1.0  0.02874  0.03278  0.98900  1.0000
  H   H149      1.0  0.06530  0.00523  0.73327  1.0000
  H   H150      1.0  0.17790  0.17819  0.92925  1.0000
  H   H151      1.0  0.01006  0.03439  0.55087  1.0000
  H   H152      1.0  0.24148  0.18297  0.87170  1.0000
  H   H153      1.0  0.11282  0.04496  0.57598  1.0000
  H   H154      1.0  0.10724  0.02599  0.75607  1.0000
  H   H155      1.0  0.03153  0.04689  0.72102  1.0000
  H   H156      1.0  0.19513  0.02229  0.97631  1.0000
  C   C96       1.0  0.25322  0.16948  0.74988  1.0000
  C   C97       1.0  0.23674  0.17708  0.73279  1.0000
  C   C98       1.0  0.22989  0.16968  0.69763  1.0000
  C   C99       1.0  0.23949  0.15458  0.67938  1.0000
  C   C100      1.0  0.25604  0.14703  0.69636  1.0000
  C   C101      1.0  0.26299  0.15456  0.73144  1.0000
  H   H157      1.0  0.22933  0.18881  0.74662  1.0000
  H   H158      1.0  0.21711  0.17558  0.68481  1.0000
  H   H159      1.0  0.26350  0.13535  0.68233  1.0000
  H   H160      1.0  0.27568  0.14858  0.74458  1.0000
  H   H161      1.0  0.04833  0.04038  0.80335  1.0000
  C   C102      1.0  0.18308  0.23289  0.69274  1.0000
  H   H162      1.0  0.01452  0.09563  0.91886  1.0000
  C   C103      1.0  0.28565  0.20956  0.95744  1.0000
  H   H163      1.0  0.12205  0.10202  0.93043  1.0000
  H   H164      1.0  0.20755  0.22309  0.66289  1.0000
  C   C104      1.0  0.05508  0.02196  0.68419  1.0000
  H   H165      1.0  0.01978  0.04306  0.76422  1.0000
  H   H166      1.0  0.26291  0.21021  0.68396  1.0000
  C   C105      1.0  0.06595  0.04916  0.75721  1.0000
  H   H167      1.0  0.98641  0.04615  0.99128  1.0000
  H   H168      1.0  0.05646  0.06030  0.74429  1.0000
  H   H169      1.0  0.00765  0.06692  0.95954  1.0000
  C   C106      1.0  0.03320  0.00800  0.78140  1.0000
  H   H170      1.0  0.05767  0.09683  0.60311  1.0000
  C   C107      1.0  0.28277  0.24220  0.72662  1.0000
  H   H171      1.0  0.16152  0.12452  0.51666  1.0000
  H   H172      1.0  0.06664  0.02397  0.79115  1.0000
  H   H173      1.0  0.17183  0.03618  0.93422  1.0000
  C   C108      1.0  0.16716  0.03379  0.96424  1.0000
  N   N6        1.0  0.19623  0.19950  0.84634  1.0000
  H   H174      1.0  0.03299  0.01137  0.54502  1.0000
  C   C109      1.0  0.26940  0.21346  0.92830  1.0000
  H   H175      1.0  0.25079  0.20286  0.59904  1.0000
  H   H176      1.0  0.13463  0.09538  0.65982  1.0000
  H   H177      1.0  0.02471  0.01566  0.80370  1.0000
  H   H178      1.0  0.25647  0.21843  0.94258  1.0000
  H   H179      1.0  0.23308  0.20716  0.87592  1.0000
  H   H180      1.0  0.25196  0.18474  0.63510  1.0000
  S   S31       1.0  0.21931  0.22203  0.97234  1.0000
  H   H181      1.0  0.29713  0.24191  0.73871  1.0000
  C   C110      1.0  0.20041  0.22028  0.83975  1.0000
  H   H182      1.0  0.98447  0.00814  0.63163  1.0000
  H   H183      1.0  0.26842  0.15836  0.54505  1.0000
  S   S32       1.0  0.08155  0.04358  0.97280  1.0000
  C   C111      1.0  0.14420  0.11980  0.95208  1.0000
  C   C112      1.0  0.00567  0.02360  0.52928  1.0000
  H   H184      1.0  0.02340  0.99874  0.76515  1.0000
  H   H185      1.0  0.97237  0.01025  0.79683  1.0000
  C   C113      1.0  0.18347  0.23361  0.82986  1.0000
  N   N7        1.0  0.97827  0.07387  0.96799  1.0000
  S   S33       1.0  0.17326  0.14131  0.97894  1.0000
  C   C114      1.0  0.25523  0.21322  0.65657  1.0000
  H   H186      1.0  0.17338  0.17004  0.88123  1.0000
  H   H187      1.0  0.25823  0.22776  0.64592  1.0000
  H   H188      1.0  0.29306  0.17774  0.56908  1.0000
  H   H189      1.0  0.15067  0.12096  0.92412  1.0000
  C   C115      1.0  0.10382  0.01936  0.81663  1.0000
  C   C116      1.0  0.14762  0.11895  0.51726  1.0000
  H   H190      1.0  0.12728  0.06167  0.95101  1.0000
  H   H191      1.0  0.98344  0.09865  0.00431  1.0000
  H   H192      1.0  0.25234  0.19833  0.99313  1.0000
  H   H193      1.0  0.04108  0.99959  0.93628  1.0000
  N   N8        1.0  0.04189  0.02212  0.75443  1.0000
  H   H194      1.0  0.26727  0.17625  0.95015  1.0000
  H   H195      1.0  0.27628  0.23746  0.80344  1.0000
  C   C117      1.0  0.15215  0.12902  0.98448  1.0000
  C   C118      1.0  0.18502  0.23733  0.94916  1.0000
  H   H196      1.0  0.15827  0.08266  0.92242  1.0000
  C   C119      1.0  0.10094  0.00492  0.84376  1.0000
  H   H197      1.0  0.99540  0.09018  0.54227  1.0000
  H   H198      1.0  0.29779  0.20383  0.68416  1.0000
  H   H199      1.0  0.22389  0.18855  0.90606  1.0000
  C   C120      1.0  0.13967  0.04469  0.90541  1.0000
  C   C121      1.0  0.13581  0.04812  0.94885  1.0000
  H   H200      1.0  0.01592  0.01574  0.69389  1.0000
  C   C122      1.0  0.00315  0.09602  0.94035  1.0000
  C   C123      1.0  0.11965  0.10727  0.99169  1.0000
  H   H201      1.0  0.27420  0.19289  0.55265  1.0000
  H   H202      1.0  0.07556  0.04298  0.73541  1.0000
  C   C124      1.0  0.18294  0.19213  0.81583  1.0000
  C   C125      1.0  0.29362  0.18878  0.68485  1.0000
  H   H203      1.0  0.28233  0.18716  0.70602  1.0000
  H   H204      1.0  0.19521  0.24030  0.60336  1.0000
  H   H205      1.0  0.05474  0.03771  0.68618  1.0000
  H   H206      1.0  0.12108  0.03994  0.64931  1.0000
  H   H207      1.0  0.17889  0.22499  0.96207  1.0000
  H   H208      1.0  0.19830  0.20569  0.76773  1.0000
  H   H209      1.0  0.00192  0.03692  0.70150  1.0000
  C   C126      1.0  0.01061  0.02568  0.71645  1.0000
  S   S34       1.0  0.10132  0.00993  0.89384  1.0000
  H   H210      1.0  0.17793  0.06588  0.92706  1.0000
  C   C127      1.0  0.18740  0.19781  0.88552  1.0000
  H   H211      1.0  0.18040  0.17671  0.82065  1.0000
  H   H212      1.0  0.19603  0.20468  0.90836  1.0000
  H   H213      1.0  0.06067  0.07806  0.63750  1.0000
  H   H214      1.0  0.21153  0.17220  0.84526  1.0000
  H   H215      1.0  0.22111  0.19005  0.81643  1.0000
  C   C128      1.0  0.98774  0.01786  0.60738  1.0000
  C   C129      1.0  0.27971  0.17577  0.96994  1.0000
  N   N9        1.0  0.27890  0.19335  0.61519  1.0000
  N   N10       1.0  0.10110  0.07519  0.62886  1.0000
  C   C130      1.0  0.08581  0.08438  0.60381  1.0000
  C   C131      1.0  0.11819  0.07277  0.60422  1.0000
  C   C132      1.0  0.10494  0.08853  0.66259  1.0000
  C   C133      1.0  0.09428  0.05624  0.64283  1.0000
  C   C134      1.0  0.06768  0.09041  0.62477  1.0000
  C   C135      1.0  0.11625  0.05980  0.56823  1.0000
  C   C136      1.0  0.12498  0.08840  0.67992  1.0000
  C   C137      1.0  0.10841  0.04357  0.66598  1.0000
  H   H216      1.0  0.09091  0.09744  0.58949  1.0000
  H   H217      1.0  0.08146  0.07465  0.57996  1.0000
  H   H218      1.0  0.13028  0.06669  0.62111  1.0000
  H   H219      1.0  0.12272  0.08699  0.59396  1.0000
  H   H220      1.0  0.10225  0.10375  0.65387  1.0000
  H   H221      1.0  0.09526  0.08595  0.68680  1.0000
  H   H222      1.0  0.08210  0.05834  0.66194  1.0000
  H   H223      1.0  0.08909  0.04758  0.61791  1.0000
  H   H224      1.0  0.07000  0.10140  0.64744  1.0000
  H   H225      1.0  0.12981  0.05901  0.55316  1.0000
  H   H226      1.0  0.10565  0.12726  0.55895  1.0000
  C   C138      1.0  0.10455  0.01489  0.77688  1.0000
  H   H227      1.0  0.10594  0.06568  0.54680  1.0000
  H   H228      1.0  0.14979  0.05462  0.89352  1.0000
  H   H229      1.0  0.29136  0.17178  0.95034  1.0000
  H   H230      1.0  0.25124  0.16956  0.57466  1.0000
  H   H231      1.0  0.99438  0.06972  0.91585  1.0000
  C   C139      1.0  0.20139  0.23434  0.68023  1.0000
  H   H232      1.0  0.10189  0.02978  0.67277  1.0000
  H   H233      1.0  0.20732  0.22648  0.86593  1.0000
  N   N11       1.0  0.98521  0.01978  0.53246  1.0000
  H   H234      1.0  0.29785  0.20515  0.93985  1.0000
  H   H235      1.0  0.17246  0.23291  0.85185  1.0000
  S   S35       1.0  0.10005  0.09282  0.99863  1.0000
  H   H236      1.0  0.00925  0.10162  0.96780  1.0000
  C   C140      1.0  0.12797  0.10906  0.95556  1.0000
  H   H237      1.0  0.27553  0.22943  0.73691  1.0000
  H   H238      1.0  0.04516  0.01748  0.66098  1.0000
  C   C141      1.0  0.05551  0.03347  0.77833  1.0000
  H   H239      1.0  0.99216  0.10608  0.92891  1.0000
  H   H240      1.0  0.26138  0.15722  0.00265  1.0000
  C   C142      1.0  0.22879  0.19207  0.87667  1.0000
  C   C143      1.0  0.98091  0.00895  0.56887  1.0000
  H   H241      1.0  0.26970  0.15457  0.59622  1.0000
  H   H242      1.0  0.16880  0.19903  0.81800  1.0000
  H   H243      1.0  0.27917  0.16806  0.65131  1.0000
  N   N12       1.0  0.15253  0.04847  0.97632  1.0000
  H   H244      1.0  0.17372  0.20572  0.88593  1.0000
  H   H245      1.0  0.24468  0.22835  0.81076  1.0000
  C   C144      1.0  0.26628  0.16543  0.57357  1.0000
  H   H246      1.0  0.19206  0.04654  0.99153  1.0000
  H   H247      1.0  0.26666  0.20082  0.90988  1.0000
  H   H248      1.0  0.10597  0.03386  0.82635  1.0000
  C   C145      1.0  0.25886  0.19787  0.62531  1.0000
  C   C146      1.0  0.27880  0.18300  0.57660  1.0000
  H   H249      1.0  0.19702  0.18006  0.76476  1.0000
  H   H250      1.0  0.11219  0.05015  0.69416  1.0000
  C   C147      1.0  0.99606  0.07558  0.94562  1.0000
  H   H251      1.0  0.97988  0.00817  0.88211  1.0000
  H   H252      1.0  0.12628  0.03650  0.95693  1.0000
  H   H253      1.0  0.07484  0.05661  0.77889  1.0000
  H   H254      1.0  0.14442  0.02967  0.90008  1.0000
  H   H255      1.0  0.12649  0.04676  0.88838  1.0000
  H   H256      1.0  0.24020  0.21336  0.66369  1.0000
  N   N13       1.0  0.28239  0.19500  0.98867  1.0000
  H   H257      1.0  0.17748  0.23051  0.80068  1.0000
  H   H258      1.0  0.12507  0.09694  0.70714  1.0000
  Fe  Fe18      1.0  0.29184  0.17844  0.80723  1.0000
  C   C148      1.0  0.18938  0.19341  0.77339  1.0000
  H   H259      1.0  0.02644  0.07492  0.53053  1.0000
  H   H260      1.0  0.17005  0.06980  0.00407  1.0000
  H   H261      1.0  0.17699  0.19547  0.75385  1.0000
  H   H262      1.0  0.06911  0.01763  0.67354  1.0000
  C   C149      1.0  0.97475  0.03882  0.53446  1.0000
  C   C150      1.0  0.18508  0.03262  0.98971  1.0000
  H   H263      1.0  0.04341  0.99847  0.71400  1.0000
  H   H264      1.0  0.19676  0.16836  0.90233  1.0000
  C   C151      1.0  0.18380  0.17733  0.89968  1.0000
  H   H265      1.0  0.22419  0.23429  0.58522  1.0000
  H   H266      1.0  0.98002  0.04760  0.55892  1.0000
  H   H267      1.0  0.00125  0.01804  0.73602  1.0000
  C   C152      1.0  0.05161  0.01115  0.72250  1.0000
  C   C153      1.0  0.16905  0.07641  0.94261  1.0000
  C   C154      1.0  0.27653  0.15900  0.99802  1.0000
  C   C155      1.0  0.97503  0.05281  0.97313  1.0000
  C   C156      1.0  0.01960  0.00640  0.53241  1.0000
  C   C157      1.0  0.13414  0.12774  0.54060  1.0000
  C   C158      1.0  0.11616  0.12038  0.54118  1.0000
  H   H268      1.0  0.00306  0.01963  0.60812  1.0000
  H   H269      1.0  0.16123  0.24603  0.72649  1.0000
  H   H270      1.0  0.24558  0.23683  0.76218  1.0000
  C   C159      1.0  0.20437  0.23936  0.95070  1.0000
  H   H271      1.0  0.16113  0.01927  0.96353  1.0000
  C   C160      1.0  0.28919  0.21162  0.60967  1.0000
  S   S36       1.0  0.21604  0.16953  0.00678  1.0000
  H   H272      1.0  0.26401  0.23154  0.00596  1.0000
  H   H273      1.0  0.28388  0.24111  0.69463  1.0000
  H   H274      1.0  0.28945  0.22356  0.97029  1.0000
  H   H275      1.0  0.27330  0.22508  0.90835  1.0000
  H   H276      1.0  0.28255  0.14555  0.98563  1.0000
  H   H277      1.0  0.05447  0.00147  0.82720  1.0000
  Fe  Fe19      1.0  0.05871  0.05096  0.51551  1.0000
  H   H278      1.0  0.18623  0.23598  0.55602  1.0000
  C   C161      1.0  0.97391  0.04097  0.93546  1.0000
  C   C162      1.0  0.11158  0.10445  0.51839  1.0000
  C   C163      1.0  0.24667  0.24134  0.79294  1.0000
  C   C164      1.0  0.98151  0.08299  0.00718  1.0000
  H   H279      1.0  0.21336  0.25867  0.01843  1.0000
  H   H280      1.0  0.00327  0.46387  0.44291  1.0000
  H   H281      1.0  0.21724  0.30097  0.06192  1.0000
  H   H282      1.0  0.05533  0.49040  0.17798  1.0000
  C   C165      1.0  0.14322  0.42075  0.17553  1.0000
  C   C166      1.0  0.30099  0.24818  0.37965  1.0000
  H   H283      1.0  0.22155  0.25919  0.12395  1.0000
  Fe  Fe20      1.0  0.07766  0.40746  0.23300  1.0000
  S   S37       1.0  0.07457  0.43864  0.24927  1.0000
  S   S38       1.0  0.09366  0.38894  0.27748  1.0000
  Fe  Fe21      1.0  0.05349  0.41324  0.16007  1.0000
  S   S39       1.0  0.04888  0.44454  0.17084  1.0000
  S   S40       1.0  0.04055  0.39982  0.10688  1.0000
  Fe  Fe22      1.0  0.07919  0.44438  0.18626  1.0000
  S   S41       1.0  0.09648  0.46879  0.16644  1.0000
  Fe  Fe23      1.0  0.04448  0.43595  0.23245  1.0000
  S   S42       1.0  0.02077  0.45115  0.26314  1.0000
  S   S43       1.0  0.08455  0.41353  0.17079  1.0000
  S   S44       1.0  0.04689  0.40440  0.22074  1.0000
  Fe  Fe24      1.0  0.21638  0.31027  0.33810  1.0000
  S   S45       1.0  0.18655  0.31779  0.35245  1.0000
  S   S46       1.0  0.24237  0.32361  0.36270  1.0000
  Fe  Fe25      1.0  0.20570  0.27884  0.28099  1.0000
  S   S47       1.0  0.17517  0.28350  0.29093  1.0000
  H   H284      1.0  0.01235  0.39413  0.49688  1.0000
  Fe  Fe26      1.0  0.18079  0.31501  0.28803  1.0000
  S   S48       1.0  0.16420  0.33405  0.24511  1.0000
  Fe  Fe27      1.0  0.18350  0.28576  0.35398  1.0000
  S   S49       1.0  0.16739  0.26963  0.39855  1.0000
  S   S50       1.0  0.21110  0.30995  0.27365  1.0000
  S   S51       1.0  0.21364  0.27869  0.34407  1.0000
  H   H285      1.0  0.30138  0.24794  0.19729  1.0000
  H   H286      1.0  0.00965  0.45836  0.49310  1.0000
  C   C167      1.0  0.27155  0.27585  0.34141  1.0000
  C   C168      1.0  0.23968  0.26822  0.03955  1.0000
  H   H287      1.0  0.21559  0.28356  0.17213  1.0000
  H   H288      1.0  0.98651  0.38437  0.24081  1.0000
  C   C169      1.0  0.98922  0.40543  0.05656  1.0000
  C   C170      1.0  0.00737  0.39882  0.06647  1.0000
  C   C171      1.0  0.01750  0.40766  0.09634  1.0000
  C   C172      1.0  0.00934  0.42305  0.11637  1.0000
  C   C173      1.0  0.99131  0.42977  0.10625  1.0000
  H   H289      1.0  0.02118  0.47464  0.14338  1.0000
  H   H290      1.0  0.04246  0.48073  0.12236  1.0000
  H   H291      1.0  0.01681  0.42973  0.13986  1.0000
  H   H292      1.0  0.98518  0.44182  0.12156  1.0000
  C   C174      1.0  0.00920  0.43666  0.29596  1.0000
  C   C175      1.0  0.01611  0.41829  0.30503  1.0000
  C   C176      1.0  0.00606  0.40646  0.32930  1.0000
  C   C177      1.0  0.98933  0.41312  0.34553  1.0000
  H   H293      1.0  0.25950  0.25403  0.13937  1.0000
  C   C178      1.0  0.99253  0.44337  0.31233  1.0000
  H   H294      1.0  0.02910  0.41308  0.29306  1.0000
  H   H295      1.0  0.01133  0.39211  0.33564  1.0000
  H   H296      1.0  0.05809  0.43014  0.04895  1.0000
  H   H297      1.0  0.98704  0.45741  0.30470  1.0000
  C   C179      1.0  0.08841  0.47799  0.12135  1.0000
  C   C180      1.0  0.07741  0.46688  0.09677  1.0000
  C   C181      1.0  0.07072  0.47432  0.06120  1.0000
  C   C182      1.0  0.27051  0.28128  0.18426  1.0000
  H   H298      1.0  0.07421  0.45244  0.10498  1.0000
  C   C183      1.0  0.98907  0.39816  0.22615  1.0000
  H   H299      1.0  0.11688  0.43448  0.22143  1.0000
  C   C184      1.0  0.11270  0.37298  0.26797  1.0000
  C   C185      1.0  0.11736  0.36767  0.23018  1.0000
  C   C186      1.0  0.13307  0.35558  0.22374  1.0000
  C   C187      1.0  0.14406  0.34839  0.25501  1.0000
  C   C188      1.0  0.13917  0.35341  0.29285  1.0000
  C   C189      1.0  0.12360  0.36569  0.29925  1.0000
  H   H300      1.0  0.10876  0.37272  0.20601  1.0000
  H   H301      1.0  0.13665  0.35163  0.19440  1.0000
  H   H302      1.0  0.14750  0.34797  0.31715  1.0000
  H   H303      1.0  0.11999  0.36959  0.32861  1.0000
  H   H304      1.0  0.98137  0.39841  0.03380  1.0000
  S   S52       1.0  0.27063  0.31287  0.04819  1.0000
  H   H305      1.0  0.23498  0.29303  0.48950  1.0000
  C   C190      1.0  0.17930  0.25184  0.42627  1.0000
  H   H306      1.0  0.98778  0.43866  0.19784  1.0000
  C   C191      1.0  0.26216  0.30473  0.48416  1.0000
  C   C192      1.0  0.24414  0.30060  0.47084  1.0000
  C   C193      1.0  0.23794  0.30621  0.43351  1.0000
  C   C194      1.0  0.24969  0.31630  0.40953  1.0000
  C   C195      1.0  0.26774  0.32042  0.42281  1.0000
  C   C196      1.0  0.27403  0.31446  0.45985  1.0000
  H   H307      1.0  0.24305  0.24774  0.17482  1.0000
  H   H308      1.0  0.22399  0.30297  0.42348  1.0000
  H   H309      1.0  0.27693  0.32803  0.40412  1.0000
  H   H310      1.0  0.28808  0.31727  0.46949  1.0000
  C   C197      1.0  0.02656  0.43588  0.41036  1.0000
  H   H311      1.0  0.26857  0.29132  0.33587  1.0000
  S   S53       1.0  0.97742  0.39793  0.37633  1.0000
  C   C198      1.0  0.19818  0.29427  0.01552  1.0000
  C   C199      1.0  0.97428  0.44582  0.20500  1.0000
  H   H312      1.0  0.06225  0.46564  0.04233  1.0000
  C   C200      1.0  0.28342  0.25204  0.44095  1.0000
  H   H313      1.0  0.18526  0.41341  0.22755  1.0000
  H   H314      1.0  0.28521  0.34705  0.50267  1.0000
  C   C201      1.0  0.02723  0.48404  0.12112  1.0000
  C   C202      1.0  0.15544  0.44065  0.22814  1.0000
  H   H315      1.0  0.04317  0.40078  0.02200  1.0000
  H   H316      1.0  0.13132  0.41450  0.29687  1.0000
  C   C203      1.0  0.14495  0.45959  0.21745  1.0000
  H   H317      1.0  0.28218  0.26637  0.23320  1.0000
  H   H318      1.0  0.14635  0.38937  0.16676  1.0000
  N   N14       1.0  0.20797  0.27235  0.07371  1.0000
  C   C204      1.0  0.02118  0.40456  0.43921  1.0000
  H   H319      1.0  0.15954  0.24781  0.32297  1.0000
  C   C205      1.0  0.15602  0.40582  0.23648  1.0000
  H   H320      1.0  0.04978  0.42375  0.46986  1.0000
  H   H321      1.0  0.98592  0.45801  0.47691  1.0000
  Fe  Fe28      1.0  0.30067  0.30860  0.06873  1.0000
  H   H322      1.0  0.98975  0.48195  0.13592  1.0000
  H   H323      1.0  0.23161  0.28101  0.10944  1.0000
  H   H324      1.0  0.13181  0.44024  0.28948  1.0000
  H   H325      1.0  0.17860  0.27294  0.08912  1.0000
  S   S54       1.0  0.21924  0.25536  0.24523  1.0000
  H   H326      1.0  0.04337  0.41323  0.38084  1.0000
  H   H327      1.0  0.25746  0.26593  0.22969  1.0000
  N   N15       1.0  0.02144  0.42583  0.44732  1.0000
  H   H328      1.0  0.14130  0.46047  0.18607  1.0000
  C   C206      1.0  0.00220  0.43318  0.45793  1.0000
  C   C207      1.0  0.00047  0.45464  0.46811  1.0000
  N   N16       1.0  0.28236  0.25324  0.39724  1.0000
  H   H329      1.0  0.11885  0.40977  0.23060  1.0000
  H   H330      1.0  0.19354  0.27927  0.14954  1.0000
  H   H331      1.0  0.02718  0.43161  0.03307  1.0000
  H   H332      1.0  0.24934  0.26589  0.06473  1.0000
  C   C208      1.0  0.21810  0.27377  0.11237  1.0000
  H   H333      1.0  0.13318  0.43183  0.16368  1.0000
  H   H334      1.0  0.24578  0.26040  0.01455  1.0000
  C   C209      1.0  0.18173  0.25024  0.04721  1.0000
  H   H335      1.0  0.28212  0.28002  0.16372  1.0000
  H   H336      1.0  0.99032  0.40951  0.24807  1.0000
  C   C210      1.0  0.20755  0.28491  0.14432  1.0000
  H   H337      1.0  0.19125  0.25229  0.10538  1.0000
  H   H338      1.0  0.01502  0.43518  0.38841  1.0000
  H   H339      1.0  0.17969  0.25819  0.01979  1.0000
  H   H340      1.0  0.00299  0.39714  0.21255  1.0000
  C   C211      1.0  0.03605  0.43026  0.47780  1.0000
  H   H341      1.0  0.27848  0.39004  0.48670  1.0000
  H   H342      1.0  0.97740  0.49000  0.41433  1.0000
  H   H343      1.0  0.07431  0.41089  0.04209  1.0000
  H   H344      1.0  0.03559  0.39817  0.44009  1.0000
  H   H345      1.0  0.20623  0.30041  0.13758  1.0000
  H   H346      1.0  0.25702  0.28316  0.16822  1.0000
  C   C212      1.0  0.06492  0.42128  0.02629  1.0000
  H   H347      1.0  0.99411  0.39501  0.45986  1.0000
  H   H348      1.0  0.98100  0.40952  0.16992  1.0000
  C   C213      1.0  0.27483  0.27280  0.38540  1.0000
  H   H349      1.0  0.12261  0.39793  0.17192  1.0000
  H   H350      1.0  0.19368  0.30012  0.07566  1.0000
  C   C214      1.0  0.04441  0.42833  0.39034  1.0000
  H   H351      1.0  0.05706  0.43000  0.40885  1.0000
  H   H352      1.0  0.99656  0.42551  0.48304  1.0000
  C   C215      1.0  0.17561  0.40182  0.22006  1.0000
  H   H353      1.0  0.20676  0.26147  0.41410  1.0000
  C   C216      1.0  0.12521  0.42682  0.28028  1.0000
  H   H354      1.0  0.17539  0.39948  0.18827  1.0000
  H   H355      1.0  0.28767  0.36729  0.44486  1.0000
  H   H356      1.0  0.18154  0.38847  0.23349  1.0000
  H   H357      1.0  0.14803  0.39249  0.23380  1.0000
  H   H358      1.0  0.13464  0.40214  0.12822  1.0000
  C   C217      1.0  0.07490  0.49293  0.04990  1.0000
  C   C218      1.0  0.98116  0.42086  0.07665  1.0000
  H   H359      1.0  0.02344  0.46160  0.07851  1.0000
  C   C219      1.0  0.18977  0.26247  0.08053  1.0000
  N   N17       1.0  0.14519  0.42263  0.21905  1.0000
  H   H360      1.0  0.15411  0.47173  0.22416  1.0000
  H   H361      1.0  0.97760  0.45809  0.22426  1.0000
  C   C220      1.0  0.98262  0.43167  0.33728  1.0000
  C   C221      1.0  0.29744  0.35640  0.50219  1.0000
  H   H362      1.0  0.02863  0.45139  0.41557  1.0000
  H   H363      1.0  0.99496  0.48617  0.34983  1.0000
  H   H364      1.0  0.01573  0.40186  0.40931  1.0000
  H   H365      1.0  0.15819  0.40780  0.26826  1.0000
  H   H366      1.0  0.18096  0.26239  0.21821  1.0000
  H   H367      1.0  0.29370  0.28083  0.45524  1.0000
  H   H368      1.0  0.26129  0.27598  0.39971  1.0000
  C   C222      1.0  0.98044  0.49227  0.35061  1.0000
  H   H369      1.0  0.01349  0.38671  0.05128  1.0000
  H   H370      1.0  0.04641  0.43685  0.36359  1.0000
  H   H371      1.0  0.15666  0.42343  0.16120  1.0000
  H   H372      1.0  0.20344  0.28403  0.48924  1.0000
  H   H373      1.0  0.99211  0.43032  0.43373  1.0000
  H   H374      1.0  0.28392  0.28438  0.39545  1.0000
  C   C223      1.0  0.20447  0.29239  0.05839  1.0000
  C   C224      1.0  0.27037  0.26416  0.21240  1.0000
  H   H375      1.0  0.15950  0.44132  0.25945  1.0000
  C   C225      1.0  0.29673  0.26563  0.46188  1.0000
  C   C226      1.0  0.13634  0.40137  0.16030  1.0000
  H   H376      1.0  0.16885  0.44077  0.21245  1.0000
  C   C227      1.0  0.12599  0.42339  0.23604  1.0000
  H   H377      1.0  0.28392  0.27163  0.32433  1.0000
  C   C228      1.0  0.22017  0.26047  0.04725  1.0000
  H   H378      1.0  0.11039  0.42809  0.28886  1.0000
  H   H379      1.0  0.03884  0.44585  0.47905  1.0000
  H   H380      1.0  0.29510  0.26400  0.49366  1.0000
  C   C229      1.0  0.97409  0.40262  0.19461  1.0000
  H   H381      1.0  0.27253  0.29463  0.20120  1.0000
  H   H382      1.0  0.13214  0.46193  0.23453  1.0000
  H   H383      1.0  0.29193  0.24913  0.14964  1.0000
  H   H384      1.0  0.25916  0.26820  0.33058  1.0000
  C   C230      1.0  0.00923  0.39223  0.46564  1.0000
  H   H385      1.0  0.01197  0.37689  0.45874  1.0000
  H   H386      1.0  0.00531  0.47960  0.07594  1.0000
  H   H387      1.0  0.23924  0.28353  0.03153  1.0000
  C   C231      1.0  0.02050  0.47725  0.08075  1.0000
  H   H388      1.0  0.18457  0.28777  0.00980  1.0000
  H   H389      1.0  0.99259  0.49603  0.17959  1.0000
  H   H390      1.0  0.02820  0.48412  0.05715  1.0000
  C   C232      1.0  0.97145  0.48424  0.38717  1.0000
  S   S55       1.0  0.06596  0.49443  0.48742  1.0000
  C   C233      1.0  0.19877  0.25095  0.42867  1.0000
  H   H391      1.0  0.97407  0.46851  0.38784  1.0000
  H   H392      1.0  0.26931  0.25460  0.45335  1.0000
  H   H393      1.0  0.18141  0.29629  0.49020  1.0000
  C   C234      1.0  0.18638  0.24946  0.20480  1.0000
  H   H394      1.0  0.99899  0.49204  0.28343  1.0000
  H   H395      1.0  0.97281  0.48571  0.32577  1.0000
  C   C235      1.0  0.30045  0.36098  0.45893  1.0000
  C   C236      1.0  0.98957  0.49665  0.14795  1.0000
  H   H396      1.0  0.00422  0.45651  0.01006  1.0000
  H   H397      1.0  0.07386  0.43028  0.00844  1.0000
  H   H398      1.0  0.30367  0.34740  0.44334  1.0000
  C   C237      1.0  0.09277  0.49659  0.10999  1.0000
  H   H399      1.0  0.29443  0.30947  0.98096  1.0000
  H   H400      1.0  0.16276  0.39210  0.63415  1.0000
  H   H401      1.0  0.01785  0.38338  0.92558  1.0000
  C   C238      1.0  0.02255  0.40851  0.96107  1.0000
  C   C239      1.0  0.18672  0.24695  0.57954  1.0000
  C   C240      1.0  0.98605  0.45503  0.72358  1.0000
  H   H402      1.0  0.98437  0.47055  0.71723  1.0000
  Fe  Fe29      1.0  0.07556  0.40391  0.72056  1.0000
  S   S56       1.0  0.07645  0.43407  0.74323  1.0000
  S   S57       1.0  0.09222  0.37700  0.73770  1.0000
  Fe  Fe30      1.0  0.04351  0.41362  0.66368  1.0000
  S   S58       1.0  0.04182  0.44446  0.68089  1.0000
  S   S59       1.0  0.02521  0.39887  0.62006  1.0000
  Fe  Fe31      1.0  0.07303  0.44271  0.68047  1.0000
  S   S60       1.0  0.08986  0.46666  0.65680  1.0000
  Fe  Fe32      1.0  0.04515  0.43344  0.74184  1.0000
  S   S61       1.0  0.02641  0.44778  0.78560  1.0000
  S   S62       1.0  0.07456  0.41266  0.65776  1.0000
  S   S63       1.0  0.04439  0.40260  0.72463  1.0000
  Fe  Fe33      1.0  0.22406  0.31817  0.84351  1.0000
  S   S64       1.0  0.19702  0.32854  0.86890  1.0000
  S   S65       1.0  0.25356  0.31876  0.86724  1.0000
  Fe  Fe34      1.0  0.20548  0.30297  0.77043  1.0000
  S   S66       1.0  0.17655  0.31157  0.78899  1.0000
  S   S67       1.0  0.21508  0.28686  0.71758  1.0000
  Fe  Fe35      1.0  0.18937  0.33897  0.80856  1.0000
  S   S68       1.0  0.17551  0.36847  0.80162  1.0000
  Fe  Fe36      1.0  0.18604  0.30068  0.84762  1.0000
  S   S69       1.0  0.16765  0.28309  0.88470  1.0000
  S   S70       1.0  0.21768  0.33126  0.78510  1.0000
  S   S71       1.0  0.21361  0.28940  0.82701  1.0000
  H   H403      1.0  0.10907  0.38872  0.66692  1.0000
  C   C241      1.0  0.20336  0.26545  0.71113  1.0000
  C   C242      1.0  0.18550  0.26346  0.72575  1.0000
  H   H404      1.0  0.17919  0.27478  0.74290  1.0000
  C   C243      1.0  0.99364  0.47794  0.89795  1.0000
  H   H405      1.0  0.11061  0.43164  0.68033  1.0000
  H   H406      1.0  0.16517  0.42397  0.60894  1.0000
  H   H407      1.0  0.02886  0.48730  0.89799  1.0000
  C   C244      1.0  0.00617  0.41128  0.59834  1.0000
  C   C245      1.0  0.00323  0.43097  0.60370  1.0000
  C   C246      1.0  0.98792  0.44043  0.58538  1.0000
  H   H408      1.0  0.15963  0.41530  0.70938  1.0000
  H   H409      1.0  0.14178  0.36585  0.87502  1.0000
  H   H410      1.0  0.01280  0.43889  0.62159  1.0000
  H   H411      1.0  0.01751  0.48527  0.83507  1.0000
  C   C247      1.0  0.01311  0.43218  0.81290  1.0000
  C   C248      1.0  0.01881  0.41306  0.81820  1.0000
  C   C249      1.0  0.00853  0.40112  0.84188  1.0000
  C   C250      1.0  0.99264  0.40829  0.86064  1.0000
  C   C251      1.0  0.98673  0.42731  0.85474  1.0000
  C   C252      1.0  0.99686  0.43916  0.83059  1.0000
  H   H412      1.0  0.03138  0.40757  0.80486  1.0000
  H   H413      1.0  0.01306  0.38636  0.84620  1.0000
  H   H414      1.0  0.98807  0.48514  0.79277  1.0000
  H   H415      1.0  0.99206  0.45375  0.82561  1.0000
  C   C253      1.0  0.08326  0.47441  0.60973  1.0000
  C   C254      1.0  0.07067  0.46406  0.58717  1.0000
  C   C255      1.0  0.03625  0.44219  0.91419  1.0000
  H   H416      1.0  0.01786  0.42438  0.52726  1.0000
  H   H417      1.0  0.06506  0.45102  0.59835  1.0000
  H   H418      1.0  0.05803  0.44109  0.95708  1.0000
  H   H419      1.0  0.29327  0.37713  0.59168  1.0000
  C   C256      1.0  0.11583  0.37583  0.75282  1.0000
  C   C257      1.0  0.12367  0.39017  0.77566  1.0000
  C   C258      1.0  0.14213  0.38791  0.78987  1.0000
  C   C259      1.0  0.15275  0.37123  0.78174  1.0000
  C   C260      1.0  0.14501  0.35709  0.75830  1.0000
  C   C261      1.0  0.12660  0.35937  0.74400  1.0000
  H   H420      1.0  0.11536  0.40275  0.78321  1.0000
  H   H421      1.0  0.14807  0.39891  0.80801  1.0000
  H   H422      1.0  0.15318  0.34435  0.75133  1.0000
  H   H423      1.0  0.12058  0.34820  0.72644  1.0000
  C   C262      1.0  0.18153  0.26691  0.91237  1.0000
  H   H424      1.0  0.08379  0.33908  0.87122  1.0000
  C   C263      1.0  0.27207  0.26088  0.73683  1.0000
  H   H425      1.0  0.98563  0.45564  0.58940  1.0000
  H   H426      1.0  0.98657  0.38477  0.68373  1.0000
  H   H427      1.0  0.16707  0.25727  0.62361  1.0000
  H   H428      1.0  0.98194  0.45297  0.75400  1.0000
  C   C264      1.0  0.24330  0.31751  0.94414  1.0000
  C   C265      1.0  0.25774  0.31609  0.91750  1.0000
  C   C266      1.0  0.27613  0.31303  0.93100  1.0000
  C   C267      1.0  0.28020  0.31171  0.97095  1.0000
  H   H429      1.0  0.13039  0.29726  0.91512  1.0000
  H   H430      1.0  0.22908  0.31991  0.93393  1.0000
  H   H431      1.0  0.28724  0.31186  0.91037  1.0000
  H   H432      1.0  0.00930  0.48708  0.76749  1.0000
  H   H433      1.0  0.08289  0.35435  0.82956  1.0000
  H   H434      1.0  0.23628  0.31810  0.00474  1.0000
  H   H435      1.0  0.27764  0.41419  0.53345  1.0000
  H   H436      1.0  0.13640  0.31776  0.78777  1.0000
  H   H437      1.0  0.25910  0.31383  0.78007  1.0000
  C   C268      1.0  0.29321  0.28181  0.83093  1.0000
  C   C269      1.0  0.14502  0.43650  0.65075  1.0000
  H   H438      1.0  0.20687  0.28203  0.90436  1.0000
  C   C270      1.0  0.21151  0.25066  0.68924  1.0000
  H   H439      1.0  0.11156  0.32185  0.78262  1.0000
  C   C271      1.0  0.21456  0.25924  0.55023  1.0000
  C   C272      1.0  0.15439  0.43551  0.61085  1.0000
  N   N18       1.0  0.29470  0.37338  0.52880  1.0000
  H   H440      1.0  0.98189  0.46876  0.90576  1.0000
  H   H441      1.0  0.27264  0.39834  0.57318  1.0000
  C   C273      1.0  0.97865  0.41063  0.55614  1.0000
  H   H442      1.0  0.25542  0.30183  0.73421  1.0000
  N   N19       1.0  0.27202  0.26598  0.77933  1.0000
  H   H443      1.0  0.00584  0.44766  0.96151  1.0000
  C   C274      1.0  0.00800  0.44376  0.99233  1.0000
  H   H444      1.0  0.03700  0.39677  0.90973  1.0000
  H   H445      1.0  0.00105  0.45123  0.72032  1.0000
  H   H446      1.0  0.14503  0.31652  0.93105  1.0000
  H   H447      1.0  0.01474  0.40219  0.98528  1.0000
  H   H448      1.0  0.16408  0.35474  0.88228  1.0000
  H   H449      1.0  0.23507  0.25158  0.79957  1.0000
  C   C275      1.0  0.06547  0.47048  0.54980  1.0000
  H   H450      1.0  0.03800  0.40838  0.52371  1.0000
  C   C276      1.0  0.29157  0.27077  0.79226  1.0000
  C   C277      1.0  0.07265  0.48732  0.53484  1.0000
  H   H451      1.0  0.14660  0.35053  0.91689  1.0000
  H   H452      1.0  0.11220  0.35862  0.86466  1.0000
  H   H453      1.0  0.11606  0.34965  0.81751  1.0000
  H   H454      1.0  0.02948  0.45505  0.92696  1.0000
  H   H455      1.0  0.19807  0.30035  0.52876  1.0000
  C   C278      1.0  0.27700  0.38394  0.51625  1.0000
  H   H456      1.0  0.11637  0.41111  0.70849  1.0000
  H   H457      1.0  0.13373  0.44779  0.64746  1.0000
  S   S72       1.0  0.26923  0.29766  0.53140  1.0000
  H   H458      1.0  0.01176  0.41619  0.94302  1.0000
  H   H459      1.0  0.11437  0.38057  0.61959  1.0000
  H   H460      1.0  0.10356  0.32044  0.90580  1.0000
  H   H461      1.0  0.00355  0.46898  0.88123  1.0000
  N   N20       1.0  0.97200  0.42279  0.70328  1.0000
  H   H462      1.0  0.13161  0.37768  0.65731  1.0000
  H   H463      1.0  0.12503  0.31056  0.95781  1.0000
  C   C279      1.0  0.01252  0.48971  0.64834  1.0000
  C   C280      1.0  0.99388  0.40117  0.57452  1.0000
  C   C281      1.0  0.26583  0.24954  0.80380  1.0000
  C   C282      1.0  0.12248  0.42387  0.69522  1.0000
  H   H464      1.0  0.24444  0.27897  0.77443  1.0000
  C   C283      1.0  0.18099  0.29292  0.60579  1.0000
  C   C284      1.0  0.97563  0.43025  0.56156  1.0000
  C   C285      1.0  0.99141  0.41388  0.70718  1.0000
  C   C286      1.0  0.24740  0.31645  0.98420  1.0000
  H   H465      1.0  0.99611  0.38593  0.57028  1.0000
  C   C287      1.0  0.04781  0.43090  0.94497  1.0000
  N   N21       1.0  0.19548  0.26488  0.56509  1.0000
  H   H466      1.0  0.98631  0.38634  0.73642  1.0000
  H   H467      1.0  0.12133  0.29812  0.78336  1.0000
  H   H468      1.0  0.05590  0.46236  0.53229  1.0000
  H   H469      1.0  0.29877  0.27913  0.76984  1.0000
  H   H470      1.0  0.99877  0.41921  0.73365  1.0000
  C   C288      1.0  0.27685  0.35308  0.57789  1.0000
  H   H471      1.0  0.25759  0.25994  0.72482  1.0000
  H   H472      1.0  0.16132  0.44924  0.60553  1.0000
  C   C289      1.0  0.12886  0.43668  0.72931  1.0000
  H   H473      1.0  0.28757  0.29671  0.82821  1.0000
  C   C290      1.0  0.20074  0.26937  0.91580  1.0000
  H   H474      1.0  0.00040  0.48262  0.92542  1.0000
  H   H475      1.0  0.25527  0.40327  0.53778  1.0000
  H   H476      1.0  0.27819  0.30252  0.75664  1.0000
  H   H477      1.0  0.16715  0.28723  0.59873  1.0000
  H   H478      1.0  0.14384  0.43394  0.58710  1.0000
  H   H479      1.0  0.15539  0.44247  0.67160  1.0000
  C   C291      1.0  0.97396  0.44378  0.69468  1.0000
  H   H480      1.0  0.03009  0.49254  0.58176  1.0000
  C   C292      1.0  0.15217  0.40644  0.68760  1.0000
  C   C293      1.0  0.09040  0.49133  0.59492  1.0000
  H   H481      1.0  0.02582  0.43330  0.89911  1.0000
  H   H482      1.0  0.18104  0.29619  0.63740  1.0000
  H   H483      1.0  0.11715  0.33980  0.92119  1.0000
  H   H484      1.0  0.11671  0.44016  0.74772  1.0000
  H   H485      1.0  0.04855  0.48440  0.64169  1.0000
  C   C294      1.0  0.99201  0.49275  0.63467  1.0000
  H   H486      1.0  0.13414  0.45054  0.71930  1.0000
  C   C295      1.0  0.16762  0.39699  0.66299  1.0000
  H   H487      1.0  0.05628  0.41988  0.92929  1.0000
  H   H488      1.0  0.01748  0.47567  0.63635  1.0000
  H   H489      1.0  0.14603  0.39511  0.70563  1.0000
  H   H490      1.0  0.13937  0.42929  0.74846  1.0000
  H   H491      1.0  0.22943  0.25726  0.60715  1.0000
  H   H492      1.0  0.20957  0.28885  0.59083  1.0000
  H   H493      1.0  0.25673  0.28616  0.81585  1.0000
  H   H494      1.0  0.27839  0.27245  0.71968  1.0000
  C   C296      1.0  0.18402  0.27259  0.53108  1.0000
  C   C297      1.0  0.25864  0.28271  0.78462  1.0000
  C   C298      1.0  0.26319  0.30114  0.76241  1.0000
  N   N22       1.0  0.03706  0.42183  0.97695  1.0000
  C   C299      1.0  0.02990  0.39174  0.93595  1.0000
  H   H495      1.0  0.08725  0.32937  0.82322  1.0000
  N   N23       1.0  0.13727  0.41823  0.66642  1.0000
  C   C300      1.0  0.12779  0.40718  0.63434  1.0000
  H   H496      1.0  0.03908  0.38160  0.95268  1.0000
  C   C301      1.0  0.12042  0.38750  0.64579  1.0000
  C   C302      1.0  0.26588  0.31367  0.99774  1.0000
  H   H497      1.0  0.13711  0.40429  0.60964  1.0000
  H   H498      1.0  0.11588  0.41584  0.62162  1.0000
  H   H499      1.0  0.98022  0.44554  0.66567  1.0000
  S   S73       1.0  0.98073  0.39342  0.89213  1.0000
  H   H500      1.0  0.22192  0.27199  0.53982  1.0000
  H   H501      1.0  0.16981  0.27732  0.53943  1.0000
  C   C303      1.0  0.16697  0.24921  0.59585  1.0000
  C   C304      1.0  0.19784  0.27933  0.59734  1.0000
  H   H502      1.0  0.17943  0.40673  0.65966  1.0000
  H   H503      1.0  0.03983  0.43265  0.54055  1.0000
  N   N24       1.0  0.12330  0.32944  0.86323  1.0000
  C   C305      1.0  0.14340  0.33499  0.86103  1.0000
  C   C306      1.0  0.12088  0.31113  0.84070  1.0000
  C   C307      1.0  0.11786  0.32611  0.90467  1.0000
  C   C308      1.0  0.11116  0.34550  0.84658  1.0000
  C   C309      1.0  0.14893  0.35251  0.88550  1.0000
  C   C310      1.0  0.12266  0.31261  0.79621  1.0000
  C   C311      1.0  0.13046  0.31180  0.92798  1.0000
  C   C312      1.0  0.09014  0.34158  0.84269  1.0000
  H   H504      1.0  0.15301  0.32281  0.86920  1.0000
  H   H505      1.0  0.14703  0.33842  0.83073  1.0000
  H   H506      1.0  0.10715  0.30484  0.84654  1.0000
  H   H507      1.0  0.13145  0.30006  0.85032  1.0000
  H   H508      1.0  0.15674  0.25558  0.57479  1.0000
  H   H509      1.0  0.20876  0.28838  0.99535  1.0000
  H   H510      1.0  0.98368  0.48092  0.64595  1.0000
  H   H511      1.0  0.99809  0.43253  0.99977  1.0000
  H   H512      1.0  0.20185  0.27198  0.62497  1.0000
  H   H513      1.0  0.26512  0.25382  0.83487  1.0000
  H   H514      1.0  0.05920  0.40005  0.98338  1.0000
  H   H515      1.0  0.04571  0.44728  0.89148  1.0000
  H   H516      1.0  0.97694  0.48945  0.85074  1.0000
  H   H517      1.0  0.00007  0.41805  0.68226  1.0000
  C   C313      1.0  0.29368  0.36563  0.56958  1.0000
  H   H518      1.0  0.17293  0.38377  0.67795  1.0000
  H   H519      1.0  0.21333  0.24958  0.52477  1.0000
  C   C314      1.0  0.99265  0.39180  0.70970  1.0000
  H   H520      1.0  0.30044  0.25750  0.79577  1.0000
  H   H521      1.0  0.18166  0.26105  0.50947  1.0000
  H   H522      1.0  0.18255  0.30691  0.59115  1.0000
  H   H523      1.0  0.30002  0.26512  0.93173  1.0000
  H   H524      1.0  0.27719  0.33951  0.56121  1.0000
  C   C315      1.0  0.17360  0.25107  0.92976  1.0000
  H   H525      1.0  0.00755  0.38709  0.71093  1.0000
  H   H526      1.0  0.22709  0.25732  0.93609  1.0000
  H   H527      1.0  0.26335  0.36086  0.57270  1.0000
  C   C316      1.0  0.17534  0.24721  0.71643  1.0000
  H   H528      1.0  0.03898  0.48580  0.71056  1.0000
  H   H529      1.0  0.22548  0.25203  0.67857  1.0000
  C   C317      1.0  0.99982  0.49467  0.78784  1.0000
  H   H530      1.0  0.27736  0.34894  0.60903  1.0000
  C   C318      1.0  0.21217  0.25548  0.93432  1.0000
  C   C319      1.0  0.22816  0.24923  0.57953  1.0000
  H   H531      1.0  0.01191  0.48773  0.68028  1.0000
  H   H532      1.0  0.15871  0.24920  0.92750  1.0000
  C   C320      1.0  0.27058  0.40092  0.54175  1.0000
  C   C321      1.0  0.98588  0.49512  0.87433  1.0000
  C   C322      1.0  0.19241  0.28934  0.50900  1.0000
  C   C323      1.0  0.02812  0.43694  0.00272  1.0000
  H   H533      1.0  0.18807  0.24865  0.82920  1.0000
  C   C324      1.0  0.05073  0.41001  0.00158  1.0000
  H   H534      1.0  0.28620  0.27457  0.85497  1.0000
  H   H535      1.0  0.99035  0.49233  0.60265  1.0000
  H   H536      1.0  0.24227  0.24834  0.56677  1.0000
  H   H537      1.0  0.97434  0.43285  0.86875  1.0000
  Fe  Fe37      1.0  0.29958  0.29867  0.55031  1.0000
  H   H538      1.0  0.03686  0.44982  0.00467  1.0000
  C   C325      1.0  0.03263  0.42330  0.51934  1.0000
  H   H539      1.0  0.06194  0.49410  0.70552  1.0000
  H   H540      1.0  0.97054  0.42434  0.76654  1.0000
  H   H541      1.0  0.97205  0.40942  0.64636  1.0000
  H   H542      1.0  0.26517  0.37409  0.51236  1.0000
  H   H543      1.0  0.19637  0.30970  0.00828  1.0000
  H   H544      1.0  0.28440  0.71032  0.17955  1.0000
  C   C326      1.0  0.26841  0.59188  0.12804  1.0000
  H   H545      1.0  0.98031  0.52344  0.42434  1.0000
  H   H546      1.0  0.02537  0.52322  0.18101  1.0000
  H   H547      1.0  0.28678  0.63149  0.44367  1.0000
  S   S74       1.0  0.26622  0.67193  0.13499  1.0000
  H   H548      1.0  0.98275  0.57406  0.11838  1.0000
  H   H549      1.0  0.00227  0.51012  0.42650  1.0000
  Fe  Fe38      1.0  0.07030  0.52463  0.46637  1.0000
  H   H550      1.0  0.23916  0.67032  0.38316  1.0000
  H   H551      1.0  0.27038  0.62297  0.17263  1.0000
  H   H552      1.0  0.26718  0.64815  0.48518  1.0000
  Fe  Fe39      1.0  0.06096  0.54847  0.39403  1.0000
  S   S75       1.0  0.06753  0.57634  0.42304  1.0000
  S   S76       1.0  0.05305  0.54483  0.33085  1.0000
  Fe  Fe40      1.0  0.09266  0.56036  0.44732  1.0000
  H   H553      1.0  0.28595  0.63617  0.14435  1.0000
  H   H554      1.0  0.00118  0.53584  0.42485  1.0000
  H   H555      1.0  0.00132  0.51279  0.25432  1.0000
  S   S77       1.0  0.08712  0.53302  0.41497  1.0000
  S   S78       1.0  0.04373  0.53809  0.44259  1.0000
  Fe  Fe41      1.0  0.20982  0.66845  0.32316  1.0000
  S   S79       1.0  0.18247  0.67075  0.29001  1.0000
  S   S80       1.0  0.23831  0.65685  0.30552  1.0000
  Fe  Fe42      1.0  0.19405  0.68800  0.39474  1.0000
  S   S81       1.0  0.16553  0.69198  0.36817  1.0000
  S   S82       1.0  0.20395  0.69893  0.45300  1.0000
  Fe  Fe43      1.0  0.16931  0.66180  0.34614  1.0000
  S   S83       1.0  0.14345  0.64344  0.34410  1.0000
  Fe  Fe44      1.0  0.18058  0.70047  0.31472  1.0000
  S   S84       1.0  0.17061  0.72754  0.28484  1.0000
  S   S85       1.0  0.19694  0.65705  0.37733  1.0000
  S   S86       1.0  0.20884  0.69893  0.34316  1.0000
  C   C327      1.0  0.26524  0.66146  0.46765  1.0000
  H   H556      1.0  0.27002  0.69381  0.42297  1.0000
  C   C328      1.0  0.19814  0.72307  0.46194  1.0000
  H   H557      1.0  0.29554  0.59815  0.18697  1.0000
  S   S87       1.0  0.07837  0.55034  0.50109  1.0000
  C   C329      1.0  0.22594  0.64572  0.46060  1.0000
  C   C330      1.0  0.25959  0.57941  0.09609  1.0000
  C   C331      1.0  0.99608  0.52240  0.36882  1.0000
  S   S88       1.0  0.12116  0.57381  0.45117  1.0000
  H   H558      1.0  0.24511  0.63473  0.14407  1.0000
  C   C332      1.0  0.02962  0.50850  0.17165  1.0000
  H   H559      1.0  0.98477  0.53342  0.29856  1.0000
  C   C333      1.0  0.18284  0.73419  0.24355  1.0000
  H   H560      1.0  0.97506  0.50245  0.14426  1.0000
  H   H561      1.0  0.99850  0.53727  0.35916  1.0000
  C   C334      1.0  0.30132  0.71866  0.24885  1.0000
  C   C335      1.0  0.00283  0.50987  0.12644  1.0000
  H   H562      1.0  0.25747  0.61743  0.06611  1.0000
  H   H563      1.0  0.15294  0.69815  0.04995  1.0000
  C   C336      1.0  0.00308  0.58074  0.07531  1.0000
  C   C337      1.0  0.98890  0.56988  0.09111  1.0000
  C   C338      1.0  0.98284  0.55359  0.07155  1.0000
  C   C339      1.0  0.99077  0.54830  0.03625  1.0000
  H   H564      1.0  0.29377  0.62907  0.39436  1.0000
  H   H565      1.0  0.00788  0.59329  0.09046  1.0000
  C   C340      1.0  0.09435  0.61086  0.49981  1.0000
  H   H566      1.0  0.08543  0.62896  0.43283  1.0000
  H   H567      1.0  0.05368  0.50997  0.21084  1.0000
  C   C341      1.0  0.03160  0.55517  0.31524  1.0000
  C   C342      1.0  0.02482  0.55117  0.27778  1.0000
  C   C343      1.0  0.00756  0.55896  0.26481  1.0000
  C   C344      1.0  0.99702  0.57084  0.28925  1.0000
  C   C345      1.0  0.00405  0.57523  0.32637  1.0000
  C   C346      1.0  0.02128  0.56733  0.33947  1.0000
  H   H568      1.0  0.03286  0.54188  0.25887  1.0000
  H   H569      1.0  0.00244  0.55586  0.23587  1.0000
  H   H570      1.0  0.99599  0.58453  0.34526  1.0000
  H   H571      1.0  0.02650  0.57059  0.36832  1.0000
  C   C347      1.0  0.12713  0.59365  0.42245  1.0000
  C   C348      1.0  0.11403  0.60276  0.39771  1.0000
  C   C349      1.0  0.11924  0.61817  0.37442  1.0000
  C   C350      1.0  0.13755  0.62478  0.37589  1.0000
  C   C351      1.0  0.15056  0.61601  0.40143  1.0000
  C   C352      1.0  0.14535  0.60047  0.42453  1.0000
  H   H572      1.0  0.09991  0.59787  0.39640  1.0000
  H   H573      1.0  0.10905  0.62506  0.35511  1.0000
  H   H574      1.0  0.16470  0.62096  0.40283  1.0000
  H   H575      1.0  0.15557  0.59358  0.44379  1.0000
  H   H576      1.0  0.05946  0.51446  0.16164  1.0000
  H   H577      1.0  0.99825  0.51029  0.09537  1.0000
  H   H578      1.0  0.00955  0.51482  0.36259  1.0000
  H   H579      1.0  0.25082  0.71198  0.15505  1.0000
  C   C353      1.0  0.29865  0.61241  0.17519  1.0000
  H   H580      1.0  0.16826  0.67781  0.04928  1.0000
  C   C354      1.0  0.26140  0.72218  0.14594  1.0000
  C   C355      1.0  0.24308  0.62692  0.11641  1.0000
  C   C356      1.0  0.28199  0.62137  0.15184  1.0000
  H   H581      1.0  0.17126  0.72255  0.43315  1.0000
  C   C357      1.0  0.28975  0.60482  0.04686  1.0000
  C   C358      1.0  0.25918  0.66878  0.18324  1.0000
  C   C359      1.0  0.27152  0.66179  0.21214  1.0000
  C   C360      1.0  0.26499  0.65831  0.24967  1.0000
  C   C361      1.0  0.24623  0.66214  0.25867  1.0000
  C   C362      1.0  0.23407  0.66970  0.23007  1.0000
  C   C363      1.0  0.24050  0.67281  0.19239  1.0000
  C   C364      1.0  0.25534  0.67666  0.49344  1.0000
  H   H582      1.0  0.27448  0.65253  0.27176  1.0000
  H   H583      1.0  0.21961  0.67275  0.23670  1.0000
  H   H584      1.0  0.23089  0.67829  0.17018  1.0000
  H   H585      1.0  0.21846  0.71981  0.18551  1.0000
  H   H586      1.0  0.20160  0.70955  0.24402  1.0000
  H   H587      1.0  0.07910  0.65162  0.45283  1.0000
  C   C365      1.0  0.03377  0.51686  0.10213  1.0000
  C   C366      1.0  0.27091  0.64985  0.40133  1.0000
  N   N25       1.0  0.98033  0.51373  0.34587  1.0000
  C   C367      1.0  0.21058  0.73419  0.48336  1.0000
  C   C368      1.0  0.03394  0.53848  0.11097  1.0000
  C   C369      1.0  0.18094  0.73106  0.44969  1.0000
  H   H588      1.0  0.28391  0.74272  0.26867  1.0000
  H   H589      1.0  0.04850  0.51167  0.09970  1.0000
  H   H590      1.0  0.02775  0.51555  0.07224  1.0000
  H   H591      1.0  0.06079  0.61270  0.46613  1.0000
  H   H592      1.0  0.24638  0.73188  0.28257  1.0000
  H   H593      1.0  0.30178  0.59538  0.10152  1.0000
  H   H594      1.0  0.09279  0.60166  0.47362  1.0000
  H   H595      1.0  0.99984  0.52459  0.13749  1.0000
  C   C370      1.0  0.28150  0.63115  0.41323  1.0000
  H   H596      1.0  0.04189  0.54166  0.13798  1.0000
  H   H597      1.0  0.04093  0.54586  0.08691  1.0000
  H   H598      1.0  0.01970  0.54488  0.11266  1.0000
  Fe  Fe45      1.0  0.29632  0.67126  0.11644  1.0000
  H   H599      1.0  0.27969  0.58271  0.14151  1.0000
  H   H600      1.0  0.14323  0.67527  0.05589  1.0000
  H   H601      1.0  0.27946  0.66685  0.46312  1.0000
  N   N26       1.0  0.02337  0.50482  0.13032  1.0000
  H   H602      1.0  0.26738  0.63744  0.08811  1.0000
  C   C371      1.0  0.24208  0.64164  0.43270  1.0000
  H   H603      1.0  0.26476  0.64759  0.37173  1.0000
  H   H604      1.0  0.26530  0.73920  0.47024  1.0000
  H   H605      1.0  0.12921  0.63791  0.04505  1.0000
  C   C372      1.0  0.00036  0.50780  0.28477  1.0000
  C   C373      1.0  0.15409  0.68298  0.04032  1.0000
  C   C374      1.0  0.19775  0.72292  0.22984  1.0000
  H   H606      1.0  0.28598  0.65880  0.20547  1.0000
  N   N27       1.0  0.09986  0.57632  0.28564  1.0000
  C   C375      1.0  0.11711  0.57284  0.31090  1.0000
  C   C376      1.0  0.10553  0.58881  0.25244  1.0000
  C   C377      1.0  0.09398  0.55712  0.27042  1.0000
  C   C378      1.0  0.08487  0.58556  0.31010  1.0000
  C   C379      1.0  0.11520  0.55902  0.34543  1.0000
  C   C380      1.0  0.11198  0.60899  0.26381  1.0000
  C   C381      1.0  0.07777  0.55696  0.24041  1.0000
  C   C382      1.0  0.06793  0.59531  0.28875  1.0000
  H   H607      1.0  0.12894  0.56719  0.29330  1.0000
  H   H608      1.0  0.12198  0.58640  0.32383  1.0000
  H   H609      1.0  0.09426  0.59096  0.23044  1.0000
  H   H610      1.0  0.11705  0.58165  0.23611  1.0000
  H   H611      1.0  0.10603  0.54937  0.25698  1.0000
  H   H612      1.0  0.08946  0.54789  0.29456  1.0000
  H   H613      1.0  0.07923  0.57495  0.33044  1.0000
  H   H614      1.0  0.09095  0.59664  0.32928  1.0000
  H   H615      1.0  0.11340  0.54403  0.33587  1.0000
  H   H616      1.0  0.12826  0.55908  0.36333  1.0000
  H   H617      1.0  0.10377  0.56353  0.36486  1.0000
  H   H618      1.0  0.12562  0.60856  0.27959  1.0000
  H   H619      1.0  0.11401  0.61742  0.23699  1.0000
  H   H620      1.0  0.10152  0.61700  0.28120  1.0000
  H   H621      1.0  0.07554  0.54190  0.23156  1.0000
  H   H622      1.0  0.08070  0.56487  0.21349  1.0000
  H   H623      1.0  0.06446  0.56204  0.25308  1.0000
  H   H624      1.0  0.05485  0.58871  0.29817  1.0000
  H   H625      1.0  0.06797  0.59456  0.25681  1.0000
  H   H626      1.0  0.06678  0.61067  0.29695  1.0000
  H   H627      1.0  0.15295  0.64435  0.04748  1.0000
  H   H628      1.0  0.11005  0.65303  0.42929  1.0000
  H   H629      1.0  0.17601  0.65319  0.01387  1.0000
  H   H630      1.0  0.98591  0.53588  0.02077  1.0000
  C   C383      1.0  0.10819  0.64508  0.45682  1.0000
  C   C384      1.0  0.98327  0.51788  0.30344  1.0000
  H   H631      1.0  0.04868  0.64450  0.45091  1.0000
  S   S89       1.0  0.07589  0.55910  0.01642  1.0000
  H   H632      1.0  0.24614  0.70647  0.28675  1.0000
  C   C385      1.0  0.08595  0.50410  0.07435  1.0000
  H   H633      1.0  0.29434  0.70527  0.25607  1.0000
  C   C386      1.0  0.26449  0.71995  0.02556  1.0000
  H   H634      1.0  0.25489  0.72392  0.04926  1.0000
  S   S90       1.0  0.02954  0.58844  0.02140  1.0000
  H   H635      1.0  0.08926  0.51847  0.06579  1.0000
  H   H636      1.0  0.30168  0.62177  0.20050  1.0000
  H   H637      1.0  0.25820  0.59375  0.15181  1.0000
  H   H638      1.0  0.24587  0.71440  0.21868  1.0000
  C   C387      1.0  0.24674  0.67443  0.41022  1.0000
  H   H639      1.0  0.26642  0.70159  0.23122  1.0000
  N   N28       1.0  0.25615  0.65710  0.42887  1.0000
  Fe  Fe46      1.0  0.05277  0.56434  0.47427  1.0000
  H   H640      1.0  0.11845  0.63294  0.45634  1.0000
  H   H641      1.0  0.26767  0.71626  0.11912  1.0000
  H   H642      1.0  0.24901  0.57026  0.10927  1.0000
  C   C388      1.0  0.05074  0.50565  0.18034  1.0000
  H   H643      1.0  0.30204  0.62033  0.09317  1.0000
  H   H644      1.0  0.27033  0.56999  0.08236  1.0000
  H   H645      1.0  0.27401  0.70834  0.03694  1.0000
  C   C389      1.0  0.27624  0.73678  0.01277  1.0000
  H   H646      1.0  0.23578  0.68072  0.42857  1.0000
  N   N29       1.0  0.08226  0.62878  0.49540  1.0000
  H   H647      1.0  0.21598  0.63388  0.45836  1.0000
  N   N30       1.0  0.27598  0.61075  0.11568  1.0000
  H   H648      1.0  0.28542  0.74068  0.03775  1.0000
  C   C390      1.0  0.01137  0.57515  0.04035  1.0000
  H   H649      1.0  0.25182  0.58767  0.07343  1.0000
  C   C391      1.0  0.25968  0.69080  0.39962  1.0000
  H   H650      1.0  0.23587  0.63815  0.40367  1.0000
  H   H651      1.0  0.01365  0.51135  0.29961  1.0000
  C   C392      1.0  0.99467  0.52269  0.41347  1.0000
  H   H652      1.0  0.11170  0.65496  0.48087  1.0000
  H   H653      1.0  0.21963  0.73484  0.38723  1.0000
  C   C393      1.0  0.14219  0.63838  0.02803  1.0000
  N   N31       1.0  0.27061  0.73133  0.21625  1.0000
  C   C394      1.0  0.20745  0.72884  0.19711  1.0000
  H   H654      1.0  0.24880  0.62815  0.44373  1.0000
  H   H655      1.0  0.25111  0.70408  0.39437  1.0000
  C   C395      1.0  0.29296  0.60774  0.09086  1.0000
  H   H656      1.0  0.23570  0.61350  0.12166  1.0000
  H   H657      1.0  0.10132  0.50523  0.12886  1.0000
  C   C396      1.0  0.25941  0.71586  0.23432  1.0000
  H   H658      1.0  0.14591  0.62319  0.02146  1.0000
  H   H659      1.0  0.21790  0.65902  0.45340  1.0000
  H   H660      1.0  0.28185  0.66064  0.39780  1.0000
  C   C397      1.0  0.26150  0.62327  0.09485  1.0000
  C   C398      1.0  0.08784  0.63847  0.45835  1.0000
  C   C399      1.0  0.25474  0.71857  0.27751  1.0000
  C   C400      1.0  0.27697  0.72451  0.17701  1.0000
  H   H661      1.0  0.01534  0.54872  0.49134  1.0000
  H   H662      1.0  0.23369  0.63623  0.09806  1.0000
  H   H663      1.0  0.25440  0.73599  0.13797  1.0000
  C   C401      1.0  0.00499  0.55905  0.02073  1.0000
  H   H664      1.0  0.26744  0.71826  0.29636  1.0000
  H   H665      1.0  0.28005  0.59329  0.03993  1.0000
  H   H666      1.0  0.26707  0.68751  0.37228  1.0000
  H   H667      1.0  0.28483  0.61834  0.03262  1.0000
  H   H668      1.0  0.27276  0.61848  0.40858  1.0000
  H   H669      1.0  0.22400  0.72812  0.49245  1.0000
  H   H670      1.0  0.02263  0.49880  0.19199  1.0000
  C   C402      1.0  0.28757  0.73567  0.24074  1.0000
  H   H671      1.0  0.23099  0.64605  0.49124  1.0000
  H   H672      1.0  0.10936  0.61424  0.50193  1.0000
  H   H673      1.0  0.04996  0.65221  0.50113  1.0000
  H   H674      1.0  0.03371  0.63464  0.48580  1.0000
  H   H675      1.0  0.23997  0.67732  0.49096  1.0000
  H   H676      1.0  0.29933  0.72291  0.41537  1.0000
  H   H677      1.0  0.28747  0.73417  0.16495  1.0000
  C   C403      1.0  0.06219  0.62324  0.49019  1.0000
  H   H678      1.0  0.26096  0.69102  0.48830  1.0000
  C   C404      1.0  0.04804  0.63981  0.48160  1.0000
  S   S91       1.0  0.97489  0.57998  0.27456  1.0000
  H   H679      1.0  0.19960  0.74602  0.33377  1.0000
  S   S92       1.0  0.30335  0.65820  0.05909  1.0000
  C   C405      1.0  0.20258  0.74619  0.17869  1.0000
  H   H680      1.0  0.29597  0.74657  0.22626  1.0000
  H   H681      1.0  0.24487  0.74619  0.19842  1.0000
  H   H682      1.0  0.30332  0.60082  0.03356  1.0000
  H   H683      1.0  0.97084  0.51395  0.28571  1.0000
  H   H684      1.0  0.25880  0.67340  0.52435  1.0000
  C   C406      1.0  0.18034  0.74267  0.99742  1.0000
  H   H685      1.0  0.10738  0.60867  0.73199  1.0000
  C   C407      1.0  0.28964  0.74017  0.53916  1.0000
  H   H686      1.0  0.16772  0.71388  0.56589  1.0000
  S   S93       1.0  0.25964  0.66627  0.61224  1.0000
  H   H687      1.0  0.22922  0.71764  0.64090  1.0000
  H   H688      1.0  0.01849  0.52963  0.88191  1.0000
  C   C408      1.0  0.10674  0.59612  0.79040  1.0000
  H   H689      1.0  0.12447  0.65754  0.99360  1.0000
  H   H690      1.0  0.15807  0.74667  0.57117  1.0000
  H   H691      1.0  0.18156  0.69187  0.52500  1.0000
  Fe  Fe47      1.0  0.06034  0.55293  0.90852  1.0000
  S   S94       1.0  0.06523  0.58206  0.93388  1.0000
  S   S95       1.0  0.05347  0.54496  0.84643  1.0000
  Fe  Fe48      1.0  0.09059  0.56803  0.96214  1.0000
  S   S96       1.0  0.11920  0.58139  0.96267  1.0000
  H   H692      1.0  0.25422  0.71517  0.71911  1.0000
  C   C409      1.0  0.18914  0.68451  0.54938  1.0000
  S   S97       1.0  0.08666  0.53946  0.93320  1.0000
  S   S98       1.0  0.04294  0.54358  0.95756  1.0000
  Fe  Fe49      1.0  0.20410  0.66512  0.80237  1.0000
  S   S99       1.0  0.17691  0.66564  0.76865  1.0000
  S   S100      1.0  0.23194  0.65249  0.78354  1.0000
  Fe  Fe50      1.0  0.18773  0.68730  0.87019  1.0000
  S   S101      1.0  0.15953  0.69026  0.84165  1.0000
  S   S102      1.0  0.19505  0.69742  0.93056  1.0000
  Fe  Fe51      1.0  0.16355  0.65923  0.82590  1.0000
  S   S103      1.0  0.13757  0.64146  0.83160  1.0000
  Fe  Fe52      1.0  0.17507  0.69637  0.78749  1.0000
  S   S104      1.0  0.16436  0.71972  0.74724  1.0000
  S   S105      1.0  0.19098  0.65584  0.85800  1.0000
  S   S106      1.0  0.20303  0.69631  0.81764  1.0000
  H   H693      1.0  0.03406  0.53637  0.58327  1.0000
  C   C410      1.0  0.08504  0.49784  0.55758  1.0000
  C   C411      1.0  0.18436  0.71891  0.94642  1.0000
  C   C412      1.0  0.98880  0.54960  0.57194  1.0000
  H   H694      1.0  0.01204  0.51063  0.58256  1.0000
  H   H695      1.0  0.10029  0.64224  0.53778  1.0000
  H   H696      1.0  0.05980  0.61369  0.84895  1.0000
  C   C413      1.0  0.17133  0.72908  0.92309  1.0000
  H   H697      1.0  0.01370  0.52112  0.68595  1.0000
  H   H698      1.0  0.23956  0.73448  0.60999  1.0000
  H   H699      1.0  0.07764  0.62197  0.81883  1.0000
  H   H700      1.0  0.16789  0.72396  0.89430  1.0000
  C   C414      1.0  0.18148  0.73371  0.72671  1.0000
  C   C415      1.0  0.20037  0.72827  0.72966  1.0000
  C   C416      1.0  0.17075  0.74216  0.58824  1.0000
  C   C417      1.0  0.27150  0.74208  0.76941  1.0000
  H   H701      1.0  0.20464  0.71543  0.74518  1.0000
  H   H702      1.0  0.13538  0.63865  0.96723  1.0000
  C   C418      1.0  0.98931  0.52557  0.84120  1.0000
  C   C419      1.0  0.00995  0.57607  0.57203  1.0000
  C   C420      1.0  0.99579  0.56593  0.58984  1.0000
  C   C421      1.0  0.02611  0.50670  0.59459  1.0000
  S   S107      1.0  0.98115  0.58397  0.77032  1.0000
  Fe  Fe53      1.0  0.05020  0.57118  0.98597  1.0000
  H   H703      1.0  0.01529  0.58876  0.58577  1.0000
  H   H704      1.0  0.18261  0.66561  0.97259  1.0000
  H   H705      1.0  0.26474  0.69406  0.70192  1.0000
  H   H706      1.0  0.10011  0.49942  0.61230  1.0000
  C   C422      1.0  0.03383  0.55649  0.82510  1.0000
  C   C423      1.0  0.02826  0.55140  0.78737  1.0000
  C   C424      1.0  0.01216  0.55988  0.77023  1.0000
  C   C425      1.0  0.00168  0.57359  0.79068  1.0000
  C   C426      1.0  0.00757  0.57905  0.82801  1.0000
  C   C427      1.0  0.02356  0.57040  0.84537  1.0000
  H   H707      1.0  0.03626  0.54070  0.77160  1.0000
  H   H708      1.0  0.00794  0.55597  0.74112  1.0000
  H   H709      1.0  0.99957  0.58976  0.84379  1.0000
  H   H710      1.0  0.02785  0.57443  0.87445  1.0000
  C   C428      1.0  0.12445  0.59937  0.92881  1.0000
  C   C429      1.0  0.14299  0.60157  0.91758  1.0000
  C   C430      1.0  0.14737  0.61498  0.88888  1.0000
  C   C431      1.0  0.13323  0.62638  0.87141  1.0000
  C   C432      1.0  0.11482  0.62469  0.88378  1.0000
  C   C433      1.0  0.11047  0.61135  0.91252  1.0000
  H   H711      1.0  0.15392  0.59243  0.93019  1.0000
  H   H712      1.0  0.16158  0.61601  0.87929  1.0000
  H   H713      1.0  0.10382  0.63355  0.87061  1.0000
  H   H714      1.0  0.09624  0.61019  0.92179  1.0000
  H   H715      1.0  0.17841  0.63781  0.93094  1.0000
  H   H716      1.0  0.11040  0.55786  0.79659  1.0000
  H   H717      1.0  0.07130  0.58916  0.75566  1.0000
  H   H718      1.0  0.08625  0.61525  0.75689  1.0000
  C   C434      1.0  0.09097  0.59818  0.53527  1.0000
  H   H719      1.0  0.23640  0.71071  0.59255  1.0000
  H   H720      1.0  0.10427  0.56983  0.88113  1.0000
  H   H721      1.0  0.12354  0.57799  0.85269  1.0000
  H   H722      1.0  0.10774  0.62559  0.77023  1.0000
  H   H723      1.0  0.11866  0.58788  0.77762  1.0000
  H   H724      1.0  0.99022  0.57081  0.61721  1.0000
  C   C435      1.0  0.25228  0.66248  0.66008  1.0000
  C   C436      1.0  0.26416  0.65396  0.68812  1.0000
  C   C437      1.0  0.25771  0.65088  0.72584  1.0000
  C   C438      1.0  0.23951  0.65660  0.73594  1.0000
  C   C439      1.0  0.22779  0.66553  0.70811  1.0000
  C   C440      1.0  0.23411  0.66825  0.67020  1.0000
  H   H725      1.0  0.27816  0.64939  0.68056  1.0000
  H   H726      1.0  0.26682  0.64392  0.74725  1.0000
  H   H727      1.0  0.21375  0.67000  0.71565  1.0000
  H   H728      1.0  0.22486  0.67472  0.64859  1.0000
  C   C441      1.0  0.22996  0.72230  0.61026  1.0000
  H   H729      1.0  0.27171  0.68078  0.77426  1.0000
  H   H730      1.0  0.29367  0.68172  0.72332  1.0000
  C   C442      1.0  0.14996  0.66639  0.93355  1.0000
  H   H731      1.0  0.99471  0.50787  0.77275  1.0000
  H   H732      1.0  0.05606  0.50788  0.64344  1.0000
  C   C443      1.0  0.08918  0.56651  0.73484  1.0000
  C   C444      1.0  0.03898  0.52154  0.57704  1.0000
  H   H733      1.0  0.10018  0.58516  0.53324  1.0000
  H   H734      1.0  0.17908  0.67874  0.56982  1.0000
  H   H735      1.0  0.09501  0.60538  0.56270  1.0000
  H   H736      1.0  0.16108  0.67554  0.92228  1.0000
  N   N32       1.0  0.19577  0.71470  0.59143  1.0000
  C   C445      1.0  0.01726  0.56976  0.53660  1.0000
  H   H737      1.0  0.06916  0.62426  0.57033  1.0000
  H   H738      1.0  0.26739  0.74231  0.80033  1.0000
  H   H739      1.0  0.00652  0.52962  0.63958  1.0000
  N   N33       1.0  0.02579  0.50530  0.63830  1.0000
  H   H740      1.0  0.21231  0.70251  0.54494  1.0000
  C   C446      1.0  0.27555  0.72000  0.67836  1.0000
  H   H741      1.0  0.07935  0.56562  0.70962  1.0000
  C   C447      1.0  0.07926  0.57688  0.76852  1.0000
  H   H742      1.0  0.23297  0.73181  0.98051  1.0000
  H   H743      1.0  0.21266  0.68846  0.58792  1.0000
  H   H744      1.0  0.18327  0.72757  0.53986  1.0000
  Fe  Fe54      1.0  0.29043  0.66441  0.59876  1.0000
  H   H745      1.0  0.03848  0.52005  0.54490  1.0000
  H   H746      1.0  0.16056  0.69257  0.98307  1.0000
  H   H747      1.0  0.04333  0.51116  0.71282  1.0000
  C   C448      1.0  0.03285  0.54021  0.66006  1.0000
  H   H748      1.0  0.22826  0.73486  0.71341  1.0000
  H   H749      1.0  0.06829  0.56724  0.77891  1.0000
  C   C449      1.0  0.10131  0.61203  0.76070  1.0000
  C   C450      1.0  0.06844  0.60976  0.82356  1.0000
  H   H750      1.0  0.09038  0.55375  0.82449  1.0000
  H   H751      1.0  0.13018  0.69107  0.92762  1.0000
  C   C451      1.0  0.21373  0.73915  0.71134  1.0000
  H   H752      1.0  0.24766  0.71686  0.79285  1.0000
  C   C452      1.0  0.27116  0.69648  0.78016  1.0000
  H   H753      1.0  0.27862  0.73495  0.68648  1.0000
  S   S108      1.0  0.06552  0.50158  0.00546  1.0000
  H   H754      1.0  0.25668  0.71380  0.00075  1.0000
  C   C453      1.0  0.17235  0.65518  0.98282  1.0000
  H   H755      1.0  0.12958  0.67451  0.88845  1.0000
  H   H756      1.0  0.07651  0.59311  0.53632  1.0000
  H   H757      1.0  0.28800  0.71288  0.66568  1.0000
  H   H758      1.0  0.00597  0.51720  0.91735  1.0000
  H   H759      1.0  0.04671  0.53722  0.64779  1.0000
  C   C454      1.0  0.17691  0.63594  0.96264  1.0000
  C   C455      1.0  0.26798  0.70861  0.71269  1.0000
  H   H760      1.0  0.08261  0.64247  0.59190  1.0000
  H   H761      1.0  0.05379  0.51943  0.58582  1.0000
  C   C456      1.0  0.01887  0.52381  0.65623  1.0000
  H   H762      1.0  0.16637  0.73983  0.61851  1.0000
  H   H763      1.0  0.19679  0.67209  0.53641  1.0000
  H   H764      1.0  0.19057  0.63018  0.97384  1.0000
  C   C457      1.0  0.07386  0.63899  0.56601  1.0000
  C   C458      1.0  0.10095  0.56462  0.81818  1.0000
  H   H765      1.0  0.27871  0.69836  0.80840  1.0000
  Fe  Fe55      1.0  0.06954  0.53191  0.98457  1.0000
  H   H766      1.0  0.26478  0.72069  0.65487  1.0000
  H   H767      1.0  0.99860  0.53407  0.82301  1.0000
  H   H768      1.0  0.24133  0.69649  0.76335  1.0000
  H   H769      1.0  0.06164  0.64910  0.56700  1.0000
  H   H770      1.0  0.16321  0.69775  0.61706  1.0000
  H   H771      1.0  0.16638  0.62507  0.96809  1.0000
  C   C459      1.0  0.18871  0.72566  0.98369  1.0000
  N   N34       1.0  0.28054  0.70720  0.74825  1.0000
  C   C460      1.0  0.01326  0.51525  0.88931  1.0000
  C   C461      1.0  0.28672  0.72647  0.76237  1.0000
  H   H772      1.0  0.28584  0.73089  0.99049  1.0000
  H   H773      1.0  0.18843  0.72204  0.65054  1.0000
  H   H774      1.0  0.24614  0.69371  0.81374  1.0000
  H   H775      1.0  0.15126  0.65276  0.91724  1.0000
  H   H776      1.0  0.02240  0.50836  0.81713  1.0000
  H   H777      1.0  0.20334  0.70210  0.64711  1.0000
  C   C462      1.0  0.99599  0.54340  0.53648  1.0000
  N   N35       1.0  0.99993  0.50843  0.85803  1.0000
  H   H778      1.0  0.04172  0.50546  0.87456  1.0000
  C   C463      1.0  0.17929  0.72385  0.56990  1.0000
  H   H779      1.0  0.12065  0.55313  0.86168  1.0000
  C   C464      1.0  0.13803  0.64965  0.99002  1.0000
  H   H780      1.0  0.18002  0.68038  0.63707  1.0000
  N   N36       1.0  0.15271  0.66307  0.97661  1.0000
  H   H781      1.0  0.02697  0.55322  0.64521  1.0000
  H   H782      1.0  0.09070  0.51080  0.54618  1.0000
  S   S109      1.0  0.03524  0.58230  0.51481  1.0000
  C   C465      1.0  0.03119  0.50279  0.89700  1.0000
  H   H783      1.0  0.11897  0.66818  0.93248  1.0000
  H   H784      1.0  0.09328  0.55157  0.74283  1.0000
  H   H785      1.0  0.05857  0.60795  0.79882  1.0000
  H   H786      1.0  0.10158  0.57414  0.72516  1.0000
  H   H787      1.0  0.11275  0.60322  0.81647  1.0000
  H   H788      1.0  0.08166  0.65726  0.51968  1.0000
  H   H789      1.0  0.21326  0.73554  0.56476  1.0000
  N   N37       1.0  0.09170  0.58272  0.80202  1.0000
  C   C466      1.0  0.17494  0.69554  0.63789  1.0000
  H   H790      1.0  0.16876  0.69832  0.66680  1.0000
  H   H791      1.0  0.03486  0.54417  0.69107  1.0000
  C   C467      1.0  0.25045  0.70150  0.78744  1.0000
  C   C468      1.0  0.19112  0.70920  0.63233  1.0000
  H   H792      1.0  0.26381  0.73829  0.94292  1.0000
  C   C469      1.0  0.07981  0.59136  0.83351  1.0000
  C   C470      1.0  0.20339  0.69768  0.56901  1.0000
  C   C471      1.0  0.13101  0.67559  0.92052  1.0000
  S   S110      1.0  0.97642  0.53722  0.70583  1.0000
  C   C472      1.0  0.11298  0.56685  0.85546  1.0000
  H   H793      1.0  0.08846  0.59513  0.85912  1.0000
  H   H794      1.0  0.06981  0.58077  0.84396  1.0000
  C   C473      1.0  0.21079  0.72936  0.59383  1.0000
  H   H795      1.0  0.27521  0.71337  0.53292  1.0000
  H   H796      1.0  0.97616  0.50281  0.89401  1.0000
  H   H797      1.0  0.05705  0.61569  0.51582  1.0000
  H   H798      1.0  0.03758  0.50667  0.92538  1.0000
  H   H799      1.0  0.27071  0.72512  0.57727  1.0000
  H   H800      1.0  0.99057  0.53082  0.52246  1.0000
  H   H801      1.0  0.25893  0.74099  0.75068  1.0000
  H   H802      1.0  0.30262  0.71276  0.91245  1.0000
  H   H803      1.0  0.97773  0.52099  0.82157  1.0000
  S   S111      1.0  0.29959  0.65416  0.54041  1.0000
  C   C474      1.0  0.27248  0.72772  0.54580  1.0000
  S   S112      1.0  0.30198  0.69342  0.59075  1.0000
  H   H804      1.0  0.99079  0.54635  0.88996  1.0000
  H   H805      1.0  0.29700  0.73253  0.74247  1.0000
  C   C475      1.0  0.98035  0.53970  0.87046  1.0000
  C   C476      1.0  0.01017  0.55344  0.51892  1.0000
  H   H806      1.0  0.20643  0.74166  0.61231  1.0000
  H   H807      1.0  0.29847  0.73870  0.56603  1.0000
  H   H808      1.0  0.29795  0.73329  0.51581  1.0000
  H   H809      1.0  0.23084  0.73872  0.93080  1.0000
  H   H810      1.0  0.25915  0.73309  0.53286  1.0000
  C   C477      1.0  0.29767  0.69557  0.73681  1.0000
  H   H811      1.0  0.98566  0.50615  0.64625  1.0000
  H   H812      1.0  0.29467  0.72502  0.79030  1.0000
  C   C478      1.0  0.15079  0.68236  0.99608  1.0000
  H   H813      1.0  0.19859  0.71773  0.00205  1.0000
  H   H814      1.0  0.13657  0.68874  0.99120  1.0000
  C   C479      1.0  0.08525  0.64231  0.52899  1.0000
  H   H815      1.0  0.01065  0.55513  0.99306  1.0000
  H   H816      1.0  0.97337  0.55161  0.85385  1.0000
  C   C480      1.0  0.23532  0.74365  0.96011  1.0000
  C   C481      1.0  0.04480  0.49879  0.65353  1.0000
  C   C482      1.0  0.16286  0.74610  0.93695  1.0000
  C   C483      1.0  0.01080  0.49904  0.82563  1.0000
  C   C484      1.0  0.04705  0.49751  0.69815  1.0000
  S   S113      1.0  0.97135  0.53626  0.59319  1.0000
  H   H817      1.0  0.98905  0.94111  0.19348  1.0000
  H   H818      1.0  0.18894  0.74975  0.37887  1.0000
  C   C485      1.0  0.06068  0.95398  0.04463  1.0000
  H   H819      1.0  0.05678  0.98575  0.14193  1.0000
  H   H820      1.0  0.00549  0.97686  0.41105  1.0000
  H   H821      1.0  0.26784  0.78115  0.06390  1.0000
  H   H822      1.0  0.00595  0.98314  0.26540  1.0000
  C   C486      1.0  0.02463  0.95218  0.36599  1.0000
  H   H823      1.0  0.98910  0.93377  0.14462  1.0000
  Fe  Fe56      1.0  0.05304  0.91665  0.24155  1.0000
  S   S114      1.0  0.04465  0.94738  0.23182  1.0000
  S   S115      1.0  0.04003  0.90117  0.29111  1.0000
  Fe  Fe57      1.0  0.08097  0.91539  0.17594  1.0000
  S   S116      1.0  0.07481  0.94644  0.16187  1.0000
  S   S117      1.0  0.10069  0.90143  0.13213  1.0000
  Fe  Fe58      1.0  0.07517  0.95154  0.22606  1.0000
  S   S118      1.0  0.08613  0.97907  0.25006  1.0000
  Fe  Fe59      1.0  0.04483  0.93987  0.16868  1.0000
  S   S119      1.0  0.02352  0.95479  0.12914  1.0000
  S   S120      1.0  0.08403  0.92122  0.24024  1.0000
  S   S121      1.0  0.05049  0.90842  0.17858  1.0000
  Fe  Fe60      1.0  0.20134  0.77830  0.10626  1.0000
  S   S122      1.0  0.17046  0.78286  0.09998  1.0000
  C   C487      1.0  0.28174  0.76402  0.48729  1.0000
  C   C488      1.0  0.30348  0.86584  0.41305  1.0000
  H   H824      1.0  0.09010  0.82383  0.03389  1.0000
  C   C489      1.0  0.98040  0.93397  0.17091  1.0000
  Fe  Fe61      1.0  0.17581  0.81431  0.10695  1.0000
  S   S123      1.0  0.15672  0.82921  0.15067  1.0000
  H   H825      1.0  0.24769  0.77182  0.08518  1.0000
  C   C490      1.0  0.12730  0.81387  0.05829  1.0000
  S   S124      1.0  0.20668  0.80916  0.11813  1.0000
  C   C491      1.0  0.11072  0.80521  0.11673  1.0000
  C   C492      1.0  0.10291  0.94594  0.45290  1.0000
  H   H826      1.0  0.23083  0.75433  0.36505  1.0000
  C   C493      1.0  0.01728  0.90913  0.30208  1.0000
  C   C494      1.0  0.00965  0.90441  0.33788  1.0000
  C   C495      1.0  0.99162  0.91102  0.34736  1.0000
  H   H827      1.0  0.97237  0.90405  0.16069  1.0000
  C   C496      1.0  0.98862  0.92660  0.28486  1.0000
  C   C497      1.0  0.00670  0.92022  0.27556  1.0000
  H   H828      1.0  0.01782  0.89582  0.35848  1.0000
  H   H829      1.0  0.18389  0.77085  0.17855  1.0000
  C   C498      1.0  0.25845  0.74924  0.21289  1.0000
  H   H830      1.0  0.01241  0.92369  0.24774  1.0000
  C   C499      1.0  0.01578  0.94020  0.09092  1.0000
  C   C500      1.0  0.02288  0.92151  0.08689  1.0000
  C   C501      1.0  0.01599  0.90965  0.05745  1.0000
  H   H831      1.0  0.24073  0.75150  0.03219  1.0000
  H   H832      1.0  0.98057  0.93525  0.26446  1.0000
  C   C502      1.0  0.00198  0.94717  0.06485  1.0000
  H   H833      1.0  0.03377  0.91613  0.10626  1.0000
  H   H834      1.0  0.02157  0.89518  0.05445  1.0000
  C   C503      1.0  0.18768  0.75740  0.19245  1.0000
  H   H835      1.0  0.99665  0.96174  0.06730  1.0000
  C   C504      1.0  0.11687  0.88195  0.13892  1.0000
  C   C505      1.0  0.12927  0.87724  0.10897  1.0000
  C   C506      1.0  0.14176  0.86133  0.11221  1.0000
  C   C507      1.0  0.14195  0.84993  0.14553  1.0000
  C   C508      1.0  0.12970  0.85475  0.17564  1.0000
  C   C509      1.0  0.11722  0.87067  0.17242  1.0000
  H   H836      1.0  0.12915  0.88592  0.08300  1.0000
  H   H837      1.0  0.15121  0.85790  0.08895  1.0000
  H   H838      1.0  0.12979  0.84607  0.20161  1.0000
  H   H839      1.0  0.10779  0.87411  0.19569  1.0000
  H   H840      1.0  0.98534  0.95879  0.36861  1.0000
  H   H841      1.0  0.99598  0.98281  0.50026  1.0000
  C   C510      1.0  0.12753  0.81867  0.01460  1.0000
  H   H842      1.0  0.08704  0.97319  0.49278  1.0000
  C   C511      1.0  0.25308  0.82131  0.47556  1.0000
  C   C512      1.0  0.25773  0.82003  0.43621  1.0000
  C   C513      1.0  0.07160  0.97261  0.36264  1.0000
  H   H843      1.0  0.22325  0.78779  0.40765  1.0000
  N   N38       1.0  0.07748  0.94474  0.50548  1.0000
  H   H844      1.0  0.24679  0.82020  0.41418  1.0000
  H   H845      1.0  0.97639  0.96159  0.12062  1.0000
  C   C514      1.0  0.29054  0.81897  0.45381  1.0000
  H   H846      1.0  0.09106  0.77314  0.10020  1.0000
  C   C515      1.0  0.08171  0.98323  0.29949  1.0000
  C   C516      1.0  0.07462  0.96898  0.32305  1.0000
  H   H847      1.0  0.10994  0.84941  0.06345  1.0000
  H   H848      1.0  0.13265  0.82633  0.07471  1.0000
  C   C517      1.0  0.16052  0.77108  0.34763  1.0000
  H   H849      1.0  0.07179  0.95505  0.31091  1.0000
  C   C518      1.0  0.04167  0.94722  0.49021  1.0000
  H   H850      1.0  0.97100  0.86960  0.30992  1.0000
  C   C519      1.0  0.17596  0.74996  0.45997  1.0000
  C   C520      1.0  0.18819  0.76098  0.48229  1.0000
  H   H851      1.0  0.25476  0.75476  0.24209  1.0000
  S   S125      1.0  0.20621  0.78027  0.04244  1.0000
  C   C521      1.0  0.99631  0.99374  0.27902  1.0000
  H   H852      1.0  0.27896  0.77209  0.20753  1.0000
  H   H853      1.0  0.22712  0.77972  0.27233  1.0000
  H   H854      1.0  0.02979  0.99675  0.42591  1.0000
  H   H855      1.0  0.09685  0.80346  0.13003  1.0000
  H   H856      1.0  0.16606  0.75997  0.23477  1.0000
  H   H857      1.0  0.28638  0.91864  0.38868  1.0000
  H   H858      1.0  0.29524  0.87009  0.27952  1.0000
  H   H859      1.0  0.07460  0.95477  0.05916  1.0000
  H   H860      1.0  0.08578  0.85311  0.07249  1.0000
  Fe  Fe62      1.0  0.17574  0.78766  0.03711  1.0000
  H   H861      1.0  0.28073  0.77962  0.48050  1.0000
  C   C522      1.0  0.06188  0.94517  0.47537  1.0000
  C   C523      1.0  0.98483  0.97080  0.34750  1.0000
  H   H862      1.0  0.97116  0.91149  0.21109  1.0000
  H   H863      1.0  0.26778  0.75644  0.08065  1.0000
  H   H864      1.0  0.03094  0.97514  0.32719  1.0000
  H   H865      1.0  0.27321  0.86341  0.40031  1.0000
  C   C524      1.0  0.97879  0.91294  0.18369  1.0000
  H   H866      1.0  0.98593  0.90751  0.37522  1.0000
  C   C525      1.0  0.07532  0.99061  0.37866  1.0000
  H   H867      1.0  0.28922  0.91262  0.33927  1.0000
  H   H868      1.0  0.98177  0.98888  0.27662  1.0000
  C   C526      1.0  0.21105  0.79762  0.40348  1.0000
  C   C527      1.0  0.99502  0.93528  0.03543  1.0000
  H   H869      1.0  0.03199  0.95862  0.39117  1.0000
  S   S126      1.0  0.28162  0.81919  0.37547  1.0000
  S   S127      1.0  0.21551  0.75386  0.13912  1.0000
  H   H870      1.0  0.06642  0.96145  0.38077  1.0000
  H   H871      1.0  0.05719  0.93864  0.04427  1.0000
  H   H872      1.0  0.09164  0.92082  0.47707  1.0000
  N   N39       1.0  0.10880  0.80792  0.07341  1.0000
  H   H873      1.0  0.20282  0.77698  0.26489  1.0000
  C   C528      1.0  0.01830  0.96748  0.33595  1.0000
  H   H874      1.0  0.21695  0.75821  0.28831  1.0000
  H   H875      1.0  0.11349  0.93636  0.43910  1.0000
  C   C529      1.0  0.25165  0.76194  0.02607  1.0000
  C   C530      1.0  0.21852  0.75051  0.38199  1.0000
  C   C531      1.0  0.98127  0.98746  0.49580  1.0000
  H   H876      1.0  0.13810  0.80236  0.06318  1.0000
  H   H877      1.0  0.30049  0.85153  0.34203  1.0000
  H   H878      1.0  0.06240  0.93178  0.45777  1.0000
  H   H879      1.0  0.98865  0.97296  0.18637  1.0000
  S   S128      1.0  0.17907  0.81944  0.04293  1.0000
  H   H880      1.0  0.27107  0.76248  0.16139  1.0000
  H   H881      1.0  0.98253  0.96394  0.31878  1.0000
  C   C532      1.0  0.17771  0.75130  0.22454  1.0000
  H   H882      1.0  0.03576  0.99465  0.37648  1.0000
  H   H883      1.0  0.03450  0.93339  0.48778  1.0000
  H   H884      1.0  0.08362  0.76671  0.05242  1.0000
  H   H885      1.0  0.28747  0.77288  0.01719  1.0000
  H   H886      1.0  0.18347  0.80006  0.38061  1.0000
  C   C533      1.0  0.09463  0.93546  0.48778  1.0000
  H   H887      1.0  0.11615  0.81833  0.13076  1.0000
  C   C534      1.0  0.28591  0.82100  0.49308  1.0000
  H   H888      1.0  0.03469  0.94199  0.35218  1.0000
  H   H889      1.0  0.28001  0.86042  0.44972  1.0000
  C   C535      1.0  0.26718  0.82222  0.50401  1.0000
  H   H890      1.0  0.11032  0.95894  0.46216  1.0000
  H   H891      1.0  0.21886  0.75735  0.41094  1.0000
  H   H892      1.0  0.13609  0.79410  0.14650  1.0000
  H   H893      1.0  0.03356  0.95736  0.47114  1.0000
  H   H894      1.0  0.18744  0.77949  0.40951  1.0000
  H   H895      1.0  0.26226  0.75951  0.43964  1.0000
  H   H896      1.0  0.20757  0.80358  0.43248  1.0000
  H   H897      1.0  0.25617  0.77791  0.18870  1.0000
  H   H898      1.0  0.01400  0.95958  0.30932  1.0000
  C   C536      1.0  0.20567  0.75314  0.49321  1.0000
  C   C537      1.0  0.09804  0.84348  0.07899  1.0000
  C   C538      1.0  0.98108  0.92208  0.32073  1.0000
  H   H899      1.0  0.06384  0.95697  0.45437  1.0000
  N   N40       1.0  0.00292  0.98123  0.34852  1.0000
  H   H900      1.0  0.23860  0.82231  0.48376  1.0000
  H   H901      1.0  0.28419  0.87050  0.34341  1.0000
  C   C539      1.0  0.25955  0.76807  0.06601  1.0000
  C   C540      1.0  0.27644  0.81895  0.42520  1.0000
  H   H902      1.0  0.12908  0.77910  0.10730  1.0000
  H   H903      1.0  0.11536  0.77945  0.05049  1.0000
  C   C541      1.0  0.26691  0.76618  0.19132  1.0000
  N   N41       1.0  0.19621  0.77589  0.34986  1.0000
  C   C542      1.0  0.17821  0.77712  0.32643  1.0000
  C   C543      1.0  0.21135  0.78379  0.32517  1.0000
  C   C544      1.0  0.19367  0.78796  0.38605  1.0000
  C   C545      1.0  0.20005  0.75517  0.36017  1.0000
  C   C546      1.0  0.08713  0.77906  0.07125  1.0000
  C   C547      1.0  0.21452  0.77387  0.28565  1.0000
  H   H904      1.0  0.05075  0.96205  0.06315  1.0000
  C   C548      1.0  0.28902  0.90635  0.36887  1.0000
  H   H905      1.0  0.17555  0.79196  0.31542  1.0000
  H   H906      1.0  0.17900  0.76784  0.30033  1.0000
  H   H907      1.0  0.22505  0.78336  0.34069  1.0000
  H   H908      1.0  0.20826  0.79923  0.31894  1.0000
  H   H909      1.0  0.07435  0.78825  0.07348  1.0000
  C   C549      1.0  0.12378  0.78848  0.13069  1.0000
  H   H910      1.0  0.01288  0.94373  0.37624  1.0000
  C   C550      1.0  0.00200  0.91646  0.03178  1.0000
  Fe  Fe63      1.0  0.20947  0.81149  0.05324  1.0000
  H   H911      1.0  0.05959  0.99285  0.19079  1.0000
  H   H912      1.0  0.02720  0.97316  0.02786  1.0000
  H   H913      1.0  0.27938  0.88391  0.43051  1.0000
  H   H914      1.0  0.21509  0.80982  0.38519  1.0000
  H   H915      1.0  0.11642  0.77934  0.15141  1.0000
  H   H916      1.0  0.14819  0.77405  0.32836  1.0000
  H   H917      1.0  0.09229  0.94975  0.43022  1.0000
  H   H918      1.0  0.29326  0.75799  0.46945  1.0000
  C   C551      1.0  0.97576  0.97875  0.17191  1.0000
  C   C552      1.0  0.29937  0.86743  0.34207  1.0000
  H   H919      1.0  0.27690  0.89710  0.37114  1.0000
  C   C553      1.0  0.00626  0.98850  0.38914  1.0000
  S   S129      1.0  0.23460  0.82537  0.02782  1.0000
  H   H920      1.0  0.15820  0.77908  0.37500  1.0000
  H   H921      1.0  0.16249  0.75598  0.45102  1.0000
  C   C554      1.0  0.28279  0.86880  0.42317  1.0000
  C   C555      1.0  0.26399  0.75504  0.47048  1.0000
  H   H922      1.0  0.10062  0.84430  0.11075  1.0000
  C   C556      1.0  0.09374  0.82302  0.06541  1.0000
  H   H923      1.0  0.08057  0.81928  0.07969  1.0000
  C   C557      1.0  0.10330  0.78974  0.05306  1.0000
  H   H924      1.0  0.97684  0.98228  0.46670  1.0000
  H   H925      1.0  0.99308  0.90680  0.18913  1.0000
  H   H926      1.0  0.98433  0.94072  0.01549  1.0000
  H   H927      1.0  0.16075  0.75547  0.35348  1.0000
  H   H928      1.0  0.24409  0.77471  0.01350  1.0000
  S   S130      1.0  0.07105  0.99499  0.42821  1.0000
  H   H929      1.0  0.02886  0.98901  0.20099  1.0000
  S   S131      1.0  0.18137  0.78454  0.49516  1.0000
  H   H930      1.0  0.25114  0.76004  0.48518  1.0000
  H   H931      1.0  0.97965  0.99117  0.15400  1.0000
  H   H932      1.0  0.08983  0.98628  0.16302  1.0000
  H   H933      1.0  0.09901  0.79274  0.02238  1.0000
  H   H934      1.0  0.03051  0.94005  0.00859  1.0000
  H   H935      1.0  0.97041  0.92049  0.09848  1.0000
  H   H936      1.0  0.18362  0.74761  0.02641  1.0000
  H   H937      1.0  0.10604  0.93356  0.51006  1.0000
  H   H938      1.0  0.97271  0.89749  0.69673  1.0000
  H   H939      1.0  0.21147  0.79408  0.72394  1.0000
  H   H940      1.0  0.20158  0.76770  0.81868  1.0000
  H   H941      1.0  0.25979  0.77352  0.61190  1.0000
  H   H942      1.0  0.26857  0.83176  0.98756  1.0000
  H   H943      1.0  0.05771  0.91032  0.51071  1.0000
  S   S132      1.0  0.26479  0.79372  0.86726  1.0000
  H   H944      1.0  0.06337  0.90579  0.56072  1.0000
  Fe  Fe64      1.0  0.06983  0.92858  0.72718  1.0000
  S   S133      1.0  0.06076  0.95875  0.71395  1.0000
  S   S134      1.0  0.05961  0.91414  0.78079  1.0000
  Fe  Fe65      1.0  0.09285  0.92442  0.65413  1.0000
  S   S135      1.0  0.08549  0.95462  0.63528  1.0000
  S   S136      1.0  0.10706  0.90379  0.61197  1.0000
  Fe  Fe66      1.0  0.09040  0.96250  0.69780  1.0000
  C   C558      1.0  0.19850  0.81940  0.74912  1.0000
  Fe  Fe67      1.0  0.05645  0.94837  0.65307  1.0000
  S   S137      1.0  0.03122  0.95999  0.61965  1.0000
  S   S138      1.0  0.10023  0.93282  0.71564  1.0000
  S   S139      1.0  0.06310  0.91769  0.66755  1.0000
  Fe  Fe68      1.0  0.21443  0.79078  0.62400  1.0000
  S   S140      1.0  0.18515  0.79919  0.60560  1.0000
  S   S141      1.0  0.22528  0.76789  0.66523  1.0000
  Fe  Fe69      1.0  0.23203  0.81876  0.56869  1.0000
  S   S142      1.0  0.20421  0.83001  0.54559  1.0000
  S   S143      1.0  0.26174  0.82514  0.55327  1.0000
  Fe  Fe70      1.0  0.19490  0.82955  0.60797  1.0000
  S   S144      1.0  0.18100  0.85279  0.64518  1.0000
  Fe  Fe71      1.0  0.19650  0.79890  0.54508  1.0000
  H   H945      1.0  0.18031  0.75432  0.58697  1.0000
  S   S145      1.0  0.22361  0.82082  0.63082  1.0000
  S   S146      1.0  0.22482  0.78805  0.56365  1.0000
  H   H946      1.0  0.01198  0.97857  0.94521  1.0000
  H   H947      1.0  0.26453  0.80943  0.73899  1.0000
  C   C559      1.0  0.03634  0.92078  0.79095  1.0000
  C   C560      1.0  0.02843  0.91531  0.82603  1.0000
  C   C561      1.0  0.00977  0.92041  0.83400  1.0000
  C   C562      1.0  0.99901  0.93098  0.80683  1.0000
  C   C563      1.0  0.00706  0.93675  0.77224  1.0000
  C   C564      1.0  0.02555  0.93146  0.76406  1.0000
  H   H948      1.0  0.03669  0.90700  0.84691  1.0000
  H   H949      1.0  0.00363  0.91586  0.86078  1.0000
  H   H950      1.0  0.99893  0.94519  0.75151  1.0000
  H   H951      1.0  0.03134  0.93540  0.73666  1.0000
  C   C565      1.0  0.02006  0.94409  0.58798  1.0000
  C   C566      1.0  0.00488  0.95084  0.56531  1.0000
  C   C567      1.0  0.99530  0.93850  0.54044  1.0000
  C   C568      1.0  0.00093  0.91925  0.53813  1.0000
  C   C569      1.0  0.01622  0.91245  0.56059  1.0000
  C   C570      1.0  0.02576  0.92485  0.58555  1.0000
  H   H952      1.0  0.00038  0.96556  0.56742  1.0000
  H   H953      1.0  0.30043  0.78768  0.53645  1.0000
  H   H954      1.0  0.02053  0.89750  0.55899  1.0000
  H   H955      1.0  0.03739  0.91947  0.60299  1.0000
  C   C571      1.0  0.12815  0.89035  0.62056  1.0000
  C   C572      1.0  0.13282  0.87509  0.59559  1.0000
  C   C573      1.0  0.14907  0.86359  0.60231  1.0000
  C   C574      1.0  0.16078  0.86723  0.63423  1.0000
  C   C575      1.0  0.15614  0.88258  0.65906  1.0000
  C   C576      1.0  0.14004  0.89420  0.65205  1.0000
  H   H956      1.0  0.12378  0.87203  0.57102  1.0000
  H   H957      1.0  0.15245  0.85185  0.58296  1.0000
  H   H958      1.0  0.16519  0.88560  0.68365  1.0000
  H   H959      1.0  0.13683  0.90615  0.67098  1.0000
  C   C577      1.0  0.25660  0.80315  0.91149  1.0000
  C   C578      1.0  0.26728  0.81535  0.93446  1.0000
  H   H960      1.0  0.25684  0.76284  0.54729  1.0000
  H   H961      1.0  0.25320  0.78312  0.78340  1.0000
  C   C579      1.0  0.23206  0.80477  0.95957  1.0000
  C   C580      1.0  0.23891  0.79805  0.92398  1.0000
  H   H962      1.0  0.26796  0.78572  0.72101  1.0000
  Fe  Fe72      1.0  0.29459  0.79662  0.84786  1.0000
  H   H963      1.0  0.21844  0.80071  0.96895  1.0000
  H   H964      1.0  0.23053  0.78867  0.90633  1.0000
  C   C581      1.0  0.30319  0.77201  0.54006  1.0000
  H   H965      1.0  0.03667  0.96549  0.91804  1.0000
  H   H966      1.0  0.06139  0.93955  0.55742  1.0000
  H   H967      1.0  0.28778  0.76119  0.93060  1.0000
  H   H968      1.0  0.11780  0.83069  0.00670  1.0000
  H   H969      1.0  0.99754  0.90181  0.64326  1.0000
  H   H970      1.0  0.18513  0.77343  0.67052  1.0000
  C   C582      1.0  0.05336  0.98978  0.93255  1.0000
  H   H971      1.0  0.12459  0.80598  0.99640  1.0000
  C   C583      1.0  0.24411  0.78844  0.75882  1.0000
  N   N42       1.0  0.04381  0.96322  0.97967  1.0000
  H   H972      1.0  0.09458  0.96407  0.53878  1.0000
  H   H973      1.0  0.24956  0.80023  0.70064  1.0000
  H   H974      1.0  0.30202  0.77835  0.95389  1.0000
  H   H975      1.0  0.24085  0.82979  0.76553  1.0000
  H   H976      1.0  0.16145  0.75430  0.70301  1.0000
  S   S147      1.0  0.97531  0.93666  0.81435  1.0000
  C   C584      1.0  0.06175  0.96247  0.00335  1.0000
  H   H977      1.0  0.28088  0.81944  0.92499  1.0000
  H   H978      1.0  0.13336  0.85697  0.71931  1.0000
  H   H979      1.0  0.28334  0.78021  0.60746  1.0000
  H   H980      1.0  0.01541  0.99504  0.55233  1.0000
  H   H981      1.0  0.22942  0.78744  0.82913  1.0000
  C   C585      1.0  0.09830  0.98615  0.83092  1.0000
  H   H982      1.0  0.99034  0.94791  0.68452  1.0000
  H   H983      1.0  0.06033  0.95990  0.92790  1.0000
  C   C586      1.0  0.04683  0.99413  0.80344  1.0000
  C   C587      1.0  0.20828  0.75533  0.68966  1.0000
  H   H984      1.0  0.98678  0.99424  0.56851  1.0000
  C   C588      1.0  0.26029  0.82229  0.96988  1.0000
  C   C589      1.0  0.27935  0.76960  0.99030  1.0000
  C   C590      1.0  0.23818  0.81954  0.78936  1.0000
  H   H985      1.0  0.98506  0.91432  0.72482  1.0000
  H   H986      1.0  0.00542  0.89193  0.68858  1.0000
  C   C591      1.0  0.25590  0.74963  0.95897  1.0000
  C   C592      1.0  0.22797  0.83088  0.82142  1.0000
  N   N43       1.0  0.22896  0.80186  0.77362  1.0000
  C   C593      1.0  0.04656  0.92731  0.96263  1.0000
  Fe  Fe73      1.0  0.97285  0.91694  0.95627  1.0000
  H   H987      1.0  0.25560  0.76228  0.93931  1.0000
  H   H988      1.0  0.21899  0.76155  0.78457  1.0000
  H   H989      1.0  0.25221  0.81585  0.80219  1.0000
  H   H990      1.0  0.22597  0.75601  0.96757  1.0000
  H   H991      1.0  0.23811  0.77555  0.74515  1.0000
  H   H992      1.0  0.07306  0.99090  0.54590  1.0000
  S   S148      1.0  0.15750  0.77477  0.99067  1.0000
  C   C594      1.0  0.16754  0.75306  0.97397  1.0000
  H   H993      1.0  0.27186  0.78317  0.98196  1.0000
  H   H994      1.0  0.21339  0.83485  0.81332  1.0000
  H   H995      1.0  0.07288  0.95417  0.98804  1.0000
  H   H996      1.0  0.27753  0.75513  0.60884  1.0000
  C   C595      1.0  0.18944  0.76088  0.68691  1.0000
  H   H997      1.0  0.23538  0.84435  0.82716  1.0000
  H   H998      1.0  0.22836  0.82279  0.84919  1.0000
  H   H999      1.0  0.05692  0.98687  0.78398  1.0000
  H   H1000     1.0  0.20174  0.83484  0.74914  1.0000
  H   H1001     1.0  0.15295  0.75405  0.91873  1.0000
  H   H1002     1.0  0.08514  0.93318  0.56192  1.0000
  C   C596      1.0  0.04831  0.96872  0.93863  1.0000
  C   C597      1.0  0.27315  0.76947  0.59782  1.0000
  H   H1003     1.0  0.19187  0.81562  0.77660  1.0000
  H   H1004     1.0  0.20866  0.80074  0.81995  1.0000
  C   C598      1.0  0.24274  0.81691  0.98271  1.0000
  H   H1005     1.0  0.18766  0.81695  0.72629  1.0000
  H   H1006     1.0  0.00985  0.91631  0.67838  1.0000
  C   C599      1.0  0.17606  0.75008  0.70545  1.0000
  S   S149      1.0  0.98130  0.94345  0.92599  1.0000
  H   H1007     1.0  0.12320  0.83566  0.69941  1.0000
  H   H1008     1.0  0.29685  0.82181  0.51499  1.0000
  H   H1009     1.0  0.03852  0.91401  0.96499  1.0000
  C   C600      1.0  0.03473  0.94410  0.97904  1.0000
  C   C601      1.0  0.21924  0.79149  0.80552  1.0000
  H   H1010     1.0  0.02152  0.94474  0.96155  1.0000
  C   C602      1.0  0.21596  0.80697  0.74008  1.0000
  C   C603      1.0  0.03058  0.97761  0.99792  1.0000
  C   C604      1.0  0.06860  0.91205  0.53354  1.0000
  H   H1011     1.0  0.29646  0.84380  0.70370  1.0000
  H   H1012     1.0  0.08131  0.90346  0.52620  1.0000
  C   C605      1.0  0.99937  0.90504  0.67449  1.0000
  C   C606      1.0  0.27022  0.76976  0.55330  1.0000
  C   C607      1.0  0.10181  0.99613  0.76403  1.0000
  C   C608      1.0  0.98097  0.99409  0.86753  1.0000
  S   S150      1.0  0.10232  0.99097  0.71403  1.0000
  N   N44       1.0  0.09661  0.86744  0.73779  1.0000
  C   C609      1.0  0.07597  0.86574  0.74462  1.0000
  C   C610      1.0  0.09865  0.87378  0.69632  1.0000
  C   C611      1.0  0.10364  0.88278  0.76473  1.0000
  C   C612      1.0  0.10632  0.84838  0.74619  1.0000
  C   C613      1.0  0.07036  0.86136  0.78664  1.0000
  C   C614      1.0  0.08992  0.86071  0.66521  1.0000
  C   C615      1.0  0.12430  0.88777  0.76175  1.0000
  C   C616      1.0  0.12521  0.84429  0.72618  1.0000
  H   H1013     1.0  0.06822  0.87913  0.73558  1.0000
  H   H1014     1.0  0.07004  0.85414  0.72650  1.0000
  H   H1015     1.0  0.11337  0.87519  0.68864  1.0000
  H   H1016     1.0  0.09240  0.88841  0.69203  1.0000
  H   H1017     1.0  0.09528  0.89631  0.76037  1.0000
  H   H1018     1.0  0.10189  0.87874  0.79560  1.0000
  H   H1019     1.0  0.10868  0.84650  0.77803  1.0000
  H   H1020     1.0  0.09718  0.83654  0.73687  1.0000
  H   H1021     1.0  0.05532  0.85798  0.78675  1.0000
  H   H1022     1.0  0.07825  0.84887  0.79905  1.0000
  H   H1023     1.0  0.07188  0.87401  0.80582  1.0000
  H   H1024     1.0  0.09530  0.86449  0.63627  1.0000
  H   H1025     1.0  0.09345  0.84538  0.67025  1.0000
  H   H1026     1.0  0.07455  0.86295  0.66346  1.0000
  H   H1027     1.0  0.12807  0.89224  0.73223  1.0000
  H   H1028     1.0  0.13361  0.87586  0.77225  1.0000
  H   H1029     1.0  0.12702  0.90016  0.78106  1.0000
  H   H1030     1.0  0.13425  0.83520  0.74565  1.0000
  H   H1031     1.0  0.19852  0.77592  0.77000  1.0000
  H   H1032     1.0  0.03878  0.98275  0.81732  1.0000
  C   C617      1.0  0.20912  0.77318  0.79332  1.0000
  S   S151      1.0  0.99398  0.90160  0.99444  1.0000
  H   H1033     1.0  0.09632  0.96730  0.78140  1.0000
  C   C618      1.0  0.09843  0.98181  0.79109  1.0000
  H   H1034     1.0  0.27719  0.75625  0.76242  1.0000
  H   H1035     1.0  0.05816  0.99164  0.90236  1.0000
  H   H1036     1.0  0.26757  0.78493  0.54460  1.0000
  C   C619      1.0  0.98139  0.94210  0.66080  1.0000
  C   C620      1.0  0.01151  0.98088  0.97689  1.0000
  H   H1037     1.0  0.99143  0.93632  0.63951  1.0000
  H   H1038     1.0  0.06490  0.99421  0.95210  1.0000
  H   H1039     1.0  0.22339  0.81513  0.71781  1.0000
  S   S152      1.0  0.30143  0.81189  0.79300  1.0000
  C   C621      1.0  0.06702  0.97718  0.53633  1.0000
  H   H1040     1.0  0.05980  0.92485  0.97920  1.0000
  C   C622      1.0  0.25711  0.79675  0.72822  1.0000
  H   H1041     1.0  0.98787  0.98407  0.88869  1.0000
  N   N45       1.0  0.28590  0.76105  0.53003  1.0000
  C   C623      1.0  0.29402  0.76525  0.95900  1.0000
  C   C624      1.0  0.98091  0.91072  0.69441  1.0000
  H   H1042     1.0  0.09616  0.97492  0.85179  1.0000
  H   H1043     1.0  0.98334  0.94374  0.52365  1.0000
  H   H1044     1.0  0.04943  0.92931  0.93140  1.0000
  H   H1045     1.0  0.06113  0.97065  0.56246  1.0000
  H   H1046     1.0  0.03715  0.99168  0.00232  1.0000
  H   H1047     1.0  0.14170  0.82318  0.00700  1.0000
  C   C625      1.0  0.07311  0.93319  0.54097  1.0000
  H   H1048     1.0  0.05588  0.98103  0.51474  1.0000
  N   N46       1.0  0.26556  0.75414  0.99733  1.0000
  H   H1049     1.0  0.97707  0.91829  0.59943  1.0000
  C   C626      1.0  0.08250  0.96468  0.51789  1.0000
  H   H1050     1.0  0.21544  0.76163  0.50910  1.0000
  H   H1051     1.0  0.99026  0.99482  0.84228  1.0000
  H   H1052     1.0  0.98184  0.96917  0.63024  1.0000
  H   H1053     1.0  0.00663  0.99598  0.98082  1.0000
  H   H1054     1.0  0.00089  0.97140  0.98889  1.0000
  H   H1055     1.0  0.04033  0.95271  0.52003  1.0000
  H   H1056     1.0  0.97240  0.98024  0.51701  1.0000
  S   S153      1.0  0.98841  0.90333  0.50911  1.0000
  H   H1057     1.0  0.30300  0.83243  0.64515  1.0000
  C   C627      1.0  0.97124  0.95917  0.64045  1.0000
  H   H1058     1.0  0.06730  0.97707  0.00693  1.0000
  S   S154      1.0  0.35454  0.21337  0.26130  1.0000
  Fe  Fe74      1.0  0.33415  0.15141  0.31307  1.0000
  S   S155      1.0  0.35011  0.12359  0.30148  1.0000
  H   H1059     1.0  0.55468  0.01818  0.50285  1.0000
  S   S156      1.0  0.34825  0.17561  0.34325  1.0000
  H   H1060     1.0  0.41257  0.05612  0.29011  1.0000
  S   S157      1.0  0.46441  0.03788  0.43720  1.0000
  H   H1061     1.0  0.31342  0.07583  0.22261  1.0000
  Fe  Fe75      1.0  0.41401  0.05925  0.43667  1.0000
  S   S158      1.0  0.42151  0.03169  0.40588  1.0000
  S   S159      1.0  0.38496  0.07297  0.43947  1.0000
  Fe  Fe76      1.0  0.43886  0.02415  0.45918  1.0000
  S   S160      1.0  0.32450  0.16905  0.26143  1.0000
  Fe  Fe77      1.0  0.44651  0.04751  0.38685  1.0000
  S   S161      1.0  0.45577  0.04295  0.32546  1.0000
  C   C628      1.0  0.60656  0.14706  0.24221  1.0000
  S   S162      1.0  0.43792  0.07558  0.41391  1.0000
  Fe  Fe78      1.0  0.55129  0.05128  0.15250  1.0000
  S   S163      1.0  0.55968  0.07811  0.18330  1.0000
  S   S164      1.0  0.54049  0.04905  0.09097  1.0000
  Fe  Fe79      1.0  0.56524  0.02474  0.21777  1.0000
  S   S165      1.0  0.57533  0.04924  0.25393  1.0000
  H   H1062     1.0  0.37722  0.19226  0.45428  1.0000
  Fe  Fe80      1.0  0.54821  0.06386  0.23604  1.0000
  S   S166      1.0  0.53224  0.07927  0.28292  1.0000
  Fe  Fe81      1.0  0.58613  0.06159  0.19841  1.0000
  S   S167      1.0  0.61518  0.07380  0.19451  1.0000
  S   S168      1.0  0.53738  0.03857  0.20358  1.0000
  S   S169      1.0  0.57850  0.03553  0.16387  1.0000
  C   C629      1.0  0.34391  0.23510  0.24643  1.0000
  H   H1063     1.0  0.41388  0.12835  0.44514  1.0000
  H   H1064     1.0  0.57824  0.01175  0.30056  1.0000
  C   C630      1.0  0.47612  0.05453  0.31299  1.0000
  C   C631      1.0  0.48355  0.05137  0.27617  1.0000
  C   C632      1.0  0.50057  0.05929  0.26642  1.0000
  C   C633      1.0  0.51027  0.07031  0.29352  1.0000
  C   C634      1.0  0.50254  0.07394  0.32997  1.0000
  C   C635      1.0  0.48549  0.06602  0.33977  1.0000
  H   H1065     1.0  0.47621  0.04265  0.25531  1.0000
  H   H1066     1.0  0.50608  0.05702  0.23784  1.0000
  H   H1067     1.0  0.50991  0.08262  0.35089  1.0000
  H   H1068     1.0  0.47977  0.06857  0.36821  1.0000
  C   C636      1.0  0.48466  0.07789  0.05648  1.0000
  H   H1069     1.0  0.37825  0.12776  0.49374  1.0000
  C   C637      1.0  0.51223  0.05883  0.04034  1.0000
  C   C638      1.0  0.51932  0.06091  0.07820  1.0000
  C   C639      1.0  0.50925  0.07183  0.10513  1.0000
  C   C640      1.0  0.49192  0.08036  0.09420  1.0000
  H   H1070     1.0  0.30602  0.21975  0.14436  1.0000
  H   H1071     1.0  0.41911  0.16604  0.01532  1.0000
  H   H1072     1.0  0.51468  0.07353  0.13441  1.0000
  H   H1073     1.0  0.48402  0.08860  0.11515  1.0000
  Fe  Fe82      1.0  0.33662  0.19359  0.29415  1.0000
  C   C641      1.0  0.41916  0.04602  0.20897  1.0000
  C   C642      1.0  0.34847  0.24273  0.21045  1.0000
  C   C643      1.0  0.35978  0.10974  0.34013  1.0000
  C   C644      1.0  0.37689  0.09981  0.33528  1.0000
  C   C645      1.0  0.38483  0.08854  0.36552  1.0000
  C   C646      1.0  0.37539  0.08663  0.40037  1.0000
  C   C647      1.0  0.35802  0.09614  0.40475  1.0000
  C   C648      1.0  0.35034  0.10782  0.37494  1.0000
  H   H1074     1.0  0.38421  0.10112  0.30830  1.0000
  H   H1075     1.0  0.39824  0.08135  0.36190  1.0000
  H   H1076     1.0  0.35059  0.09461  0.43155  1.0000
  H   H1077     1.0  0.33699  0.11512  0.37871  1.0000
  C   C649      1.0  0.39077  0.15773  0.41948  1.0000
  C   C650      1.0  0.34030  0.21709  0.42851  1.0000
  N   N47       1.0  0.51349  0.00326  0.32861  1.0000
  H   H1078     1.0  0.34435  0.21115  0.40082  1.0000
  Fe  Fe83      1.0  0.32042  0.18136  0.37009  1.0000
  C   C651      1.0  0.31597  0.08753  0.29615  1.0000
  C   C652      1.0  0.34476  0.14440  0.46781  1.0000
  H   H1079     1.0  0.59153  0.11865  0.03650  1.0000
  H   H1080     1.0  0.63091  0.20808  0.19590  1.0000
  H   H1081     1.0  0.61979  0.05939  0.10720  1.0000
  H   H1082     1.0  0.48497  0.00776  0.38636  1.0000
  S   S170      1.0  0.42907  0.05013  0.49210  1.0000
  S   S171      1.0  0.30697  0.15570  0.34372  1.0000
  H   H1083     1.0  0.38004  0.14846  0.36221  1.0000
  C   C653      1.0  0.51613  0.02096  0.35290  1.0000
  C   C654      1.0  0.61912  0.16462  0.24492  1.0000
  H   H1084     1.0  0.44507  0.12351  0.01702  1.0000
  H   H1085     1.0  0.39763  0.04883  0.32740  1.0000
  S   S172      1.0  0.31011  0.20173  0.32389  1.0000
  C   C655      1.0  0.60615  0.18092  0.16934  1.0000
  H   H1086     1.0  0.51175  0.02115  0.27714  1.0000
  C   C656      1.0  0.57551  0.99757  0.47785  1.0000
  H   H1087     1.0  0.54433  0.09338  0.06341  1.0000
  C   C657      1.0  0.37225  0.18495  0.48046  1.0000
  H   H1088     1.0  0.60649  0.18876  0.14132  1.0000
  N   N48       1.0  0.58776  0.07842  0.03767  1.0000
  H   H1089     1.0  0.43750  0.03482  0.25403  1.0000
  C   C658      1.0  0.42310  0.12654  0.05821  1.0000
  S   S173      1.0  0.31577  0.18778  0.43310  1.0000
  H   H1090     1.0  0.37606  0.19398  0.50580  1.0000
  C   C659      1.0  0.62398  0.16800  0.17328  1.0000
  C   C660      1.0  0.43491  0.01169  0.09788  1.0000
  H   H1091     1.0  0.39614  0.16668  0.49312  1.0000
  C   C661      1.0  0.63616  0.20285  0.22458  1.0000
  H   H1092     1.0  0.35770  0.14096  0.41271  1.0000
  H   H1093     1.0  0.32483  0.10397  0.22584  1.0000
  H   H1094     1.0  0.39615  0.14268  0.01864  1.0000
  H   H1095     1.0  0.60963  0.17733  0.24661  1.0000
  H   H1096     1.0  0.54703  0.01884  0.35384  1.0000
  H   H1097     1.0  0.50582  0.03232  0.34391  1.0000
  H   H1098     1.0  0.35810  0.23497  0.19194  1.0000
  H   H1099     1.0  0.58183  0.09788  0.08485  1.0000
  H   H1100     1.0  0.49918  0.01538  0.19132  1.0000
  C   C662      1.0  0.58067  0.05957  0.02300  1.0000
  H   H1101     1.0  0.51329  0.01838  0.38394  1.0000
  C   C663      1.0  0.34896  0.23344  0.44302  1.0000
  H   H1102     1.0  0.42233  0.02502  0.31294  1.0000
  H   H1103     1.0  0.40504  0.14615  0.36873  1.0000
  H   H1104     1.0  0.52356  0.00930  0.14731  1.0000
  C   C664      1.0  0.40945  0.02510  0.29471  1.0000
  H   H1105     1.0  0.55455  0.09721  0.01769  1.0000
  H   H1106     1.0  0.49564  0.05318  0.47364  1.0000
  H   H1107     1.0  0.42281  0.14173  0.06746  1.0000
  H   H1108     1.0  0.35961  0.24012  0.42634  1.0000
  N   N49       1.0  0.49917  0.00359  0.11100  1.0000
  C   C665      1.0  0.38499  0.13131  0.46593  1.0000
  C   C666      1.0  0.50399  0.00847  0.06984  1.0000
  C   C667      1.0  0.56455  0.01686  0.47882  1.0000
  C   C668      1.0  0.62903  0.12365  0.11399  1.0000
  C   C669      1.0  0.35903  0.15076  0.43793  1.0000
  C   C670      1.0  0.48777  0.01625  0.04380  1.0000
  H   H1109     1.0  0.61987  0.15366  0.16282  1.0000
  H   H1110     1.0  0.43167  0.03235  0.05158  1.0000
  H   H1111     1.0  0.40722  0.00939  0.17577  1.0000
  H   H1112     1.0  0.34473  0.15352  0.49411  1.0000
  H   H1113     1.0  0.30417  0.13712  0.18414  1.0000
  H   H1114     1.0  0.51505  0.01928  0.06980  1.0000
  H   H1115     1.0  0.41001  0.05595  0.22538  1.0000
  H   H1116     1.0  0.53717  0.04023  0.37519  1.0000
  H   H1117     1.0  0.56936  0.07664  0.08652  1.0000
  S   S174      1.0  0.63359  0.14240  0.08133  1.0000
  C   C671      1.0  0.49165  0.02168  0.12986  1.0000
  H   H1118     1.0  0.32922  0.08869  0.28051  1.0000
  Fe  Fe84      1.0  0.45361  0.06434  0.46667  1.0000
  H   H1119     1.0  0.35427  0.16499  0.42649  1.0000
  H   H1120     1.0  0.44130  0.02168  0.11771  1.0000
  H   H1121     1.0  0.32870  0.18716  0.02126  1.0000
  H   H1122     1.0  0.38556  0.17192  0.40860  1.0000
  H   H1123     1.0  0.58531  0.99938  0.36685  1.0000
  C   C672      1.0  0.51909  0.00785  0.28767  1.0000
  C   C673      1.0  0.39485  0.01555  0.23308  1.0000
  C   C674      1.0  0.32143  0.21620  0.48588  1.0000
  H   H1124     1.0  0.59507  0.14877  0.26320  1.0000
  S   S175      1.0  0.47100  0.08211  0.50730  1.0000
  C   C675      1.0  0.40165  0.04579  0.29696  1.0000
  H   H1125     1.0  0.61199  0.08753  0.07100  1.0000
  H   H1126     1.0  0.59358  0.17205  0.16734  1.0000
  N   N50       1.0  0.37897  0.15109  0.45229  1.0000
  C   C676      1.0  0.39147  0.14465  0.38323  1.0000
  C   C677      1.0  0.60618  0.07426  0.05854  1.0000
  C   C678      1.0  0.48699  0.02014  0.17329  1.0000
  H   H1127     1.0  0.55573  0.01830  0.45206  1.0000
  H   H1128     1.0  0.55774  0.11401  0.05639  1.0000
  C   C679      1.0  0.39566  0.00475  0.19398  1.0000
  H   H1129     1.0  0.61438  0.13366  0.25024  1.0000
  H   H1130     1.0  0.38898  0.04837  0.27866  1.0000
  N   N51       1.0  0.41321  0.01715  0.25476  1.0000
  H   H1131     1.0  0.43279  0.11840  0.07811  1.0000
  C   C680      1.0  0.32994  0.23266  0.50018  1.0000
  H   H1132     1.0  0.47608  0.00628  0.04161  1.0000
  H   H1133     1.0  0.44923  0.15527  0.04297  1.0000
  C   C681      1.0  0.57441  0.08754  0.06605  1.0000
  C   C682      1.0  0.59991  0.11084  0.01459  1.0000
  H   H1134     1.0  0.53713  0.03788  0.32373  1.0000
  H   H1135     1.0  0.53425  0.01077  0.28643  1.0000
  N   N52       1.0  0.63309  0.16626  0.21302  1.0000
  H   H1136     1.0  0.59930  0.12876  0.10954  1.0000
  H   H1137     1.0  0.43101  0.05443  0.19875  1.0000
  H   H1138     1.0  0.62641  0.16405  0.27379  1.0000
  H   H1139     1.0  0.60421  0.19182  0.19218  1.0000
  C   C683      1.0  0.42702  0.02899  0.23338  1.0000
  C   C684      1.0  0.53558  0.02976  0.35115  1.0000
  H   H1140     1.0  0.59577  0.06474  0.11500  1.0000
  H   H1141     1.0  0.57417  0.02900  0.47991  1.0000
  C   C685      1.0  0.61040  0.11994  0.12245  1.0000
  H   H1142     1.0  0.32386  0.12298  0.16962  1.0000
  H   H1143     1.0  0.48492  0.01026  0.31147  1.0000
  H   H1144     1.0  0.59163  0.10228  0.15400  1.0000
  H   H1145     1.0  0.32811  0.23941  0.29835  1.0000
  C   C686      1.0  0.31401  0.11555  0.22687  1.0000
  C   C687      1.0  0.62020  0.09334  0.16417  1.0000
  C   C688      1.0  0.60582  0.06004  0.09268  1.0000
  H   H1146     1.0  0.40532  0.16048  0.42935  1.0000
  H   H1147     1.0  0.31988  0.08660  0.32748  1.0000
  H   H1148     1.0  0.33056  0.14570  0.45442  1.0000
  C   C689      1.0  0.60601  0.10494  0.14756  1.0000
  C   C690      1.0  0.38112  0.16472  0.48599  1.0000
  C   C691      1.0  0.42092  0.00507  0.03475  1.0000
  H   H1149     1.0  0.38828  0.02982  0.22710  1.0000
  H   H1150     1.0  0.47849  0.02691  0.11536  1.0000
  C   C692      1.0  0.55703  0.09855  0.04923  1.0000
  C   C693      1.0  0.32655  0.20844  0.45005  1.0000
  H   H1151     1.0  0.47514  0.01063  0.17803  1.0000
  H   H1152     1.0  0.38463  0.00805  0.25120  1.0000
  H   H1153     1.0  0.48252  0.03049  0.05351  1.0000
  C   C694      1.0  0.33144  0.24515  0.27030  1.0000
  H   H1154     1.0  0.50174  0.03338  0.12700  1.0000
  H   H1155     1.0  0.49300  0.01835  0.01403  1.0000
  C   C695      1.0  0.42953  0.01775  0.06038  1.0000
  H   H1156     1.0  0.41155  0.04121  0.18258  1.0000
  H   H1157     1.0  0.43529  0.01995  0.21285  1.0000
  H   H1158     1.0  0.45025  0.00571  0.27519  1.0000
  C   C696      1.0  0.40614  0.12787  0.47266  1.0000
  H   H1159     1.0  0.39969  0.01583  0.31035  1.0000
  H   H1160     1.0  0.48261  0.03456  0.18394  1.0000
  H   H1161     1.0  0.30819  0.21624  0.19502  1.0000
  H   H1162     1.0  0.60292  0.04527  0.08300  1.0000
  H   H1163     1.0  0.61682  0.06863  0.03793  1.0000
  H   H1164     1.0  0.51993  0.05038  0.01939  1.0000
  H   H1165     1.0  0.40906  0.12059  0.06186  1.0000
  H   H1166     1.0  0.30907  0.07400  0.28866  1.0000
  C   C697      1.0  0.31035  0.12240  0.18477  1.0000
  S   S176      1.0  0.46252  0.08758  0.04335  1.0000
  H   H1167     1.0  0.60010  0.14538  0.21297  1.0000
  H   H1168     1.0  0.57700  0.05021  0.04766  1.0000
  C   C698      1.0  0.49497  0.06730  0.02950  1.0000
  H   H1169     1.0  0.32109  0.12735  0.24242  1.0000
  H   H1170     1.0  0.35681  0.18465  0.47951  1.0000
  H   H1171     1.0  0.31076  0.20953  0.50243  1.0000
  H   H1172     1.0  0.30928  0.11746  0.30416  1.0000
  C   C699      1.0  0.42961  0.12385  0.01608  1.0000
  H   H1173     1.0  0.38244  0.00745  0.17730  1.0000
  H   H1174     1.0  0.38015  0.12014  0.44556  1.0000
  H   H1175     1.0  0.45200  0.17549  0.01254  1.0000
  H   H1176     1.0  0.30789  0.23599  0.39558  1.0000
  C   C700      1.0  0.34368  0.24137  0.47869  1.0000
  H   H1177     1.0  0.62509  0.20365  0.24649  1.0000
  H   H1178     1.0  0.39067  0.12927  0.38998  1.0000
  H   H1179     1.0  0.55076  0.06567  0.01179  1.0000
  H   H1180     1.0  0.34708  0.12916  0.47603  1.0000
  H   H1181     1.0  0.41202  0.13813  0.49380  1.0000
  C   C701      1.0  0.50057  0.05625  0.50266  1.0000
  H   H1182     1.0  0.58834  0.00032  0.46144  1.0000
  H   H1183     1.0  0.63408  0.17302  0.15183  1.0000
  H   H1184     1.0  0.52321  0.03538  0.50068  1.0000
  H   H1185     1.0  0.61462  0.10942  0.02504  1.0000
  H   H1186     1.0  0.40863  0.11325  0.48471  1.0000
  C   C702      1.0  0.42142  0.99717  0.26015  1.0000
  C   C703      1.0  0.49304  0.99866  0.32701  1.0000
  H   H1187     1.0  0.63702  0.13549  0.20580  1.0000
  C   C704      1.0  0.44838  0.16015  0.01237  1.0000
  H   H1188     1.0  0.43724  0.99700  0.31588  1.0000
  S   S177      1.0  0.34385  0.19424  0.72005  1.0000
  Fe  Fe85      1.0  0.32788  0.16651  0.85171  1.0000
  S   S178      1.0  0.33929  0.14525  0.89680  1.0000
  H   H1189     1.0  0.33729  0.22695  0.76954  1.0000
  S   S179      1.0  0.34262  0.19331  0.83554  1.0000
  C   C705      1.0  0.33923  0.23133  0.97355  1.0000
  C   C706      1.0  0.34170  0.22534  0.67152  1.0000
  H   H1190     1.0  0.55282  0.01925  0.78794  1.0000
  Fe  Fe86      1.0  0.42706  0.07529  0.91757  1.0000
  S   S180      1.0  0.43156  0.04406  0.90369  1.0000
  S   S181      1.0  0.41388  0.09548  0.87255  1.0000
  C   C707      1.0  0.61431  0.09950  0.65107  1.0000
  C   C708      1.0  0.40676  0.05558  0.75579  1.0000
  Fe  Fe87      1.0  0.46140  0.04851  0.92057  1.0000
  S   S182      1.0  0.48447  0.03290  0.88908  1.0000
  H   H1191     1.0  0.42218  0.06744  0.71003  1.0000
  S   S183      1.0  0.45752  0.08005  0.92995  1.0000
  Fe  Fe88      1.0  0.55115  0.04571  0.63489  1.0000
  S   S184      1.0  0.54823  0.07538  0.65869  1.0000
  S   S185      1.0  0.54228  0.03721  0.57443  1.0000
  Fe  Fe89      1.0  0.56792  0.02984  0.70982  1.0000
  S   S186      1.0  0.56636  0.05832  0.74013  1.0000
  H   H1192     1.0  0.47195  0.00777  0.54720  1.0000
  Fe  Fe90      1.0  0.53793  0.06104  0.71188  1.0000
  S   S187      1.0  0.51215  0.07394  0.73881  1.0000
  Fe  Fe91      1.0  0.57695  0.07025  0.68410  1.0000
  S   S188      1.0  0.59634  0.09538  0.68430  1.0000
  S   S189      1.0  0.53858  0.03162  0.68601  1.0000
  S   S190      1.0  0.58079  0.04148  0.65592  1.0000
  C   C709      1.0  0.62377  0.11677  0.65363  1.0000
  H   H1193     1.0  0.61162  0.07321  0.61919  1.0000
  H   H1194     1.0  0.44628  0.01803  0.58300  1.0000
  C   C710      1.0  0.49359  0.04482  0.84921  1.0000
  C   C711      1.0  0.50483  0.03468  0.82293  1.0000
  C   C712      1.0  0.51114  0.04371  0.78947  1.0000
  C   C713      1.0  0.50615  0.06288  0.78227  1.0000
  C   C714      1.0  0.49543  0.07314  0.80917  1.0000
  C   C715      1.0  0.48919  0.06414  0.84262  1.0000
  H   H1195     1.0  0.50853  0.01982  0.82822  1.0000
  H   H1196     1.0  0.51962  0.03578  0.76904  1.0000
  H   H1197     1.0  0.49202  0.08812  0.80423  1.0000
  H   H1198     1.0  0.48092  0.07214  0.86322  1.0000
  H   H1199     1.0  0.46161  0.04036  0.78358  1.0000
  H   H1200     1.0  0.50952  0.00238  0.72613  1.0000
  H   H1201     1.0  0.39451  0.16715  0.96403  1.0000
  C   C716      1.0  0.52314  0.05055  0.55516  1.0000
  C   C717      1.0  0.51429  0.06493  0.57692  1.0000
  C   C718      1.0  0.49854  0.07487  0.56165  1.0000
  C   C719      1.0  0.58730  0.01648  0.56317  1.0000
  H   H1202     1.0  0.46028  0.04696  0.55454  1.0000
  H   H1203     1.0  0.51922  0.06812  0.60586  1.0000
  H   H1204     1.0  0.49158  0.08581  0.57880  1.0000
  H   H1205     1.0  0.51205  0.00791  0.58224  1.0000
  H   H1206     1.0  0.55363  0.11920  0.64723  1.0000
  N   N53       1.0  0.57345  0.12243  0.57343  1.0000
  C   C720      1.0  0.35961  0.13096  0.88877  1.0000
  C   C721      1.0  0.36520  0.11701  0.91634  1.0000
  C   C722      1.0  0.38174  0.10595  0.91172  1.0000
  C   C723      1.0  0.39279  0.10872  0.87935  1.0000
  C   C724      1.0  0.38717  0.12257  0.85169  1.0000
  C   C725      1.0  0.37066  0.13367  0.85636  1.0000
  H   H1207     1.0  0.35668  0.11479  0.94141  1.0000
  H   H1208     1.0  0.38584  0.09520  0.93302  1.0000
  H   H1209     1.0  0.39562  0.12481  0.82655  1.0000
  H   H1210     1.0  0.36651  0.14438  0.83499  1.0000
  H   H1211     1.0  0.54405  0.12718  0.55798  1.0000
  C   C726      1.0  0.33177  0.22803  0.93628  1.0000
  H   H1212     1.0  0.41461  0.00620  0.52856  1.0000
  H   H1213     1.0  0.33702  0.21614  0.91912  1.0000
  H   H1214     1.0  0.54411  0.15671  0.52859  1.0000
  H   H1215     1.0  0.39585  0.06650  0.74738  1.0000
  C   C727      1.0  0.44776  0.13053  0.93737  1.0000
  N   N54       1.0  0.43799  0.07296  0.76268  1.0000
  C   C728      1.0  0.45610  0.07560  0.74207  1.0000
  C   C729      1.0  0.44245  0.06403  0.80174  1.0000
  C   C730      1.0  0.42776  0.09183  0.76885  1.0000
  H   H1216     1.0  0.55830  0.12230  0.51861  1.0000
  C   C731      1.0  0.45466  0.08569  0.70229  1.0000
  C   C732      1.0  0.44898  0.04280  0.80110  1.0000
  C   C733      1.0  0.43917  0.10756  0.78879  1.0000
  H   H1217     1.0  0.55476  0.10092  0.59386  1.0000
  H   H1218     1.0  0.46598  0.08375  0.76043  1.0000
  H   H1219     1.0  0.46339  0.06162  0.73697  1.0000
  H   H1220     1.0  0.43043  0.06533  0.82156  1.0000
  H   H1221     1.0  0.45355  0.07195  0.81713  1.0000
  H   H1222     1.0  0.42204  0.09775  0.74097  1.0000
  H   H1223     1.0  0.41527  0.08984  0.78700  1.0000
  H   H1224     1.0  0.50099  0.02006  0.63654  1.0000
  C   C734      1.0  0.56917  0.10194  0.58289  1.0000
  H   H1225     1.0  0.44754  0.07686  0.68011  1.0000
  H   H1226     1.0  0.60170  0.11138  0.56667  1.0000
  C   C735      1.0  0.31789  0.24045  0.92093  1.0000
  H   H1227     1.0  0.45217  0.00401  0.93590  1.0000
  H   H1228     1.0  0.51362  0.99851  0.96363  1.0000
  N   N55       1.0  0.47425  0.01671  0.60749  1.0000
  H   H1229     1.0  0.42979  0.12016  0.79429  1.0000
  H   H1230     1.0  0.45053  0.11250  0.77025  1.0000
  H   H1231     1.0  0.44501  0.10292  0.81738  1.0000
  H   H1232     1.0  0.62047  0.12680  0.67662  1.0000
  C   C736      1.0  0.55658  0.13356  0.63557  1.0000
  H   H1233     1.0  0.30613  0.18083  0.69659  1.0000
  C   C737      1.0  0.42574  0.06041  0.73826  1.0000
  C   C738      1.0  0.56320  0.06025  0.99632  1.0000
  S   S191      1.0  0.45755  0.04113  0.98292  1.0000
  H   H1234     1.0  0.58588  0.12699  0.63017  1.0000
  C   C739      1.0  0.34102  0.21878  0.70985  1.0000
  Fe  Fe92      1.0  0.45095  0.07229  0.99112  1.0000
  C   C740      1.0  0.48134  0.03470  0.67220  1.0000
  H   H1235     1.0  0.59525  0.15375  0.54470  1.0000
  H   H1236     1.0  0.39109  0.14757  0.93042  1.0000
  Fe  Fe93      1.0  0.42739  0.03911  0.96729  1.0000
  H   H1237     1.0  0.46428  0.05681  0.60261  1.0000
  H   H1238     1.0  0.48859  0.04803  0.68027  1.0000
  H   H1239     1.0  0.60531  0.00488  0.51948  1.0000
  H   H1240     1.0  0.48503  0.02365  0.69436  1.0000
  H   H1241     1.0  0.31627  0.22332  0.59830  1.0000
  C   C741      1.0  0.49147  0.07035  0.52472  1.0000
  H   H1242     1.0  0.45624  0.12195  0.95857  1.0000
  H   H1243     1.0  0.40711  0.05448  0.78781  1.0000
  Fe  Fe94      1.0  0.32998  0.18801  0.77641  1.0000
  H   H1244     1.0  0.59999  0.11996  0.98822  1.0000
  H   H1245     1.0  0.34529  0.21545  0.64853  1.0000
  S   S192      1.0  0.42007  0.07000  0.98005  1.0000
  C   C742      1.0  0.45544  0.02670  0.60220  1.0000
  C   C743      1.0  0.33719  0.23177  0.73974  1.0000
  H   H1246     1.0  0.57942  0.02728  0.54566  1.0000
  C   C744      1.0  0.55854  0.15147  0.53572  1.0000
  H   H1247     1.0  0.37498  0.15208  0.96782  1.0000
  C   C745      1.0  0.30994  0.20903  0.59948  1.0000
  H   H1248     1.0  0.59062  0.11865  0.52252  1.0000
  C   C746      1.0  0.63239  0.09113  0.59415  1.0000
  H   H1249     1.0  0.56730  0.15357  0.50992  1.0000
  H   H1250     1.0  0.45281  0.03825  0.83112  1.0000
  C   C747      1.0  0.42851  0.15829  0.99482  1.0000
  H   H1251     1.0  0.40246  0.04133  0.74516  1.0000
  H   H1252     1.0  0.60179  0.08391  0.98397  1.0000
  H   H1253     1.0  0.48553  0.02828  0.55463  1.0000
  S   S193      1.0  0.31688  0.16010  0.79124  1.0000
  H   H1254     1.0  0.46635  0.03858  0.67367  1.0000
  Fe  Fe95      1.0  0.31534  0.20848  0.84757  1.0000
  C   C748      1.0  0.48764  0.02824  0.63158  1.0000
  C   C749      1.0  0.45562  0.04705  0.58502  1.0000
  H   H1255     1.0  0.44780  0.02796  0.62974  1.0000
  C   C750      1.0  0.55813  0.13013  0.54672  1.0000
  H   H1256     1.0  0.35031  0.22202  0.98508  1.0000
  C   C751      1.0  0.51637  0.04635  0.51784  1.0000
  H   H1257     1.0  0.56047  0.09082  0.52525  1.0000
  C   C752      1.0  0.59211  0.12251  0.55377  1.0000
  H   H1258     1.0  0.57932  0.09434  0.98539  1.0000
  H   H1259     1.0  0.43774  0.03335  0.79101  1.0000
  C   C753      1.0  0.55272  0.00031  0.83744  1.0000
  S   S194      1.0  0.41353  0.01264  0.98804  1.0000
  H   H1260     1.0  0.31544  0.16900  0.99820  1.0000
  C   C754      1.0  0.57444  0.13319  0.61138  1.0000
  C   C755      1.0  0.61876  0.08658  0.62135  1.0000
  H   H1261     1.0  0.42776  0.16691  0.96763  1.0000
  H   H1262     1.0  0.57861  0.09637  0.60661  1.0000
  S   S195      1.0  0.30915  0.23738  0.87369  1.0000
  H   H1263     1.0  0.54431  0.13946  0.61908  1.0000
  H   H1264     1.0  0.54202  0.00858  0.85223  1.0000
  H   H1265     1.0  0.46901  0.08784  0.69181  1.0000
  H   H1266     1.0  0.44118  0.05323  0.58441  1.0000
  H   H1267     1.0  0.63567  0.08118  0.57104  1.0000
  H   H1268     1.0  0.42045  0.14103  0.92412  1.0000
  H   H1269     1.0  0.45338  0.14503  0.93413  1.0000
  H   H1270     1.0  0.44775  0.10004  0.70395  1.0000
  H   H1271     1.0  0.43317  0.04690  0.72962  1.0000
  H   H1272     1.0  0.49205  0.04111  0.61570  1.0000
  C   C756      1.0  0.50044  0.00184  0.56501  1.0000
  C   C757      1.0  0.57056  0.08740  0.54917  1.0000
  H   H1273     1.0  0.55872  0.14294  0.66124  1.0000
  H   H1274     1.0  0.44937  0.12338  0.90874  1.0000
  C   C758      1.0  0.39007  0.15217  0.96109  1.0000
  C   C759      1.0  0.31695  0.18471  0.00054  1.0000
  H   H1275     1.0  0.32601  0.23848  0.52794  1.0000
  H   H1276     1.0  0.56325  0.16085  0.55954  1.0000
  H   H1277     1.0  0.45957  0.00497  0.68121  1.0000
  C   C760      1.0  0.55885  0.00640  0.80109  1.0000
  H   H1278     1.0  0.60826  0.14394  0.58599  1.0000
  H   H1279     1.0  0.42131  0.11712  0.94142  1.0000
  H   H1280     1.0  0.58489  0.08597  0.53782  1.0000
  H   H1281     1.0  0.57822  0.14829  0.60745  1.0000
  H   H1282     1.0  0.61586  0.13930  0.53808  1.0000
  C   C761      1.0  0.60318  0.14110  0.55594  1.0000
  C   C762      1.0  0.42690  0.13160  0.94686  1.0000
  H   H1283     1.0  0.57880  0.01182  0.58781  1.0000
  H   H1284     1.0  0.56516  0.06830  0.96913  1.0000
  H   H1285     1.0  0.59942  0.02386  0.57625  1.0000
  C   C763      1.0  0.33727  0.24459  0.66281  1.0000
  H   H1286     1.0  0.32103  0.19043  0.97207  1.0000
  H   H1287     1.0  0.56004  0.04538  0.98745  1.0000
  H   H1288     1.0  0.31784  0.20053  0.62176  1.0000
  H   H1289     1.0  0.42591  0.10910  0.00722  1.0000
  H   H1290     1.0  0.31186  0.20240  0.57060  1.0000
  H   H1291     1.0  0.48373  0.00185  0.94263  1.0000
  C   C764      1.0  0.48231  0.01422  0.56750  1.0000
  H   H1292     1.0  0.45925  0.15238  0.99585  1.0000
  H   H1293     1.0  0.56700  0.07307  0.56029  1.0000
  S   S196      1.0  0.57937  0.00191  0.73460  1.0000
  H   H1294     1.0  0.48966  0.06561  0.00016  1.0000
  C   C765      1.0  0.40084  0.13840  0.98922  1.0000
  H   H1295     1.0  0.39556  0.12373  0.98421  1.0000
  N   N56       1.0  0.42187  0.13830  0.98707  1.0000
  H   H1296     1.0  0.55675  0.99851  0.55011  1.0000
  H   H1297     1.0  0.50494  0.00155  0.53432  1.0000
  C   C766      1.0  0.59454  0.99934  0.53905  1.0000
  C   C767      1.0  0.59180  0.09126  0.00387  1.0000
  H   H1298     1.0  0.59179  0.05165  0.00686  1.0000
  S   S197      1.0  0.30411  0.20547  0.78726  1.0000
  C   C768      1.0  0.47213  0.99703  0.62472  1.0000
  H   H1299     1.0  0.37519  0.15876  0.51289  1.0000
  Fe  Fe96      1.0  0.34073  0.32169  0.08250  1.0000
  S   S198      1.0  0.36386  0.34209  0.06956  1.0000
  H   H1300     1.0  0.34214  0.34948  0.23613  1.0000
  H   H1301     1.0  0.34687  0.35986  0.13742  1.0000
  S   S199      1.0  0.34937  0.29442  0.11298  1.0000
  Fe  Fe97      1.0  0.45650  0.42253  0.14882  1.0000
  S   S200      1.0  0.45042  0.39457  0.17769  1.0000
  S   S201      1.0  0.46381  0.42891  0.08670  1.0000
  Fe  Fe98      1.0  0.44580  0.44654  0.21938  1.0000
  S   S202      1.0  0.43827  0.42084  0.25406  1.0000
  S   S203      1.0  0.44730  0.47781  0.23662  1.0000
  Fe  Fe99      1.0  0.46449  0.40738  0.23045  1.0000
  S   S204      1.0  0.48293  0.38997  0.27209  1.0000
  Fe  Fe100     1.0  0.42464  0.40987  0.19905  1.0000
  S   S205      1.0  0.39601  0.39672  0.20116  1.0000
  S   S206      1.0  0.47302  0.43381  0.19926  1.0000
  S   S207      1.0  0.42972  0.43701  0.16673  1.0000
  H   H1302     1.0  0.35988  0.38109  0.18858  1.0000
  Fe  Fe101     1.0  0.57356  0.43980  0.50284  1.0000
  N   N57       1.0  0.42158  0.48388  0.07585  1.0000
  Fe  Fe102     1.0  0.55037  0.42349  0.43727  1.0000
  S   S208      1.0  0.55215  0.39357  0.46088  1.0000
  S   S209      1.0  0.53728  0.43580  0.38239  1.0000
  H   H1303     1.0  0.55678  0.48288  0.16455  1.0000
  H   H1304     1.0  0.39632  0.31584  0.12146  1.0000
  Fe  Fe103     1.0  0.58258  0.39915  0.47174  1.0000
  S   S210      1.0  0.60193  0.37307  0.46301  1.0000
  S   S211      1.0  0.54117  0.39671  0.02532  1.0000
  S   S212      1.0  0.58105  0.42823  0.44394  1.0000
  H   H1305     1.0  0.47378  0.42368  0.43229  1.0000
  C   C769      1.0  0.58842  0.47786  0.05149  1.0000
  H   H1306     1.0  0.62015  0.39658  0.40500  1.0000
  C   C770      1.0  0.34043  0.26019  0.19796  1.0000
  C   C771      1.0  0.32826  0.27044  0.22197  1.0000
  H   H1307     1.0  0.50125  0.47173  0.15341  1.0000
  H   H1308     1.0  0.45477  0.49119  0.03448  1.0000
  H   H1309     1.0  0.46623  0.49028  0.38889  1.0000
  C   C772      1.0  0.49748  0.40293  0.30356  1.0000
  C   C773      1.0  0.50228  0.42161  0.29463  1.0000
  C   C774      1.0  0.51456  0.43144  0.31911  1.0000
  C   C775      1.0  0.52189  0.42281  0.35298  1.0000
  C   C776      1.0  0.51682  0.40427  0.36252  1.0000
  C   C777      1.0  0.50473  0.39430  0.33764  1.0000
  H   H1310     1.0  0.49678  0.42837  0.26851  1.0000
  H   H1311     1.0  0.51841  0.44581  0.31170  1.0000
  H   H1312     1.0  0.52223  0.39761  0.38888  1.0000
  H   H1313     1.0  0.50091  0.37989  0.34480  1.0000
  C   C778      1.0  0.48489  0.41916  0.06932  1.0000
  C   C779      1.0  0.49129  0.42528  0.03334  1.0000
  H   H1314     1.0  0.53279  0.47767  0.17499  1.0000
  C   C780      1.0  0.51926  0.40516  0.04124  1.0000
  C   C781      1.0  0.51267  0.39878  0.07690  1.0000
  C   C782      1.0  0.49559  0.40587  0.09110  1.0000
  H   H1315     1.0  0.55483  0.45057  0.14939  1.0000
  H   H1316     1.0  0.55046  0.48747  0.09658  1.0000
  H   H1317     1.0  0.52091  0.38846  0.09379  1.0000
  H   H1318     1.0  0.49068  0.40103  0.11881  1.0000
  H   H1319     1.0  0.31611  0.26975  0.34727  1.0000
  C   C783      1.0  0.42830  0.47369  0.30518  1.0000
  C   C784      1.0  0.44011  0.48483  0.28335  1.0000
  H   H1320     1.0  0.38183  0.29302  0.28267  1.0000
  H   H1321     1.0  0.42334  0.46036  0.29347  1.0000
  S   S213      1.0  0.31802  0.29224  0.20646  1.0000
  H   H1322     1.0  0.39476  0.29641  0.15459  1.0000
  C   C785      1.0  0.37215  0.35835  0.10487  1.0000
  C   C786      1.0  0.39044  0.36486  0.10252  1.0000
  C   C787      1.0  0.39785  0.37688  0.13145  1.0000
  C   C788      1.0  0.38694  0.38264  0.16284  1.0000
  C   C789      1.0  0.36848  0.37653  0.16463  1.0000
  C   C790      1.0  0.36109  0.36446  0.13577  1.0000
  H   H1323     1.0  0.39905  0.36030  0.07861  1.0000
  H   H1324     1.0  0.41205  0.38152  0.12968  1.0000
  H   H1325     1.0  0.32945  0.25815  0.38440  1.0000
  H   H1326     1.0  0.45586  0.48535  0.46403  1.0000
  H   H1327     1.0  0.59265  0.46378  0.04126  1.0000
  C   C791      1.0  0.40785  0.47246  0.09812  1.0000
  H   H1328     1.0  0.56660  0.45698  0.10670  1.0000
  S   S214      1.0  0.31427  0.32614  0.11588  1.0000
  H   H1329     1.0  0.59587  0.34430  0.29355  1.0000
  H   H1330     1.0  0.34373  0.26568  0.16976  1.0000
  H   H1331     1.0  0.54285  0.42081  0.11262  1.0000
  H   H1332     1.0  0.42534  0.49520  0.01822  1.0000
  H   H1333     1.0  0.41368  0.46864  0.12726  1.0000
  H   H1334     1.0  0.39290  0.44588  0.09926  1.0000
  H   H1335     1.0  0.44414  0.46536  0.48263  1.0000
  S   S215      1.0  0.32644  0.30667  0.03275  1.0000
  H   H1336     1.0  0.54289  0.48055  0.48096  1.0000
  H   H1337     1.0  0.41515  0.47298  0.01785  1.0000
  H   H1338     1.0  0.50759  0.47715  0.37967  1.0000
  N   N58       1.0  0.47388  0.46088  0.40336  1.0000
  H   H1339     1.0  0.51963  0.48485  0.04163  1.0000
  C   C792      1.0  0.45609  0.46006  0.42585  1.0000
  C   C793      1.0  0.47060  0.45335  0.36280  1.0000
  C   C794      1.0  0.49009  0.45038  0.42321  1.0000
  C   C795      1.0  0.42267  0.47995  0.34214  1.0000
  C   C796      1.0  0.53820  0.48558  0.45176  1.0000
  C   C797      1.0  0.46409  0.43267  0.35890  1.0000
  C   C798      1.0  0.48602  0.43127  0.44352  1.0000
  C   C799      1.0  0.39739  0.31191  0.15271  1.0000
  C   C800      1.0  0.59393  0.48394  0.08877  1.0000
  H   H1340     1.0  0.45157  0.44523  0.43006  1.0000
  H   H1341     1.0  0.44435  0.46710  0.40914  1.0000
  H   H1342     1.0  0.46015  0.46267  0.34706  1.0000
  H   H1343     1.0  0.48352  0.45378  0.34562  1.0000
  H   H1344     1.0  0.50131  0.44745  0.40219  1.0000
  H   H1345     1.0  0.48467  0.43350  0.47521  1.0000
  H   H1346     1.0  0.38562  0.28536  0.01343  1.0000
  H   H1347     1.0  0.54909  0.46333  0.04612  1.0000
  C   C801      1.0  0.31532  0.26428  0.37738  1.0000
  H   H1348     1.0  0.46133  0.42967  0.32767  1.0000
  H   H1349     1.0  0.45089  0.43022  0.37398  1.0000
  H   H1350     1.0  0.47520  0.42223  0.36817  1.0000
  H   H1351     1.0  0.49826  0.42131  0.44025  1.0000
  H   H1352     1.0  0.44318  0.49442  0.14218  1.0000
  H   H1353     1.0  0.44359  0.46705  0.10541  1.0000
  Fe  Fe104     1.0  0.32199  0.29768  0.14278  1.0000
  H   H1354     1.0  0.48296  0.43545  0.01640  1.0000
  C   C802      1.0  0.41519  0.48671  0.03428  1.0000
  C   C803      1.0  0.62569  0.38205  0.40312  1.0000
  H   H1355     1.0  0.37531  0.35012  0.22901  1.0000
  H   H1356     1.0  0.62807  0.33514  0.01412  1.0000
  H   H1357     1.0  0.54002  0.47316  0.43185  1.0000
  H   H1358     1.0  0.36930  0.32222  0.15993  1.0000
  C   C804      1.0  0.61922  0.36806  0.42807  1.0000
  H   H1359     1.0  0.37052  0.33495  0.26821  1.0000
  C   C805      1.0  0.47858  0.48172  0.39977  1.0000
  H   H1360     1.0  0.41186  0.31481  0.16244  1.0000
  H   H1361     1.0  0.38614  0.33929  0.16974  1.0000
  H   H1362     1.0  0.35986  0.29995  0.20537  1.0000
  C   C806      1.0  0.49498  0.48622  0.37317  1.0000
  H   H1363     1.0  0.41347  0.47133  0.35887  1.0000
  H   H1364     1.0  0.56728  0.42185  0.12318  1.0000
  C   C807      1.0  0.53863  0.48151  0.11255  1.0000
  C   C808      1.0  0.51974  0.46920  0.03689  1.0000
  C   C809      1.0  0.62672  0.34930  0.42557  1.0000
  C   C810      1.0  0.36978  0.33582  0.23596  1.0000
  N   N59       1.0  0.38159  0.32016  0.21781  1.0000
  C   C811      1.0  0.37309  0.30086  0.22267  1.0000
  C   C812      1.0  0.38294  0.32415  0.17499  1.0000
  H   H1365     1.0  0.50608  0.46321  0.04378  1.0000
  C   C813      1.0  0.40056  0.31991  0.23736  1.0000
  C   C814      1.0  0.34896  0.33647  0.22365  1.0000
  H   H1366     1.0  0.56490  0.49628  0.43953  1.0000
  H   H1367     1.0  0.49091  0.48480  0.34206  1.0000
  H   H1368     1.0  0.58285  0.35083  0.40163  1.0000
  H   H1369     1.0  0.38237  0.28933  0.21093  1.0000
  C   C815      1.0  0.54196  0.48582  0.15598  1.0000
  H   H1370     1.0  0.46916  0.47398  0.05997  1.0000
  H   H1371     1.0  0.31312  0.27646  0.39729  1.0000
  H   H1372     1.0  0.39932  0.31745  0.26905  1.0000
  H   H1373     1.0  0.40947  0.30756  0.22770  1.0000
  H   H1374     1.0  0.39502  0.48106  0.10470  1.0000
  H   H1375     1.0  0.31241  0.37035  0.45446  1.0000
  C   C816      1.0  0.32377  0.26293  0.25821  1.0000
  C   C817      1.0  0.40192  0.45358  0.07899  1.0000
  C   C818      1.0  0.36894  0.29493  0.26470  1.0000
  H   H1376     1.0  0.52641  0.49041  0.10307  1.0000
  H   H1377     1.0  0.42679  0.33501  0.23651  1.0000
  N   N60       1.0  0.53648  0.46071  0.10237  1.0000
  C   C819      1.0  0.55384  0.45006  0.11713  1.0000
  H   H1378     1.0  0.40968  0.34598  0.20606  1.0000
  C   C820      1.0  0.53582  0.45859  0.05878  1.0000
  C   C821      1.0  0.51964  0.45212  0.12052  1.0000
  H   H1379     1.0  0.46913  0.46498  0.48374  1.0000
  H   H1380     1.0  0.31147  0.26192  0.45577  1.0000
  H   H1381     1.0  0.38621  0.49523  0.05166  1.0000
  H   H1382     1.0  0.36226  0.28080  0.26403  1.0000
  S   S216      1.0  0.34346  0.25202  0.04028  1.0000
  C   C822      1.0  0.45708  0.48415  0.06296  1.0000
  C   C823      1.0  0.50194  0.46520  0.12406  1.0000
  H   H1383     1.0  0.53465  0.44334  0.05030  1.0000
  H   H1384     1.0  0.51562  0.43903  0.10448  1.0000
  H   H1385     1.0  0.52316  0.44730  0.15067  1.0000
  H   H1386     1.0  0.55911  0.42678  0.07514  1.0000
  C   C824      1.0  0.55559  0.42869  0.10615  1.0000
  H   H1387     1.0  0.35909  0.30503  0.27906  1.0000
  H   H1388     1.0  0.40776  0.34877  0.25759  1.0000
  C   C825      1.0  0.57774  0.49013  0.02735  1.0000
  H   H1389     1.0  0.49638  0.45959  0.44608  1.0000
  H   H1390     1.0  0.34150  0.32403  0.23481  1.0000
  H   H1391     1.0  0.48950  0.45617  0.12179  1.0000
  C   C826      1.0  0.44006  0.47297  0.07609  1.0000
  S   S217      1.0  0.35413  0.26239  0.49522  1.0000
  N   N61       1.0  0.57181  0.37540  0.32724  1.0000
  C   C827      1.0  0.56593  0.39531  0.31394  1.0000
  C   C828      1.0  0.56115  0.36153  0.30238  1.0000
  C   C829      1.0  0.59248  0.37284  0.32050  1.0000
  C   C830      1.0  0.56759  0.37384  0.36985  1.0000
  C   C831      1.0  0.57664  0.41192  0.33261  1.0000
  C   C832      1.0  0.53974  0.36278  0.30582  1.0000
  C   C833      1.0  0.60067  0.35220  0.31966  1.0000
  C   C834      1.0  0.56880  0.35379  0.38859  1.0000
  H   H1392     1.0  0.56723  0.39669  0.28187  1.0000
  H   H1393     1.0  0.55098  0.39841  0.32000  1.0000
  H   H1394     1.0  0.56542  0.34647  0.30836  1.0000
  H   H1395     1.0  0.56442  0.36359  0.27118  1.0000
  H   H1396     1.0  0.59621  0.37930  0.29221  1.0000
  H   H1397     1.0  0.60059  0.38063  0.34297  1.0000
  H   H1398     1.0  0.57729  0.38268  0.38743  1.0000
  H   H1399     1.0  0.55362  0.38030  0.37634  1.0000
  H   H1400     1.0  0.57498  0.41243  0.36446  1.0000
  H   H1401     1.0  0.59165  0.41140  0.32550  1.0000
  H   H1402     1.0  0.57068  0.42569  0.32114  1.0000
  H   H1403     1.0  0.53371  0.37601  0.29224  1.0000
  H   H1404     1.0  0.53357  0.35064  0.28976  1.0000
  H   H1405     1.0  0.53523  0.36177  0.33631  1.0000
  S   S218      1.0  0.30644  0.28056  0.09863  1.0000
  H   H1406     1.0  0.59783  0.34403  0.34615  1.0000
  H   H1407     1.0  0.61609  0.35276  0.31775  1.0000
  H   H1408     1.0  0.56513  0.34192  0.36907  1.0000
  H   H1409     1.0  0.55858  0.35328  0.41239  1.0000
  H   H1410     1.0  0.34686  0.33730  0.19181  1.0000
  H   H1411     1.0  0.41405  0.44389  0.07305  1.0000
  C   C835      1.0  0.41161  0.33852  0.23419  1.0000
  H   H1412     1.0  0.31425  0.27083  0.27664  1.0000
  H   H1413     1.0  0.60234  0.47444  0.10721  1.0000
  C   C836      1.0  0.50847  0.41837  0.01937  1.0000
  Fe  Fe105     1.0  0.33303  0.27977  0.06619  1.0000
  C   C837      1.0  0.45662  0.46950  0.46636  1.0000
  H   H1414     1.0  0.62179  0.33840  0.44478  1.0000
  H   H1415     1.0  0.52311  0.48941  0.45190  1.0000
  H   H1416     1.0  0.39360  0.45617  0.05194  1.0000
  H   H1417     1.0  0.50005  0.47636  0.10158  1.0000
  H   H1418     1.0  0.43931  0.46020  0.05684  1.0000
  S   S219      1.0  0.54280  0.43676  0.49436  1.0000
  H   H1419     1.0  0.48222  0.48788  0.42865  1.0000
  H   H1420     1.0  0.46123  0.49502  0.08468  1.0000
  H   H1421     1.0  0.30943  0.39575  0.49942  1.0000
  Fe  Fe106     1.0  0.33451  0.32173  0.56681  1.0000
  S   S220      1.0  0.34649  0.35131  0.56284  1.0000
  C   C838      1.0  0.33764  0.46115  0.80164  1.0000
  H   H1422     1.0  0.36815  0.38484  0.57537  1.0000
  S   S221      1.0  0.35125  0.29606  0.58768  1.0000
  Fe  Fe107     1.0  0.44219  0.42257  0.66873  1.0000
  S   S222      1.0  0.44059  0.39372  0.69702  1.0000
  S   S223      1.0  0.45233  0.42864  0.60874  1.0000
  Fe  Fe108     1.0  0.42393  0.44347  0.73555  1.0000
  S   S224      1.0  0.42032  0.41658  0.76909  1.0000
  S   S225      1.0  0.41561  0.47332  0.75419  1.0000
  Fe  Fe109     1.0  0.44951  0.40918  0.75124  1.0000
  S   S226      1.0  0.46775  0.39616  0.79864  1.0000
  Fe  Fe110     1.0  0.41152  0.40346  0.71226  1.0000
  S   S227      1.0  0.38737  0.38329  0.71363  1.0000
  S   S228      1.0  0.45382  0.43718  0.72152  1.0000
  S   S229      1.0  0.41240  0.43122  0.68008  1.0000
  H   H1423     1.0  0.38479  0.39738  0.63373  1.0000
  H   H1424     1.0  0.63306  0.26293  0.52817  1.0000
  H   H1425     1.0  0.61734  0.39426  0.77552  1.0000
  Fe  Fe111     1.0  0.55718  0.42762  0.89636  1.0000
  S   S230      1.0  0.56637  0.39965  0.92365  1.0000
  S   S231      1.0  0.54556  0.43248  0.83579  1.0000
  H   H1426     1.0  0.30816  0.28268  0.83926  1.0000
  S   S232      1.0  0.53195  0.39436  0.56783  1.0000
  Fe  Fe112     1.0  0.59287  0.41450  0.93858  1.0000
  S   S233      1.0  0.62207  0.40252  0.92709  1.0000
  C   C839      1.0  0.43844  0.31254  0.58063  1.0000
  S   S234      1.0  0.58434  0.44171  0.90766  1.0000
  C   C840      1.0  0.57327  0.47035  0.63753  1.0000
  C   C841      1.0  0.57480  0.46394  0.59888  1.0000
  C   C842      1.0  0.58011  0.47658  0.56990  1.0000
  H   H1427     1.0  0.37370  0.45790  0.80581  1.0000
  C   C843      1.0  0.59546  0.35543  0.77541  1.0000
  H   H1428     1.0  0.56951  0.46047  0.65996  1.0000
  H   H1429     1.0  0.57220  0.44919  0.59159  1.0000
  C   C844      1.0  0.43526  0.32329  0.61906  1.0000
  C   C845      1.0  0.48931  0.40649  0.80847  1.0000
  C   C846      1.0  0.49693  0.41941  0.78267  1.0000
  C   C847      1.0  0.51424  0.42740  0.79132  1.0000
  C   C848      1.0  0.52383  0.42263  0.82595  1.0000
  C   C849      1.0  0.51618  0.40985  0.85189  1.0000
  C   C850      1.0  0.49902  0.40165  0.84294  1.0000
  H   H1430     1.0  0.48964  0.42297  0.75579  1.0000
  H   H1431     1.0  0.52022  0.43720  0.77110  1.0000
  H   H1432     1.0  0.52360  0.40602  0.87854  1.0000
  H   H1433     1.0  0.49322  0.39153  0.86279  1.0000
  C   C851      1.0  0.47417  0.41856  0.59702  1.0000
  C   C852      1.0  0.48264  0.42412  0.56268  1.0000
  C   C853      1.0  0.50037  0.41668  0.55322  1.0000
  C   C854      1.0  0.50957  0.40355  0.57804  1.0000
  C   C855      1.0  0.50102  0.39792  0.61226  1.0000
  C   C856      1.0  0.48339  0.40552  0.62192  1.0000
  H   H1434     1.0  0.47550  0.43432  0.54360  1.0000
  C   C857      1.0  0.32844  0.30428  0.90805  1.0000
  H   H1435     1.0  0.50816  0.38780  0.63155  1.0000
  H   H1436     1.0  0.47698  0.40128  0.64859  1.0000
  C   C858      1.0  0.41260  0.47084  0.87188  1.0000
  C   C859      1.0  0.41386  0.46534  0.83270  1.0000
  H   H1437     1.0  0.41240  0.33356  0.54081  1.0000
  C   C860      1.0  0.34453  0.30058  0.93780  1.0000
  H   H1438     1.0  0.41334  0.45040  0.82490  1.0000
  H   H1439     1.0  0.37819  0.42410  0.72488  1.0000
  H   H1440     1.0  0.47866  0.48964  0.88476  1.0000
  C   C861      1.0  0.35712  0.36065  0.60513  1.0000
  C   C862      1.0  0.35607  0.35124  0.64074  1.0000
  C   C863      1.0  0.36519  0.35856  0.67380  1.0000
  C   C864      1.0  0.37575  0.37508  0.67142  1.0000
  C   C865      1.0  0.37675  0.38458  0.63583  1.0000
  C   C866      1.0  0.36726  0.37750  0.60288  1.0000
  H   H1441     1.0  0.34829  0.33826  0.64284  1.0000
  H   H1442     1.0  0.36429  0.35117  0.70126  1.0000
  H   H1443     1.0  0.41094  0.46012  0.89404  1.0000
  C   C867      1.0  0.52417  0.43575  0.66456  1.0000
  C   C868      1.0  0.45713  0.46849  0.95907  1.0000
  H   H1444     1.0  0.57087  0.46483  0.76668  1.0000
  C   C869      1.0  0.61595  0.35057  0.87554  1.0000
  H   H1445     1.0  0.63189  0.28920  0.57708  1.0000
  S   S235      1.0  0.58299  0.42587  0.99628  1.0000
  H   H1446     1.0  0.56082  0.46645  0.85471  1.0000
  H   H1447     1.0  0.33735  0.24951  0.63309  1.0000
  C   C870      1.0  0.52603  0.48063  0.69593  1.0000
  H   H1448     1.0  0.32786  0.40825  0.55143  1.0000
  H   H1449     1.0  0.39907  0.32370  0.61575  1.0000
  H   H1450     1.0  0.33266  0.30615  0.87776  1.0000
  H   H1451     1.0  0.60796  0.42639  0.80305  1.0000
  H   H1452     1.0  0.62520  0.32342  0.94600  1.0000
  C   C871      1.0  0.49328  0.46295  0.65067  1.0000
  C   C872      1.0  0.33276  0.24697  0.99546  1.0000
  H   H1453     1.0  0.44925  0.32627  0.63199  1.0000
  C   C873      1.0  0.52379  0.47720  0.56466  1.0000
  H   H1454     1.0  0.44807  0.30007  0.58636  1.0000
  H   H1455     1.0  0.33005  0.26099  0.75437  1.0000
  H   H1456     1.0  0.35461  0.26411  0.93512  1.0000
  H   H1457     1.0  0.55240  0.49311  0.76735  1.0000
  N   N62       1.0  0.36133  0.44616  0.75292  1.0000
  H   H1458     1.0  0.54938  0.37805  0.84137  1.0000
  H   H1459     1.0  0.34419  0.47524  0.80127  1.0000
  H   H1460     1.0  0.37481  0.33289  0.86776  1.0000
  C   C874      1.0  0.55639  0.37994  0.81321  1.0000
  H   H1461     1.0  0.49824  0.47501  0.87178  1.0000
  H   H1462     1.0  0.35777  0.33267  0.90480  1.0000
  H   H1463     1.0  0.46699  0.47500  0.67103  1.0000
  H   H1464     1.0  0.37477  0.48361  0.77062  1.0000
  H   H1465     1.0  0.48612  0.45155  0.63402  1.0000
  C   C875      1.0  0.40008  0.33654  0.55875  1.0000
  C   C876      1.0  0.58154  0.48690  0.80725  1.0000
  C   C877      1.0  0.49822  0.48329  0.93130  1.0000
  C   C878      1.0  0.42305  0.37584  0.58934  1.0000
  C   C879      1.0  0.42257  0.34959  0.65760  1.0000
  H   H1466     1.0  0.52790  0.44277  0.69221  1.0000
  N   N63       1.0  0.56366  0.49348  0.82627  1.0000
  C   C880      1.0  0.33317  0.25106  0.73117  1.0000
  H   H1467     1.0  0.37793  0.30973  0.96599  1.0000
  H   H1468     1.0  0.42950  0.38418  0.56595  1.0000
  H   H1469     1.0  0.42354  0.32447  0.69672  1.0000
  C   C881      1.0  0.58178  0.46656  0.78956  1.0000
  S   S236      1.0  0.54395  0.43952  0.94994  1.0000
  H   H1470     1.0  0.35241  0.48811  0.74562  1.0000
  N   N64       1.0  0.51149  0.46737  0.63188  1.0000
  H   H1471     1.0  0.36090  0.30254  0.86255  1.0000
  H   H1472     1.0  0.45261  0.47598  0.83755  1.0000
  H   H1473     1.0  0.53482  0.42419  0.65952  1.0000
  Fe  Fe113     1.0  0.57191  0.45167  0.96364  1.0000
  C   C882      1.0  0.57655  0.48951  0.64714  1.0000
  H   H1474     1.0  0.46362  0.42742  0.94219  1.0000
  H   H1475     1.0  0.61041  0.35598  0.78414  1.0000
  C   C883      1.0  0.31104  0.25573  0.94327  1.0000
  H   H1476     1.0  0.59350  0.48702  0.82829  1.0000
  H   H1477     1.0  0.59443  0.34419  0.75272  1.0000
  S   S237      1.0  0.57066  0.48304  0.98038  1.0000
  H   H1478     1.0  0.39405  0.34857  0.61421  1.0000
  H   H1479     1.0  0.49865  0.48757  0.59060  1.0000
  C   C884      1.0  0.63383  0.34633  0.86129  1.0000
  C   C885      1.0  0.36718  0.46190  0.72620  1.0000
  H   H1480     1.0  0.42530  0.30659  0.56899  1.0000
  H   H1481     1.0  0.46009  0.46031  0.79973  1.0000
  H   H1482     1.0  0.51067  0.42858  0.66737  1.0000
  C   C886      1.0  0.62627  0.38081  0.90185  1.0000
  H   H1483     1.0  0.44733  0.35820  0.60349  1.0000
  H   H1484     1.0  0.46845  0.46134  0.97620  1.0000
  C   C887      1.0  0.37474  0.44500  0.78713  1.0000
  H   H1485     1.0  0.35216  0.41127  0.68229  1.0000
  S   S238      1.0  0.31329  0.27119  0.57110  1.0000
  H   H1486     1.0  0.35166  0.25117  0.87120  1.0000
  C   C888      1.0  0.35221  0.26700  0.87352  1.0000
  H   H1487     1.0  0.46183  0.44081  0.85578  1.0000
  H   H1488     1.0  0.44402  0.46324  0.97134  1.0000
  H   H1489     1.0  0.60500  0.34042  0.87129  1.0000
  H   H1490     1.0  0.49536  0.45690  0.68018  1.0000
  N   N65       1.0  0.58771  0.39129  0.78628  1.0000
  C   C889      1.0  0.57623  0.38713  0.82133  1.0000
  C   C890      1.0  0.60742  0.39485  0.79993  1.0000
  C   C891      1.0  0.58803  0.37468  0.75839  1.0000
  C   C892      1.0  0.57909  0.40852  0.76580  1.0000
  H   H1491     1.0  0.35846  0.41533  0.74854  1.0000
  C   C893      1.0  0.61031  0.41373  0.82206  1.0000
  H   H1492     1.0  0.51849  0.48149  0.53536  1.0000
  C   C894      1.0  0.58930  0.41549  0.72959  1.0000
  H   H1493     1.0  0.58347  0.37644  0.84062  1.0000
  H   H1494     1.0  0.57450  0.40019  0.83948  1.0000
  H   H1495     1.0  0.33286  0.45589  0.74067  1.0000
  H   H1496     1.0  0.61261  0.38322  0.81969  1.0000
  H   H1497     1.0  0.57392  0.37246  0.74543  1.0000
  H   H1498     1.0  0.59696  0.37777  0.73320  1.0000
  H   H1499     1.0  0.56469  0.40555  0.75546  1.0000
  H   H1500     1.0  0.57696  0.42079  0.78598  1.0000
  Fe  Fe114     1.0  0.55570  0.41300  0.97889  1.0000
  H   H1501     1.0  0.45743  0.48415  0.96423  1.0000
  H   H1502     1.0  0.51006  0.47322  0.93820  1.0000
  H   H1503     1.0  0.60137  0.41495  0.84782  1.0000
  H   H1504     1.0  0.58729  0.35065  0.80036  1.0000
  H   H1505     1.0  0.62843  0.35398  0.97946  1.0000
  C   C895      1.0  0.37117  0.32600  0.89554  1.0000
  H   H1506     1.0  0.41233  0.34537  0.71578  1.0000
  C   C896      1.0  0.37736  0.29473  0.95522  1.0000
  H   H1507     1.0  0.58406  0.40825  0.70297  1.0000
  H   H1508     1.0  0.60460  0.41326  0.73150  1.0000
  H   H1509     1.0  0.58690  0.43119  0.72631  1.0000
  N   N66       1.0  0.47589  0.45943  0.89710  1.0000
  C   C897      1.0  0.47216  0.45239  0.85620  1.0000
  C   C898      1.0  0.48670  0.44366  0.91824  1.0000
  H   H1510     1.0  0.37545  0.26683  0.98535  1.0000
  C   C899      1.0  0.45731  0.46410  0.91517  1.0000
  H   H1511     1.0  0.43478  0.35087  0.56213  1.0000
  H   H1512     1.0  0.55652  0.36583  0.79853  1.0000
  S   S239      1.0  0.58237  0.46931  0.52112  1.0000
  H   H1513     1.0  0.53266  0.46410  0.56089  1.0000
  H   H1514     1.0  0.48507  0.44590  0.84363  1.0000
  H   H1515     1.0  0.44718  0.45261  0.90945  1.0000
  H   H1516     1.0  0.49160  0.44813  0.94743  1.0000
  H   H1517     1.0  0.49978  0.43991  0.90258  1.0000
  H   H1518     1.0  0.53847  0.45317  0.62407  1.0000
  H   H1519     1.0  0.59538  0.46392  0.77533  1.0000
  C   C900      1.0  0.31837  0.25891  0.98063  1.0000
  N   N67       1.0  0.42338  0.34143  0.61698  1.0000
  C   C901      1.0  0.34127  0.44911  0.76472  1.0000
  C   C902      1.0  0.47613  0.42503  0.92422  1.0000
  S   S240      1.0  0.32526  0.28102  0.68253  1.0000
  H   H1520     1.0  0.59846  0.37063  0.90715  1.0000
  C   C903      1.0  0.61219  0.36768  0.89581  1.0000
  H   H1521     1.0  0.40799  0.37500  0.58224  1.0000
  C   C904      1.0  0.36975  0.30425  0.88890  1.0000
  H   H1522     1.0  0.58057  0.45534  0.81198  1.0000
  H   H1523     1.0  0.57371  0.48223  0.88222  1.0000
  H   H1524     1.0  0.39011  0.32501  0.55241  1.0000
  H   H1525     1.0  0.43676  0.35341  0.66825  1.0000
  H   H1526     1.0  0.54310  0.47557  0.79829  1.0000
  C   C905      1.0  0.52379  0.44949  0.62951  1.0000
  H   H1527     1.0  0.48514  0.49192  0.67142  1.0000
  C   C906      1.0  0.36326  0.42752  0.73091  1.0000
  C   C907      1.0  0.40380  0.33735  0.60314  1.0000
  H   H1528     1.0  0.48544  0.41456  0.93998  1.0000
  H   H1529     1.0  0.42496  0.38424  0.61638  1.0000
  H   H1530     1.0  0.35805  0.46277  0.69979  1.0000
  H   H1531     1.0  0.47211  0.41819  0.89639  1.0000
  H   H1532     1.0  0.33464  0.43515  0.76991  1.0000
  H   H1533     1.0  0.32080  0.31776  0.91584  1.0000
  H   H1534     1.0  0.38376  0.29864  0.88012  1.0000
  H   H1535     1.0  0.54589  0.48018  0.91563  1.0000
  H   H1536     1.0  0.38911  0.49142  0.00149  1.0000
  H   H1537     1.0  0.51328  0.42309  0.99161  1.0000
  C   C908      1.0  0.35241  0.42644  0.69189  1.0000
  S   S241      1.0  0.32333  0.30704  0.51336  1.0000
  H   H1538     1.0  0.52719  0.49500  0.70944  1.0000
  C   C909      1.0  0.48747  0.47706  0.89441  1.0000
  H   H1539     1.0  0.33907  0.29053  0.95946  1.0000
  H   H1540     1.0  0.49803  0.46327  0.57567  1.0000
  H   H1541     1.0  0.37622  0.26539  0.91112  1.0000
  C   C910      1.0  0.43287  0.35592  0.59226  1.0000
  H   H1542     1.0  0.45059  0.47686  0.90096  1.0000
  H   H1543     1.0  0.42896  0.31264  0.63841  1.0000
  N   N68       1.0  0.36294  0.29299  0.92287  1.0000
  H   H1544     1.0  0.33774  0.43166  0.69421  1.0000
  C   C911      1.0  0.56134  0.48175  0.86232  1.0000
  C   C912      1.0  0.41553  0.47926  0.80387  1.0000
  H   H1545     1.0  0.51956  0.44056  0.60424  1.0000
  C   C913      1.0  0.50693  0.47386  0.59086  1.0000
  H   H1546     1.0  0.35821  0.42448  0.82022  1.0000
  H   H1547     1.0  0.36009  0.27175  0.84808  1.0000
  Fe  Fe115     1.0  0.32528  0.28887  0.61927  1.0000
  H   H1548     1.0  0.37949  0.41445  0.80046  1.0000
  C   C914      1.0  0.36194  0.27206  0.91233  1.0000
  H   H1549     1.0  0.52164  0.46699  0.00531  1.0000
  Fe  Fe116     1.0  0.54776  0.40739  0.51904  1.0000
  H   H1550     1.0  0.53250  0.48901  0.57540  1.0000
  H   H1551     1.0  0.62498  0.41403  0.83296  1.0000
  H   H1552     1.0  0.47365  0.48498  0.62622  1.0000
  H   H1553     1.0  0.54757  0.39035  0.79634  1.0000
  H   H1554     1.0  0.41403  0.36310  0.65801  1.0000
  H   H1555     1.0  0.40013  0.33179  0.68028  1.0000
  C   C915      1.0  0.52154  0.48325  0.65233  1.0000
  C   C916      1.0  0.37447  0.28239  0.99162  1.0000
  H   H1556     1.0  0.33762  0.27239  0.87171  1.0000
  H   H1557     1.0  0.32271  0.38951  0.58406  1.0000
  H   H1558     1.0  0.30660  0.35707  0.57699  1.0000
  H   H1559     1.0  0.39159  0.29101  0.94458  1.0000
  C   C917      1.0  0.36689  0.48236  0.74283  1.0000
  H   H1560     1.0  0.48929  0.48516  0.95683  1.0000
  H   H1561     1.0  0.38240  0.32940  0.91679  1.0000
  C   C918      1.0  0.47920  0.47990  0.65477  1.0000
  H   H1562     1.0  0.38933  0.44470  0.77682  1.0000
  H   H1563     1.0  0.38048  0.42994  0.84162  1.0000
  C   C919      1.0  0.37291  0.42742  0.81372  1.0000
  H   H1564     1.0  0.47579  0.47751  0.81853  1.0000
  H   H1565     1.0  0.31836  0.29255  0.90895  1.0000
  C   C920      1.0  0.31672  0.39848  0.56000  1.0000
  H   H1566     1.0  0.38154  0.45878  0.71561  1.0000
  H   H1567     1.0  0.34236  0.45343  0.82832  1.0000
  H   H1568     1.0  0.31301  0.27076  0.99772  1.0000
  H   H1569     1.0  0.34631  0.31405  0.95465  1.0000
  H   H1570     1.0  0.39279  0.34990  0.54851  1.0000
  S   S242      1.0  0.30935  0.31566  0.60182  1.0000
  H   H1571     1.0  0.35951  0.43437  0.66881  1.0000
  H   H1572     1.0  0.51501  0.47360  0.71211  1.0000
  S   S243      1.0  0.57820  0.41126  0.53174  1.0000
  H   H1573     1.0  0.50694  0.42103  0.52684  1.0000
  C   C921      1.0  0.58373  0.49558  0.57978  1.0000
  C   C922      1.0  0.41389  0.49015  0.88250  1.0000
  H   H1574     1.0  0.32419  0.37727  0.51852  1.0000
  C   C923      1.0  0.54772  0.49065  0.79757  1.0000
  H   H1575     1.0  0.53158  0.47853  0.87240  1.0000
  C   C924      1.0  0.33261  0.25736  0.69263  1.0000
  H   H1576     1.0  0.53955  0.47273  0.70043  1.0000
  H   H1577     1.0  0.53523  0.48553  0.63880  1.0000
  H   H1578     1.0  0.37381  0.49184  0.72203  1.0000
  H   H1579     1.0  0.44517  0.32133  0.55850  1.0000
  H   H1580     1.0  0.32238  0.46385  0.80427  1.0000
  S   S244      1.0  0.41317  0.49685  0.93173  1.0000
  C   C925      1.0  0.41414  0.33679  0.68884  1.0000
  C   C926      1.0  0.54364  0.48578  0.88580  1.0000
  H   H1581     1.0  0.62432  0.29824  0.90725  1.0000
  C   C927      1.0  0.46475  0.46759  0.82676  1.0000
  Fe  Fe117     1.0  0.33785  0.28065  0.53747  1.0000
  H   H1582     1.0  0.63227  0.27614  0.93067  1.0000
  H   H1583     1.0  0.62605  0.29507  0.98540  1.0000
  C   C928      1.0  0.31135  0.38600  0.52480  1.0000
  H   H1584     1.0  0.58505  0.49690  0.78339  1.0000
  H   H1585     1.0  0.30966  0.34737  0.51228  1.0000
  C   C929      1.0  0.63636  0.28816  0.91202  1.0000
  H   H1586     1.0  0.30494  0.40743  0.57061  1.0000
  H   H1587     1.0  0.36107  0.28595  0.00569  1.0000
  C   C930      1.0  0.63644  0.34123  0.99070  1.0000
  Fe  Fe118     1.0  0.43678  0.53044  0.42863  1.0000
  S   S245      1.0  0.43229  0.56079  0.40780  1.0000
  H   H1588     1.0  0.34079  0.66779  0.47161  1.0000
  Fe  Fe119     1.0  0.46761  0.54061  0.48613  1.0000
  S   S246      1.0  0.46599  0.57151  0.46924  1.0000
  H   H1589     1.0  0.32141  0.63949  0.47058  1.0000
  Fe  Fe120     1.0  0.43476  0.56898  0.47102  1.0000
  H   H1590     1.0  0.45676  0.53131  0.22671  1.0000
  Fe  Fe121     1.0  0.46360  0.56089  0.40811  1.0000
  S   S247      1.0  0.47868  0.57474  0.35935  1.0000
  C   C931      1.0  0.42330  0.50320  0.09475  1.0000
  S   S248      1.0  0.46783  0.53015  0.42471  1.0000
  Fe  Fe122     1.0  0.33069  0.64824  0.08588  1.0000
  C   C932      1.0  0.31938  0.71400  0.45956  1.0000
  S   S249      1.0  0.34549  0.67482  0.06982  1.0000
  Fe  Fe123     1.0  0.58859  0.57676  0.20158  1.0000
  S   S250      1.0  0.59466  0.54826  0.22973  1.0000
  S   S251      1.0  0.60751  0.60201  0.19764  1.0000
  Fe  Fe124     1.0  0.55036  0.56513  0.17196  1.0000
  S   S252      1.0  0.55322  0.53577  0.19738  1.0000
  S   S253      1.0  0.52392  0.57595  0.14234  1.0000
  Fe  Fe125     1.0  0.56506  0.55047  0.24977  1.0000
  S   S254      1.0  0.55666  0.53972  0.30848  1.0000
  Fe  Fe126     1.0  0.58227  0.53587  0.17504  1.0000
  H   H1591     1.0  0.35932  0.72269  0.24143  1.0000
  S   S255      1.0  0.55992  0.58007  0.22609  1.0000
  S   S256      1.0  0.57855  0.56416  0.14491  1.0000
  C   C933      1.0  0.39352  0.61812  0.03525  1.0000
  H   H1592     1.0  0.57342  0.52843  0.08865  1.0000
  H   H1593     1.0  0.62445  0.67801  0.24405  1.0000
  H   H1594     1.0  0.44047  0.55429  0.26776  1.0000
  H   H1595     1.0  0.31012  0.72196  0.27474  1.0000
  H   H1596     1.0  0.35399  0.58466  0.50213  1.0000
  C   C934      1.0  0.49585  0.53636  0.05537  1.0000
  C   C935      1.0  0.51293  0.53077  0.07291  1.0000
  C   C936      1.0  0.52164  0.54275  0.09997  1.0000
  C   C937      1.0  0.51323  0.56040  0.10944  1.0000
  C   C938      1.0  0.49612  0.56595  0.09199  1.0000
  C   C939      1.0  0.37612  0.62393  0.05022  1.0000
  H   H1597     1.0  0.51971  0.51745  0.06464  1.0000
  H   H1598     1.0  0.53497  0.53851  0.11298  1.0000
  C   C940      1.0  0.57769  0.51438  0.07838  1.0000
  S   S257      1.0  0.59536  0.50902  0.14958  1.0000
  C   C941      1.0  0.50079  0.56519  0.34769  1.0000
  C   C942      1.0  0.51234  0.57586  0.32427  1.0000
  C   C943      1.0  0.52956  0.56816  0.31238  1.0000
  C   C944      1.0  0.53546  0.54985  0.32435  1.0000
  C   C945      1.0  0.52407  0.53926  0.34833  1.0000
  C   C946      1.0  0.50671  0.54688  0.35981  1.0000
  H   H1599     1.0  0.50785  0.59006  0.31491  1.0000
  H   H1600     1.0  0.53833  0.57652  0.29433  1.0000
  H   H1601     1.0  0.52847  0.52496  0.35709  1.0000
  H   H1602     1.0  0.49782  0.53850  0.37744  1.0000
  H   H1603     1.0  0.62853  0.69244  0.37438  1.0000
  H   H1604     1.0  0.46668  0.51597  0.17423  1.0000
  H   H1605     1.0  0.48965  0.57967  0.09907  1.0000
  H   H1606     1.0  0.54710  0.50409  0.40593  1.0000
  C   C947      1.0  0.38613  0.66615  0.49572  1.0000
  C   C948      1.0  0.58848  0.50213  0.10241  1.0000
  H   H1607     1.0  0.45539  0.51077  0.28214  1.0000
  S   S258      1.0  0.32222  0.65877  0.14515  1.0000
  C   C949      1.0  0.48744  0.55396  0.06493  1.0000
  H   H1608     1.0  0.50747  0.55071  0.45987  1.0000
  H   H1609     1.0  0.56871  0.51014  0.50108  1.0000
  H   H1610     1.0  0.32552  0.64649  0.42185  1.0000
  H   H1611     1.0  0.60753  0.67783  0.30547  1.0000
  H   H1612     1.0  0.44570  0.52173  0.34729  1.0000
  S   S259      1.0  0.35251  0.70125  0.17179  1.0000
  C   C950      1.0  0.36443  0.59261  0.03560  1.0000
  H   H1613     1.0  0.52253  0.57436  0.03585  1.0000
  N   N69       1.0  0.48362  0.54456  0.22404  1.0000
  C   C951      1.0  0.46277  0.54576  0.22881  1.0000
  C   C952      1.0  0.48779  0.53797  0.18336  1.0000
  C   C953      1.0  0.49210  0.56382  0.23034  1.0000
  C   C954      1.0  0.49184  0.53074  0.25376  1.0000
  C   C955      1.0  0.45595  0.55433  0.26761  1.0000
  C   C956      1.0  0.48196  0.51749  0.17286  1.0000
  C   C957      1.0  0.48350  0.58050  0.20602  1.0000
  C   C958      1.0  0.51274  0.52556  0.24972  1.0000
  H   H1614     1.0  0.45590  0.55411  0.20476  1.0000
  C   C959      1.0  0.34451  0.72411  0.18644  1.0000
  H   H1615     1.0  0.50292  0.53904  0.17739  1.0000
  H   H1616     1.0  0.48061  0.54752  0.16165  1.0000
  H   H1617     1.0  0.49136  0.56812  0.26131  1.0000
  H   H1618     1.0  0.50722  0.56328  0.22368  1.0000
  H   H1619     1.0  0.49029  0.53662  0.28359  1.0000
  H   H1620     1.0  0.48423  0.51711  0.25353  1.0000
  H   H1621     1.0  0.39621  0.65395  0.49286  1.0000
  H   H1622     1.0  0.53905  0.50127  0.16124  1.0000
  H   H1623     1.0  0.55163  0.59078  0.05791  1.0000
  C   C960      1.0  0.44081  0.50834  0.33573  1.0000
  C   C961      1.0  0.57249  0.50843  0.04080  1.0000
  H   H1624     1.0  0.61596  0.65470  0.25229  1.0000
  H   H1625     1.0  0.49126  0.59364  0.21285  1.0000
  H   H1626     1.0  0.46871  0.58364  0.21291  1.0000
  H   H1627     1.0  0.48485  0.57803  0.17445  1.0000
  H   H1628     1.0  0.51572  0.51756  0.22267  1.0000
  H   H1629     1.0  0.51735  0.51617  0.27428  1.0000
  H   H1630     1.0  0.52140  0.53837  0.25116  1.0000
  H   H1631     1.0  0.34179  0.68395  0.36582  1.0000
  C   C962      1.0  0.38182  0.58686  0.02029  1.0000
  H   H1632     1.0  0.40484  0.62801  0.03561  1.0000
  H   H1633     1.0  0.35216  0.64747  0.49302  1.0000
  H   H1634     1.0  0.58912  0.62603  0.30549  1.0000
  H   H1635     1.0  0.46091  0.54579  0.29305  1.0000
  H   H1636     1.0  0.48597  0.51440  0.14243  1.0000
  C   C963      1.0  0.61623  0.66377  0.37327  1.0000
  H   H1637     1.0  0.55852  0.54947  0.45273  1.0000
  H   H1638     1.0  0.58631  0.64361  0.34277  1.0000
  C   C964      1.0  0.39650  0.59958  0.02023  1.0000
  H   H1639     1.0  0.35322  0.58262  0.03585  1.0000
  H   H1640     1.0  0.38667  0.57590  0.48502  1.0000
  Fe  Fe127     1.0  0.31763  0.68538  0.04618  1.0000
  H   H1641     1.0  0.61886  0.68504  0.41913  1.0000
  H   H1642     1.0  0.31160  0.61152  0.15807  1.0000
  N   N70       1.0  0.54810  0.52075  0.45908  1.0000
  H   H1643     1.0  0.52070  0.52146  0.43066  1.0000
  H   H1644     1.0  0.55426  0.53744  0.40834  1.0000
  C   C965      1.0  0.52765  0.52688  0.45753  1.0000
  S   S260      1.0  0.42187  0.59470  0.50281  1.0000
  H   H1645     1.0  0.46000  0.56938  0.27180  1.0000
  C   C966      1.0  0.63525  0.56516  0.15769  1.0000
  C   C967      1.0  0.55964  0.53521  0.43864  1.0000
  H   H1646     1.0  0.54361  0.56245  0.02557  1.0000
  H   H1647     1.0  0.33780  0.62587  0.44317  1.0000
  C   C968      1.0  0.62198  0.67157  0.30545  1.0000
  H   H1648     1.0  0.59057  0.65070  0.29324  1.0000
  C   C969      1.0  0.44628  0.50216  0.29876  1.0000
  H   H1649     1.0  0.62202  0.63150  0.29879  1.0000
  H   H1650     1.0  0.52006  0.52043  0.48190  1.0000
  C   C970      1.0  0.33698  0.71702  0.47612  1.0000
  H   H1651     1.0  0.32869  0.73014  0.13399  1.0000
  C   C971      1.0  0.31293  0.72526  0.42828  1.0000
  C   C972      1.0  0.36151  0.61115  0.05069  1.0000
  C   C973      1.0  0.32398  0.73967  0.41365  1.0000
  H   H1652     1.0  0.61715  0.62712  0.34781  1.0000
  N   N71       1.0  0.36421  0.65631  0.43909  1.0000
  C   C974      1.0  0.37623  0.67148  0.45688  1.0000
  C   C975      1.0  0.35816  0.66268  0.39888  1.0000
  C   C976      1.0  0.37476  0.63740  0.43610  1.0000
  C   C977      1.0  0.34764  0.65374  0.46461  1.0000
  H   H1653     1.0  0.43255  0.51774  0.14727  1.0000
  C   C978      1.0  0.34551  0.68094  0.39670  1.0000
  C   C979      1.0  0.39344  0.63769  0.41467  1.0000
  H   H1654     1.0  0.43275  0.51236  0.07815  1.0000
  H   H1655     1.0  0.38708  0.67595  0.43636  1.0000
  H   H1656     1.0  0.36777  0.68475  0.46273  1.0000
  H   H1657     1.0  0.35090  0.65106  0.38312  1.0000
  H   H1658     1.0  0.37050  0.66570  0.38105  1.0000
  H   H1659     1.0  0.37757  0.63110  0.46531  1.0000
  H   H1660     1.0  0.36624  0.62667  0.42057  1.0000
  C   C980      1.0  0.54544  0.59296  0.02835  1.0000
  H   H1661     1.0  0.56428  0.51798  0.02218  1.0000
  C   C981      1.0  0.61529  0.63811  0.32461  1.0000
  H   H1662     1.0  0.62008  0.53767  0.11806  1.0000
  H   H1663     1.0  0.60177  0.66948  0.36775  1.0000
  H   H1664     1.0  0.35273  0.69369  0.40786  1.0000
  H   H1665     1.0  0.52933  0.55641  0.48175  1.0000
  H   H1666     1.0  0.33223  0.67940  0.41209  1.0000
  H   H1667     1.0  0.40016  0.62316  0.41635  1.0000
  H   H1668     1.0  0.40345  0.64764  0.42797  1.0000
  H   H1669     1.0  0.39137  0.64109  0.38343  1.0000
  C   C982      1.0  0.53477  0.57496  0.01660  1.0000
  C   C983      1.0  0.63187  0.59320  0.25891  1.0000
  C   C984      1.0  0.33259  0.73525  0.16247  1.0000
  C   C985      1.0  0.62594  0.66532  0.26335  1.0000
  S   S261      1.0  0.30501  0.69629  0.47714  1.0000
  C   C986      1.0  0.63559  0.53711  0.11608  1.0000
  H   H1670     1.0  0.31045  0.71591  0.22369  1.0000
  C   C987      1.0  0.34817  0.73127  0.46101  1.0000
  S   S262      1.0  0.33950  0.61765  0.07022  1.0000
  Fe  Fe128     1.0  0.33491  0.68635  0.12682  1.0000
  C   C988      1.0  0.58069  0.53033  0.43597  1.0000
  H   H1671     1.0  0.37415  0.63815  0.06211  1.0000
  H   H1672     1.0  0.48900  0.50643  0.19139  1.0000
  C   C989      1.0  0.62751  0.60514  0.22728  1.0000
  S   S263      1.0  0.30840  0.69937  0.10145  1.0000
  C   C990      1.0  0.55026  0.50201  0.43750  1.0000
  H   H1673     1.0  0.58735  0.52759  0.46481  1.0000
  H   H1674     1.0  0.63559  0.50601  0.12747  1.0000
  S   S264      1.0  0.43663  0.53843  0.49209  1.0000
  H   H1675     1.0  0.63118  0.68380  0.31171  1.0000
  H   H1676     1.0  0.47430  0.55842  0.05132  1.0000
  H   H1677     1.0  0.39420  0.67856  0.50604  1.0000
  S   S265      1.0  0.42262  0.50435  0.40481  1.0000
  H   H1678     1.0  0.58350  0.51808  0.41624  1.0000
  H   H1679     1.0  0.39789  0.51277  0.02379  1.0000
  S   S266      1.0  0.48567  0.52157  0.02025  1.0000
  H   H1680     1.0  0.62274  0.58173  0.26599  1.0000
  C   C991      1.0  0.35005  0.73123  0.22283  1.0000
  C   C992      1.0  0.59413  0.64003  0.31613  1.0000
  C   C993      1.0  0.63664  0.57917  0.12335  1.0000
  H   H1681     1.0  0.40962  0.51116  0.09413  1.0000
  C   C994      1.0  0.33239  0.64062  0.44851  1.0000
  H   H1682     1.0  0.61457  0.65209  0.39469  1.0000
  H   H1683     1.0  0.52672  0.55534  0.42977  1.0000
  H   H1684     1.0  0.62016  0.56368  0.16366  1.0000
  C   C995      1.0  0.52281  0.54858  0.45746  1.0000
  H   H1685     1.0  0.58769  0.54276  0.42323  1.0000
  C   C996      1.0  0.38373  0.58861  0.50205  1.0000
  N   N72       1.0  0.62464  0.65632  0.33622  1.0000
  C   C997      1.0  0.62687  0.67995  0.39367  1.0000
  C   C998      1.0  0.55471  0.51742  0.50043  1.0000
  H   H1686     1.0  0.34199  0.70840  0.50041  1.0000
  C   C999      1.0  0.42898  0.49726  0.35758  1.0000
  H   H1687     1.0  0.62497  0.53067  0.18690  1.0000
  C   C1000     1.0  0.43001  0.50286  0.13762  1.0000
  H   H1688     1.0  0.53591  0.60570  0.03026  1.0000
  H   H1689     1.0  0.49881  0.50135  0.37756  1.0000
  H   H1690     1.0  0.36184  0.73361  0.47369  1.0000
  H   H1691     1.0  0.63561  0.51240  0.07769  1.0000
  H   H1692     1.0  0.62655  0.57567  0.09976  1.0000
  H   H1693     1.0  0.63287  0.59388  0.13326  1.0000
  C   C1001     1.0  0.34165  0.74271  0.42987  1.0000
  H   H1694     1.0  0.41925  0.49720  0.15688  1.0000
  H   H1695     1.0  0.63613  0.62930  0.19402  1.0000
  C   C1002     1.0  0.39608  0.49719  0.02792  1.0000
  H   H1696     1.0  0.55695  0.59592  0.00850  1.0000
  H   H1697     1.0  0.38391  0.57257  0.00879  1.0000
  Fe  Fe129     1.0  0.42742  0.52473  0.94262  1.0000
  S   S267      1.0  0.42194  0.55386  0.91637  1.0000
  H   H1698     1.0  0.58836  0.50530  0.55785  1.0000
  H   H1699     1.0  0.56569  0.54576  0.51572  1.0000
  S   S268      1.0  0.46072  0.56619  0.96219  1.0000
  H   H1700     1.0  0.53923  0.53464  0.95121  1.0000
  Fe  Fe130     1.0  0.42998  0.56530  0.97539  1.0000
  C   C1003     1.0  0.36112  0.61013  0.53376  1.0000
  Fe  Fe131     1.0  0.45271  0.55295  0.90519  1.0000
  S   S269      1.0  0.46297  0.56228  0.84698  1.0000
  N   N73       1.0  0.62877  0.65507  0.71014  1.0000
  S   S270      1.0  0.45742  0.52308  0.92665  1.0000
  Fe  Fe132     1.0  0.32669  0.64443  0.56862  1.0000
  H   H1701     1.0  0.47979  0.56793  0.68046  1.0000
  S   S271      1.0  0.34055  0.67236  0.55897  1.0000
  Fe  Fe133     1.0  0.59431  0.56755  0.71657  1.0000
  S   S272      1.0  0.58871  0.54302  0.75634  1.0000
  S   S273      1.0  0.62216  0.58204  0.71126  1.0000
  Fe  Fe134     1.0  0.55514  0.56701  0.68061  1.0000
  S   S274      1.0  0.54618  0.54301  0.71835  1.0000
  S   S275      1.0  0.53643  0.58094  0.63481  1.0000
  Fe  Fe135     1.0  0.56118  0.55835  0.76610  1.0000
  S   S276      1.0  0.55018  0.55914  0.82704  1.0000
  Fe  Fe136     1.0  0.57412  0.52957  0.70518  1.0000
  H   H1702     1.0  0.41731  0.51883  0.86168  1.0000
  S   S277      1.0  0.56773  0.58385  0.72981  1.0000
  S   S278      1.0  0.58217  0.55268  0.66405  1.0000
  S   S279      1.0  0.34395  0.69522  0.66502  1.0000
  C   C1004     1.0  0.58171  0.50208  0.61806  1.0000
  H   H1703     1.0  0.61283  0.58749  0.79290  1.0000
  H   H1704     1.0  0.34212  0.69265  0.87189  1.0000
  H   H1705     1.0  0.48352  0.59046  0.65723  1.0000
  S   S280      1.0  0.43271  0.53605  0.00298  1.0000
  C   C1005     1.0  0.50203  0.54160  0.55734  1.0000
  C   C1006     1.0  0.51274  0.53390  0.58830  1.0000
  C   C1007     1.0  0.52370  0.54575  0.61184  1.0000
  C   C1008     1.0  0.52397  0.56541  0.60442  1.0000
  C   C1009     1.0  0.51374  0.57298  0.57271  1.0000
  H   H1706     1.0  0.37281  0.63413  0.56363  1.0000
  H   H1707     1.0  0.51244  0.51880  0.59431  1.0000
  H   H1708     1.0  0.53179  0.53974  0.63590  1.0000
  H   H1709     1.0  0.51410  0.49732  0.64833  1.0000
  C   C1010     1.0  0.50561  0.59191  0.92672  1.0000
  C   C1011     1.0  0.48701  0.55942  0.83919  1.0000
  C   C1012     1.0  0.49852  0.54919  0.86550  1.0000
  C   C1013     1.0  0.51792  0.54860  0.86080  1.0000
  C   C1014     1.0  0.52582  0.55801  0.82952  1.0000
  C   C1015     1.0  0.51424  0.56721  0.80186  1.0000
  C   C1016     1.0  0.49485  0.56800  0.80684  1.0000
  H   H1710     1.0  0.49241  0.54211  0.88983  1.0000
  H   H1711     1.0  0.52685  0.54106  0.88163  1.0000
  H   H1712     1.0  0.52025  0.57441  0.77751  1.0000
  H   H1713     1.0  0.48595  0.57577  0.78620  1.0000
  H   H1714     1.0  0.51867  0.52494  0.96977  1.0000
  H   H1715     1.0  0.35521  0.69876  0.91390  1.0000
  C   C1017     1.0  0.55585  0.53520  0.52661  1.0000
  H   H1716     1.0  0.50435  0.49743  0.92588  1.0000
  H   H1717     1.0  0.36577  0.68443  0.87539  1.0000
  C   C1018     1.0  0.60860  0.65578  0.69708  1.0000
  H   H1718     1.0  0.47322  0.61800  0.56668  1.0000
  C   C1019     1.0  0.33076  0.64413  0.97279  1.0000
  C   C1020     1.0  0.39834  0.60006  0.51443  1.0000
  H   H1719     1.0  0.62206  0.65158  0.81067  1.0000
  C   C1021     1.0  0.37653  0.65198  0.91865  1.0000
  H   H1720     1.0  0.36781  0.66175  0.00009  1.0000
  H   H1721     1.0  0.58079  0.53534  0.86868  1.0000
  H   H1722     1.0  0.33130  0.65499  0.99611  1.0000
  H   H1723     1.0  0.31804  0.70381  0.78244  1.0000
  H   H1724     1.0  0.40402  0.63818  0.92654  1.0000
  S   S281      1.0  0.41878  0.59324  0.00180  1.0000
  H   H1725     1.0  0.38425  0.66402  0.90671  1.0000
  C   C1022     1.0  0.51500  0.59069  0.96749  1.0000
  C   C1023     1.0  0.50281  0.56112  0.54922  1.0000
  H   H1726     1.0  0.31860  0.73793  0.87664  1.0000
  H   H1727     1.0  0.54041  0.50119  0.88990  1.0000
  C   C1024     1.0  0.36367  0.67097  0.97481  1.0000
  H   H1728     1.0  0.62254  0.69297  0.66312  1.0000
  H   H1729     1.0  0.38276  0.68965  0.94104  1.0000
  H   H1730     1.0  0.62959  0.60392  0.84672  1.0000
  C   C1025     1.0  0.33957  0.74199  0.92105  1.0000
  C   C1026     1.0  0.63085  0.64786  0.75126  1.0000
  H   H1731     1.0  0.53478  0.53495  0.00316  1.0000
  C   C1027     1.0  0.58167  0.51968  0.86320  1.0000
  S   S282      1.0  0.31619  0.65186  0.62849  1.0000
  H   H1732     1.0  0.58379  0.63888  0.68901  1.0000
  H   H1733     1.0  0.43294  0.54369  0.59785  1.0000
  C   C1028     1.0  0.33986  0.72589  0.71384  1.0000
  C   C1029     1.0  0.44812  0.54614  0.59687  1.0000
  C   C1030     1.0  0.33228  0.74377  0.72499  1.0000
  H   H1734     1.0  0.34148  0.65913  0.88855  1.0000
  C   C1031     1.0  0.62623  0.59366  0.78792  1.0000
  S   S283      1.0  0.48777  0.52650  0.52949  1.0000
  H   H1735     1.0  0.34851  0.71764  0.73415  1.0000
  H   H1736     1.0  0.51419  0.58812  0.56645  1.0000
  C   C1032     1.0  0.32150  0.71325  0.96180  1.0000
  H   H1737     1.0  0.39416  0.64623  0.97115  1.0000
  H   H1738     1.0  0.37532  0.69888  0.98625  1.0000
  H   H1739     1.0  0.63502  0.64311  0.65319  1.0000
  C   C1033     1.0  0.51768  0.55594  0.96867  1.0000
  C   C1034     1.0  0.34603  0.66899  0.91212  1.0000
  H   H1740     1.0  0.37254  0.64339  0.89266  1.0000
  C   C1035     1.0  0.33587  0.71844  0.67690  1.0000
  N   N74       1.0  0.52843  0.57392  0.97465  1.0000
  H   H1741     1.0  0.60055  0.66697  0.71320  1.0000
  H   H1742     1.0  0.58099  0.51258  0.89187  1.0000
  H   H1743     1.0  0.41840  0.61315  0.62006  1.0000
  H   H1744     1.0  0.48248  0.59771  0.59247  1.0000
  H   H1745     1.0  0.58461  0.51673  0.62513  1.0000
  H   H1746     1.0  0.54197  0.54201  0.53102  1.0000
  H   H1747     1.0  0.57371  0.57416  0.96499  1.0000
  H   H1748     1.0  0.42136  0.60028  0.66566  1.0000
  C   C1036     1.0  0.52855  0.53675  0.97374  1.0000
  H   H1749     1.0  0.56665  0.52265  0.80862  1.0000
  C   C1037     1.0  0.39079  0.63971  0.94266  1.0000
  S   S284      1.0  0.57409  0.49742  0.69555  1.0000
  Fe  Fe137     1.0  0.46254  0.53615  0.98500  1.0000
  Fe  Fe138     1.0  0.32831  0.68059  0.61663  1.0000
  C   C1038     1.0  0.31196  0.69077  0.76969  1.0000
  C   C1039     1.0  0.56533  0.51435  0.83586  1.0000
  H   H1750     1.0  0.47071  0.59492  0.54587  1.0000
  H   H1751     1.0  0.32658  0.63054  0.98639  1.0000
  H   H1752     1.0  0.48260  0.56837  0.63013  1.0000
  H   H1753     1.0  0.33312  0.67383  0.92707  1.0000
  H   H1754     1.0  0.60489  0.62517  0.68291  1.0000
  H   H1755     1.0  0.60408  0.65791  0.77629  1.0000
  H   H1756     1.0  0.49488  0.58098  0.92254  1.0000
  H   H1757     1.0  0.50357  0.59080  0.98906  1.0000
  H   H1758     1.0  0.30600  0.68188  0.79271  1.0000
  H   H1759     1.0  0.62803  0.68489  0.72714  1.0000
  C   C1040     1.0  0.59830  0.63677  0.70041  1.0000
  C   C1041     1.0  0.31480  0.71923  0.92520  1.0000
  N   N75       1.0  0.35933  0.65865  0.93995  1.0000
  S   S285      1.0  0.33758  0.61591  0.54475  1.0000
  H   H1760     1.0  0.49812  0.60598  0.92367  1.0000
  C   C1042     1.0  0.34985  0.64090  0.95361  1.0000
  H   H1761     1.0  0.59727  0.63191  0.73089  1.0000
  H   H1762     1.0  0.37611  0.66299  0.51867  1.0000
  H   H1763     1.0  0.35870  0.63302  0.97553  1.0000
  H   H1764     1.0  0.40548  0.62541  0.54646  1.0000
  Fe  Fe139     1.0  0.31278  0.68242  0.53431  1.0000
  H   H1765     1.0  0.41802  0.50936  0.79249  1.0000
  C   C1043     1.0  0.41663  0.49853  0.81458  1.0000
  H   H1766     1.0  0.30559  0.70307  0.71437  1.0000
  H   H1767     1.0  0.45489  0.54274  0.62531  1.0000
  C   C1044     1.0  0.34646  0.73577  0.95747  1.0000
  C   C1045     1.0  0.54420  0.57506  0.94641  1.0000
  H   H1768     1.0  0.38586  0.62499  0.94717  1.0000
  C   C1046     1.0  0.35308  0.68712  0.89255  1.0000
  H   H1769     1.0  0.34778  0.63068  0.92913  1.0000
  C   C1047     1.0  0.56265  0.56402  0.95699  1.0000
  H   H1770     1.0  0.63625  0.62634  0.69093  1.0000
  H   H1771     1.0  0.62335  0.67368  0.78557  1.0000
  C   C1048     1.0  0.32486  0.72927  0.65062  1.0000
  H   H1772     1.0  0.60731  0.66020  0.66609  1.0000
  C   C1049     1.0  0.37575  0.62153  0.54627  1.0000
  H   H1773     1.0  0.51164  0.55541  0.93904  1.0000
  H   H1774     1.0  0.53962  0.57007  0.91713  1.0000
  H   H1775     1.0  0.54796  0.59027  0.94221  1.0000
  H   H1776     1.0  0.32229  0.72394  0.62170  1.0000
  H   H1777     1.0  0.56110  0.53073  0.55587  1.0000
  C   C1050     1.0  0.33733  0.72155  0.97806  1.0000
  H   H1778     1.0  0.45393  0.53567  0.57571  1.0000
  S   S286      1.0  0.30978  0.69510  0.98557  1.0000
  C   C1051     1.0  0.61928  0.65861  0.78212  1.0000
  H   H1779     1.0  0.44840  0.56796  0.66633  1.0000
  H   H1780     1.0  0.62718  0.63258  0.75304  1.0000
  H   H1781     1.0  0.55259  0.52026  0.84952  1.0000
  H   H1782     1.0  0.56772  0.55631  0.93079  1.0000
  H   H1783     1.0  0.56180  0.55321  0.98014  1.0000
  H   H1784     1.0  0.51576  0.59090  0.90290  1.0000
  N   N76       1.0  0.44668  0.58250  0.61036  1.0000
  C   C1052     1.0  0.42568  0.58231  0.61339  1.0000
  C   C1053     1.0  0.45225  0.56653  0.58310  1.0000
  C   C1054     1.0  0.45172  0.60163  0.59373  1.0000
  C   C1055     1.0  0.45502  0.57981  0.65061  1.0000
  C   C1056     1.0  0.41643  0.59935  0.63505  1.0000
  H   H1785     1.0  0.35092  0.67919  0.98376  1.0000
  C   C1057     1.0  0.47070  0.60282  0.57384  1.0000
  C   C1058     1.0  0.47639  0.57664  0.65418  1.0000
  H   H1786     1.0  0.41895  0.58188  0.58395  1.0000
  H   H1787     1.0  0.42122  0.56921  0.62849  1.0000
  H   H1788     1.0  0.46728  0.56642  0.57674  1.0000
  H   H1789     1.0  0.44525  0.56873  0.55423  1.0000
  H   H1790     1.0  0.44122  0.60642  0.57125  1.0000
  H   H1791     1.0  0.45135  0.61292  0.61657  1.0000
  H   H1792     1.0  0.45175  0.59252  0.66898  1.0000
  H   H1793     1.0  0.35876  0.74216  0.96994  1.0000
  H   H1794     1.0  0.40114  0.59730  0.63554  1.0000
  H   H1795     1.0  0.32376  0.68229  0.75718  1.0000
  C   C1059     1.0  0.41620  0.50392  0.85379  1.0000
  C   C1060     1.0  0.63404  0.59244  0.75109  1.0000
  H   H1796     1.0  0.59542  0.51678  0.84992  1.0000
  H   H1797     1.0  0.51909  0.49883  0.78128  1.0000
  H   H1798     1.0  0.34256  0.71699  0.00632  1.0000
  C   C1061     1.0  0.32375  0.73360  0.90497  1.0000
  H   H1799     1.0  0.52215  0.60447  0.97147  1.0000
  C   C1062     1.0  0.39426  0.61650  0.53666  1.0000
  C   C1063     1.0  0.37944  0.68546  0.97091  1.0000
  H   H1800     1.0  0.54546  0.50748  0.51552  1.0000
  C   C1064     1.0  0.36522  0.59363  0.51175  1.0000
  H   H1801     1.0  0.31964  0.64819  0.95128  1.0000
  C   C1065     1.0  0.53018  0.50386  0.80141  1.0000
  H   H1802     1.0  0.39235  0.68009  0.98611  1.0000
  H   H1803     1.0  0.50553  0.55586  0.98827  1.0000
  H   H1804     1.0  0.52432  0.50405  0.83079  1.0000
  H   H1805     1.0  0.53311  0.51875  0.79267  1.0000
  H   H1806     1.0  0.49499  0.56717  0.52499  1.0000
  C   C1066     1.0  0.63620  0.67497  0.70832  1.0000
  C   C1067     1.0  0.63571  0.68446  0.66780  1.0000
  C   C1068     1.0  0.63571  0.60304  0.81830  1.0000
  Fe  Fe140     1.0  0.43901  0.95496  0.17600  1.0000
  S   S287      1.0  0.43162  0.92727  0.14717  1.0000
  H   H1807     1.0  0.57065  0.84460  0.50222  1.0000
  Fe  Fe141     1.0  0.45366  0.93515  0.24905  1.0000
  S   S288      1.0  0.44804  0.90552  0.22709  1.0000
  S   S289      1.0  0.46728  0.94548  0.30421  1.0000
  Fe  Fe142     1.0  0.45925  0.91613  0.17073  1.0000
  S   S290      1.0  0.47771  0.89741  0.13329  1.0000
  Fe  Fe143     1.0  0.42071  0.91845  0.20546  1.0000
  S   S291      1.0  0.39295  0.90347  0.20769  1.0000
  S   S292      1.0  0.46747  0.94435  0.19492  1.0000
  S   S293      1.0  0.42551  0.94739  0.23199  1.0000
  C   C1069     1.0  0.56669  0.96533  0.28728  1.0000
  S   S294      1.0  0.37177  0.84429  0.33895  1.0000
  H   H1808     1.0  0.48200  0.87754  0.21362  1.0000
  Fe  Fe144     1.0  0.54935  0.89982  0.41206  1.0000
  S   S295      1.0  0.54789  0.92802  0.44306  1.0000
  S   S296      1.0  0.52573  0.88669  0.37849  1.0000
  Fe  Fe145     1.0  0.58952  0.89108  0.43736  1.0000
  H   H1809     1.0  0.52793  0.93545  0.21072  1.0000
  H   H1810     1.0  0.57904  0.87307  0.09457  1.0000
  S   S297      1.0  0.43953  0.98587  0.15674  1.0000
  H   H1811     1.0  0.54217  0.98087  0.49384  1.0000
  Fe  Fe146     1.0  0.57624  0.93219  0.41891  1.0000
  S   S298      1.0  0.58254  0.96242  0.40122  1.0000
  S   S299      1.0  0.56204  0.88392  0.46293  1.0000
  S   S300      1.0  0.57662  0.90507  0.38385  1.0000
  H   H1812     1.0  0.30501  0.81813  0.44563  1.0000
  H   H1813     1.0  0.44930  0.90347  0.41437  1.0000
  C   C1070     1.0  0.57052  0.95832  0.32496  1.0000
  C   C1071     1.0  0.57735  0.97056  0.35371  1.0000
  H   H1814     1.0  0.38015  0.78124  0.14505  1.0000
  C   C1072     1.0  0.30567  0.87429  0.30198  1.0000
  H   H1815     1.0  0.56840  0.94344  0.33165  1.0000
  H   H1816     1.0  0.52904  0.94218  0.12881  1.0000
  C   C1073     1.0  0.49710  0.90788  0.11231  1.0000
  H   H1817     1.0  0.41381  0.80969  0.24986  1.0000
  H   H1818     1.0  0.31842  0.90353  0.36015  1.0000
  C   C1074     1.0  0.52942  0.92271  0.08036  1.0000
  C   C1075     1.0  0.52213  0.93048  0.11453  1.0000
  C   C1076     1.0  0.50573  0.92342  0.12991  1.0000
  H   H1819     1.0  0.50648  0.93622  0.50071  1.0000
  C   C1077     1.0  0.48425  0.98889  0.11245  1.0000
  H   H1820     1.0  0.34177  0.88925  0.41622  1.0000
  H   H1821     1.0  0.50008  0.92970  0.15591  1.0000
  C   C1078     1.0  0.48308  0.92894  0.32531  1.0000
  C   C1079     1.0  0.49762  0.93556  0.34877  1.0000
  C   C1080     1.0  0.51084  0.92267  0.36503  1.0000
  C   C1081     1.0  0.50917  0.90304  0.35899  1.0000
  C   C1082     1.0  0.49428  0.89634  0.33641  1.0000
  C   C1083     1.0  0.48128  0.90931  0.31938  1.0000
  H   H1822     1.0  0.49875  0.95069  0.35402  1.0000
  H   H1823     1.0  0.52236  0.92797  0.38191  1.0000
  H   H1824     1.0  0.49285  0.88113  0.33192  1.0000
  H   H1825     1.0  0.46979  0.90412  0.30199  1.0000
  C   C1084     1.0  0.37707  0.86103  0.30260  1.0000
  C   C1085     1.0  0.36478  0.86528  0.27158  1.0000
  C   C1086     1.0  0.36979  0.87843  0.24290  1.0000
  C   C1087     1.0  0.38712  0.88733  0.24481  1.0000
  C   C1088     1.0  0.39933  0.88311  0.27593  1.0000
  C   C1089     1.0  0.39426  0.87011  0.30479  1.0000
  H   H1826     1.0  0.35149  0.85844  0.26963  1.0000
  H   H1827     1.0  0.36023  0.88171  0.21897  1.0000
  H   H1828     1.0  0.41267  0.88991  0.27781  1.0000
  H   H1829     1.0  0.40383  0.86693  0.32873  1.0000
  H   H1830     1.0  0.52950  0.86541  0.25109  1.0000
  H   H1831     1.0  0.31892  0.74825  0.38950  1.0000
  H   H1832     1.0  0.41131  0.97639  0.02697  1.0000
  H   H1833     1.0  0.52425  0.91387  0.28848  1.0000
  H   H1834     1.0  0.42087  0.83514  0.15891  1.0000
  S   S301      1.0  0.61040  0.86627  0.43119  1.0000
  S   S302      1.0  0.35790  0.79155  0.31655  1.0000
  C   C1090     1.0  0.53220  0.98651  0.11103  1.0000
  N   N77       1.0  0.38101  0.81658  0.20085  1.0000
  C   C1091     1.0  0.38501  0.82170  0.24263  1.0000
  C   C1092     1.0  0.36693  0.83110  0.18463  1.0000
  C   C1093     1.0  0.39843  0.81711  0.17721  1.0000
  C   C1094     1.0  0.37369  0.79662  0.19915  1.0000
  C   C1095     1.0  0.40011  0.80935  0.26405  1.0000
  C   C1096     1.0  0.34665  0.82888  0.19757  1.0000
  C   C1097     1.0  0.40900  0.83603  0.17915  1.0000
  C   C1098     1.0  0.36825  0.78924  0.15827  1.0000
  H   H1835     1.0  0.38929  0.83679  0.24513  1.0000
  H   H1836     1.0  0.37220  0.82093  0.26009  1.0000
  H   H1837     1.0  0.36676  0.83121  0.15233  1.0000
  H   H1838     1.0  0.37086  0.84587  0.19279  1.0000
  H   H1839     1.0  0.40840  0.80526  0.18556  1.0000
  H   H1840     1.0  0.39509  0.81453  0.14597  1.0000
  H   H1841     1.0  0.38432  0.78607  0.21055  1.0000
  H   H1842     1.0  0.36176  0.79490  0.21892  1.0000
  C   C1099     1.0  0.52196  0.93283  0.23958  1.0000
  C   C1100     1.0  0.50547  0.89530  0.22825  1.0000
  H   H1843     1.0  0.40210  0.81527  0.29377  1.0000
  H   H1844     1.0  0.33810  0.84152  0.18767  1.0000
  H   H1845     1.0  0.34031  0.81609  0.18426  1.0000
  H   H1846     1.0  0.34553  0.82806  0.22950  1.0000
  H   H1847     1.0  0.41503  0.83868  0.20848  1.0000
  H   H1848     1.0  0.40009  0.84852  0.17004  1.0000
  H   H1849     1.0  0.31132  0.87101  0.43896  1.0000
  C   C1101     1.0  0.48779  0.97035  0.08944  1.0000
  H   H1850     1.0  0.36345  0.80068  0.13801  1.0000
  S   S303      1.0  0.32271  0.82236  0.30267  1.0000
  Fe  Fe147     1.0  0.34997  0.82141  0.33554  1.0000
  S   S304      1.0  0.32286  0.78286  0.22626  1.0000
  C   C1102     1.0  0.52993  0.91427  0.25869  1.0000
  C   C1103     1.0  0.62874  0.86060  0.46464  1.0000
  N   N78       1.0  0.46582  0.91727  0.45908  1.0000
  C   C1104     1.0  0.46423  0.90520  0.42290  1.0000
  H   H1851     1.0  0.45771  0.94133  0.38906  1.0000
  H   H1852     1.0  0.56298  0.89173  0.08182  1.0000
  C   C1105     1.0  0.48627  0.92054  0.46684  1.0000
  C   C1106     1.0  0.47351  0.88498  0.42535  1.0000
  C   C1107     1.0  0.46126  0.94797  0.41738  1.0000
  S   S305      1.0  0.31518  0.77957  0.33861  1.0000
  C   C1108     1.0  0.49107  0.93521  0.49852  1.0000
  H   H1853     1.0  0.54518  0.91633  0.26253  1.0000
  H   H1854     1.0  0.47070  0.91226  0.39792  1.0000
  H   H1855     1.0  0.53941  0.98655  0.33048  1.0000
  H   H1856     1.0  0.50651  0.93318  0.23735  1.0000
  H   H1857     1.0  0.50024  0.96242  0.10064  1.0000
  H   H1858     1.0  0.52581  0.94506  0.25832  1.0000
  H   H1859     1.0  0.49370  0.90697  0.47539  1.0000
  H   H1860     1.0  0.49314  0.92515  0.43988  1.0000
  C   C1109     1.0  0.61497  0.89482  0.12690  1.0000
  H   H1861     1.0  0.43989  0.93278  0.44633  1.0000
  C   C1110     1.0  0.59180  0.89877  0.07145  1.0000
  C   C1111     1.0  0.42380  0.98002  0.08395  1.0000
  H   H1862     1.0  0.42157  0.96546  0.09289  1.0000
  H   H1863     1.0  0.62076  0.93768  0.04066  1.0000
  H   H1864     1.0  0.52313  0.87994  0.29063  1.0000
  H   H1865     1.0  0.35815  0.87231  0.39673  1.0000
  H   H1866     1.0  0.60599  0.84687  0.02833  1.0000
  C   C1112     1.0  0.61603  0.85554  0.01399  1.0000
  C   C1113     1.0  0.62223  0.87453  0.11604  1.0000
  H   H1867     1.0  0.33614  0.87678  0.34599  1.0000
  H   H1868     1.0  0.48180  0.98443  0.14286  1.0000
  H   H1869     1.0  0.31913  0.86730  0.29390  1.0000
  S   S306      1.0  0.56413  0.99300  0.23102  1.0000
  N   N79       1.0  0.52615  0.89581  0.23749  1.0000
  H   H1870     1.0  0.39582  0.79438  0.26778  1.0000
  H   H1871     1.0  0.35637  0.77952  0.16054  1.0000
  S   S307      1.0  0.59163  0.91877  0.47013  1.0000
  H   H1872     1.0  0.44602  0.98084  0.28033  1.0000
  H   H1873     1.0  0.56772  0.98784  0.45825  1.0000
  C   C1114     1.0  0.50467  0.89982  0.07860  1.0000
  H   H1874     1.0  0.47577  0.96089  0.09326  1.0000
  C   C1115     1.0  0.34341  0.74925  0.23551  1.0000
  H   H1875     1.0  0.31700  0.76192  0.15613  1.0000
  H   H1876     1.0  0.47631  0.95098  0.41909  1.0000
  S   S308      1.0  0.54980  0.93202  0.06159  1.0000
  C   C1116     1.0  0.57691  0.88886  0.09562  1.0000
  H   H1877     1.0  0.34178  0.86421  0.43060  1.0000
  N   N80       1.0  0.30993  0.87531  0.37654  1.0000
  H   H1878     1.0  0.50065  0.99060  0.25025  1.0000
  C   C1117     1.0  0.52061  0.90745  0.06220  1.0000
  H   H1879     1.0  0.56160  0.95580  0.26500  1.0000
  H   H1880     1.0  0.57464  0.92511  0.12889  1.0000
  H   H1881     1.0  0.34758  0.75456  0.26377  1.0000
  H   H1882     1.0  0.49650  0.86778  0.25165  1.0000
  H   H1883     1.0  0.48785  0.98192  0.37955  1.0000
  C   C1118     1.0  0.32612  0.75332  0.17492  1.0000
  C   C1119     1.0  0.43213  0.99282  0.10969  1.0000
  H   H1884     1.0  0.31206  0.90159  0.40950  1.0000
  N   N81       1.0  0.60810  0.90713  0.09332  1.0000
  Fe  Fe148     1.0  0.56307  0.91268  0.49147  1.0000
  C   C1120     1.0  0.55242  0.87915  0.27885  1.0000
  H   H1885     1.0  0.59757  0.93616  0.08331  1.0000
  H   H1886     1.0  0.48889  0.97294  0.05787  1.0000
  H   H1887     1.0  0.58455  0.90989  0.05309  1.0000
  H   H1888     1.0  0.59154  0.83075  0.49229  1.0000
  H   H1889     1.0  0.48541  0.94975  0.49155  1.0000
  H   H1890     1.0  0.53582  0.97043  0.39329  1.0000
  H   H1891     1.0  0.45360  0.96203  0.41800  1.0000
  H   H1892     1.0  0.49810  0.88774  0.06495  1.0000
  S   S309      1.0  0.44679  0.99459  0.48212  1.0000
  H   H1893     1.0  0.58738  0.94429  0.14824  1.0000
  H   H1894     1.0  0.44621  0.89686  0.48110  1.0000
  H   H1895     1.0  0.57588  0.89359  0.12604  1.0000
  H   H1896     1.0  0.46818  0.87634  0.44945  1.0000
  H   H1897     1.0  0.52735  0.97449  0.09301  1.0000
  H   H1898     1.0  0.30689  0.89003  0.30059  1.0000
  C   C1121     1.0  0.52528  0.98636  0.34297  1.0000
  H   H1899     1.0  0.54281  0.98057  0.13203  1.0000
  H   H1900     1.0  0.50194  0.90358  0.20150  1.0000
  H   H1901     1.0  0.46799  0.89646  0.50615  1.0000
  H   H1902     1.0  0.53576  0.86426  0.19057  1.0000
  H   H1903     1.0  0.50368  0.86643  0.20150  1.0000
  H   H1904     1.0  0.33191  0.85399  0.36596  1.0000
  C   C1122     1.0  0.58868  0.92899  0.13965  1.0000
  H   H1905     1.0  0.55535  0.89131  0.29857  1.0000
  H   H1906     1.0  0.51944  0.97273  0.33238  1.0000
  H   H1907     1.0  0.56237  0.87868  0.25467  1.0000
  H   H1908     1.0  0.59691  0.88773  0.05078  1.0000
  C   C1123     1.0  0.33026  0.86964  0.37170  1.0000
  H   H1909     1.0  0.52624  0.90130  0.03592  1.0000
  C   C1124     1.0  0.56948  0.98462  0.27828  1.0000
  C   C1125     1.0  0.63537  0.87405  0.49118  1.0000
  S   S310      1.0  0.35582  0.76061  0.41185  1.0000
  C   C1126     1.0  0.49676  0.87549  0.22352  1.0000
  H   H1910     1.0  0.53277  0.90782  0.18193  1.0000
  H   H1911     1.0  0.47042  0.87717  0.39799  1.0000
  H   H1912     1.0  0.49731  0.90245  0.25146  1.0000
  H   H1913     1.0  0.48892  0.88559  0.42792  1.0000
  C   C1127     1.0  0.53725  0.89562  0.20079  1.0000
  C   C1128     1.0  0.34348  0.87426  0.40612  1.0000
  C   C1129     1.0  0.45741  0.90631  0.49209  1.0000
  Fe  Fe149     1.0  0.32960  0.79176  0.28760  1.0000
  H   H1914     1.0  0.62982  0.88858  0.49038  1.0000
  H   H1915     1.0  0.59271  0.92095  0.16632  1.0000
  C   C1130     1.0  0.33145  0.76030  0.21149  1.0000
  H   H1916     1.0  0.52213  0.97823  0.26613  1.0000
  Fe  Fe150     1.0  0.31049  0.81010  0.35653  1.0000
  S   S311      1.0  0.33711  0.81187  0.39115  1.0000
  H   H1917     1.0  0.55508  0.86598  0.29639  1.0000
  H   H1918     1.0  0.52314  0.87911  0.15519  1.0000
  H   H1919     1.0  0.63141  0.83142  0.44479  1.0000
  H   H1920     1.0  0.55224  0.89832  0.20656  1.0000
  C   C1131     1.0  0.53194  0.87957  0.26436  1.0000
  Fe  Fe151     1.0  0.34284  0.78202  0.36953  1.0000
  H   H1921     1.0  0.54823  0.87674  0.15600  1.0000
  C   C1132     1.0  0.53574  0.87790  0.17445  1.0000
  C   C1133     1.0  0.52868  0.98447  0.38721  1.0000
  C   C1134     1.0  0.45491  0.93574  0.45165  1.0000
  C   C1135     1.0  0.41803  0.98622  0.04665  1.0000
  H   H1922     1.0  0.45520  0.94521  0.47740  1.0000
  C   C1136     1.0  0.51570  0.99213  0.25710  1.0000
  C   C1137     1.0  0.60325  0.92706  0.10755  1.0000
  H   H1923     1.0  0.61605  0.93413  0.11855  1.0000
  H   H1924     1.0  0.61244  0.86699  0.09653  1.0000
  H   H1925     1.0  0.51282  0.98750  0.15822  1.0000
  H   H1926     1.0  0.60911  0.97667  0.46241  1.0000
  H   H1927     1.0  0.49067  0.98532  0.31018  1.0000
  C   C1138     1.0  0.62420  0.90868  0.06590  1.0000
  H   H1928     1.0  0.60413  0.89293  0.14880  1.0000
  C   C1139     1.0  0.62108  0.92249  0.03139  1.0000
  H   H1929     1.0  0.47072  0.99512  0.10173  1.0000
  H   H1930     1.0  0.58023  0.96049  0.48706  1.0000
  C   C1140     1.0  0.58002  0.98985  0.34475  1.0000
  C   C1141     1.0  0.30822  0.89685  0.37960  1.0000
  H   H1931     1.0  0.30640  0.85012  0.41156  1.0000
  H   H1932     1.0  0.62649  0.90195  0.14294  1.0000
  H   H1933     1.0  0.46814  0.99464  0.36016  1.0000
  H   H1934     1.0  0.39706  0.98904  0.19845  1.0000
  H   H1935     1.0  0.31957  0.77191  0.48621  1.0000
  C   C1142     1.0  0.63514  0.85235  0.02160  1.0000
  H   H1936     1.0  0.61318  0.95361  0.48294  1.0000
  H   H1937     1.0  0.42470  0.99059  0.23167  1.0000
  H   H1938     1.0  0.41117  0.98766  0.27370  1.0000
  H   H1939     1.0  0.51574  0.98501  0.40402  1.0000
  C   C1143     1.0  0.60880  0.96856  0.48997  1.0000
  C   C1144     1.0  0.58912  0.96863  0.50765  1.0000
  H   H1940     1.0  0.53816  0.99555  0.39830  1.0000
  C   C1145     1.0  0.48337  0.99567  0.36594  1.0000
  H   H1941     1.0  0.63704  0.91318  0.08176  1.0000
  H   H1942     1.0  0.62414  0.86578  0.14278  1.0000
  C   C1146     1.0  0.43976  0.99541  0.28436  1.0000
  H   H1943     1.0  0.53950  0.99670  0.09231  1.0000
  H   H1944     1.0  0.60824  0.91929  0.01464  1.0000
  H   H1945     1.0  0.62782  0.89454  0.05274  1.0000
  H   H1946     1.0  0.51005  0.99591  0.05440  1.0000
  C   C1147     1.0  0.51650  0.99692  0.13365  1.0000
  H   H1947     1.0  0.63610  0.87486  0.10233  1.0000
  C   C1148     1.0  0.57604  0.99689  0.30721  1.0000
  C   C1149     1.0  0.63646  0.84189  0.46526  1.0000
  H   H1948     1.0  0.52243  0.99620  0.22969  1.0000
  H   H1949     1.0  0.63289  0.92068  0.01116  1.0000
  Fe  Fe152     1.0  0.42950  0.93333  0.65914  1.0000
  S   S312      1.0  0.42763  0.90366  0.63455  1.0000
  S   S313      1.0  0.41416  0.95971  0.63551  1.0000
  Fe  Fe153     1.0  0.45762  0.92107  0.72123  1.0000
  S   S314      1.0  0.45866  0.89047  0.70166  1.0000
  S   S315      1.0  0.47421  0.93544  0.76859  1.0000
  Fe  Fe154     1.0  0.45882  0.90267  0.64144  1.0000
  S   S316      1.0  0.47514  0.88977  0.59201  1.0000
  Fe  Fe155     1.0  0.42727  0.89349  0.69658  1.0000
  S   S317      1.0  0.41223  0.86640  0.71350  1.0000
  S   S318      1.0  0.46069  0.93302  0.66145  1.0000
  S   S319      1.0  0.42631  0.92344  0.72086  1.0000
  Fe  Fe156     1.0  0.32909  0.81845  0.82126  1.0000
  S   S320      1.0  0.34071  0.84822  0.81290  1.0000
  S   S321      1.0  0.34363  0.79166  0.80022  1.0000
  Fe  Fe157     1.0  0.54407  0.90609  0.92221  1.0000
  S   S322      1.0  0.53472  0.93321  0.95161  1.0000
  S   S323      1.0  0.52414  0.88748  0.88880  1.0000
  Fe  Fe158     1.0  0.58482  0.91170  0.94243  1.0000
  S   S324      1.0  0.57879  0.93997  0.97181  1.0000
  S   S325      1.0  0.61476  0.90020  0.93875  1.0000
  Fe  Fe159     1.0  0.55512  0.92497  0.99879  1.0000
  H   H1950     1.0  0.36217  0.79216  0.67504  1.0000
  Fe  Fe160     1.0  0.55889  0.94620  0.92214  1.0000
  S   S326      1.0  0.55138  0.97571  0.89890  1.0000
  S   S327      1.0  0.56229  0.89625  0.97284  1.0000
  S   S328      1.0  0.56708  0.91951  0.88963  1.0000
  H   H1951     1.0  0.41737  0.88575  0.79098  1.0000
  C   C1150     1.0  0.58038  0.97913  0.79927  1.0000
  C   C1151     1.0  0.57414  0.97295  0.83544  1.0000
  C   C1152     1.0  0.56021  0.98348  0.85450  1.0000
  H   H1952     1.0  0.44317  0.99654  0.64483  1.0000
  H   H1953     1.0  0.59113  0.97089  0.78457  1.0000
  H   H1954     1.0  0.58008  0.96005  0.84856  1.0000
  H   H1955     1.0  0.45886  0.98021  0.66889  1.0000
  C   C1153     1.0  0.49714  0.89862  0.58160  1.0000
  C   C1154     1.0  0.50535  0.91264  0.60471  1.0000
  C   C1155     1.0  0.52311  0.91918  0.59573  1.0000
  C   C1156     1.0  0.53250  0.91199  0.56325  1.0000
  H   H1956     1.0  0.46794  0.98669  0.60179  1.0000
  H   H1957     1.0  0.47623  0.99450  0.87553  1.0000
  H   H1958     1.0  0.49809  0.91825  0.62962  1.0000
  H   H1959     1.0  0.52950  0.92985  0.61380  1.0000
  H   H1960     1.0  0.36030  0.82660  0.68468  1.0000
  H   H1961     1.0  0.32411  0.75121  0.51719  1.0000
  C   C1157     1.0  0.48811  0.92149  0.80081  1.0000
  C   C1158     1.0  0.49007  0.90163  0.79711  1.0000
  C   C1159     1.0  0.50113  0.89110  0.82421  1.0000
  C   C1160     1.0  0.51060  0.90052  0.85434  1.0000
  C   C1161     1.0  0.50905  0.92041  0.85701  1.0000
  C   C1162     1.0  0.49768  0.93080  0.83064  1.0000
  H   H1962     1.0  0.48322  0.89444  0.77329  1.0000
  H   H1963     1.0  0.50256  0.87570  0.82161  1.0000
  H   H1964     1.0  0.51661  0.92782  0.87944  1.0000
  H   H1965     1.0  0.49643  0.94613  0.83305  1.0000
  C   C1163     1.0  0.36060  0.85318  0.78513  1.0000
  C   C1164     1.0  0.37151  0.83854  0.76856  1.0000
  C   C1165     1.0  0.38696  0.84297  0.74606  1.0000
  C   C1166     1.0  0.39185  0.86206  0.74010  1.0000
  C   C1167     1.0  0.38095  0.87675  0.75656  1.0000
  C   C1168     1.0  0.36538  0.87230  0.77891  1.0000
  H   H1966     1.0  0.36806  0.82378  0.77313  1.0000
  H   H1967     1.0  0.39536  0.83150  0.73362  1.0000
  H   H1968     1.0  0.38452  0.89150  0.75217  1.0000
  H   H1969     1.0  0.35698  0.88374  0.79149  1.0000
  C   C1169     1.0  0.42397  0.88720  0.82035  1.0000
  C   C1170     1.0  0.43940  0.96190  0.57683  1.0000
  C   C1171     1.0  0.42325  0.96974  0.59321  1.0000
  H   H1970     1.0  0.48572  0.99134  0.63668  1.0000
  H   H1971     1.0  0.47314  0.86812  0.86738  1.0000
  H   H1972     1.0  0.44630  0.94955  0.59001  1.0000
  H   H1973     1.0  0.50906  0.97813  0.99231  1.0000
  H   H1974     1.0  0.44725  0.90496  0.80130  1.0000
  H   H1975     1.0  0.55864  0.94035  0.79363  1.0000
  N   N82       1.0  0.58037  0.98809  0.51620  1.0000
  H   H1976     1.0  0.33113  0.80699  0.60035  1.0000
  H   H1977     1.0  0.47850  0.98532  0.97934  1.0000
  H   H1978     1.0  0.51161  0.96860  0.87494  1.0000
  H   H1979     1.0  0.33508  0.74926  0.75384  1.0000
  H   H1980     1.0  0.59218  0.84812  0.63253  1.0000
  H   H1981     1.0  0.44640  0.99630  0.88686  1.0000
  H   H1982     1.0  0.30684  0.81123  0.59040  1.0000
  C   C1172     1.0  0.57352  0.86981  0.57816  1.0000
  H   H1983     1.0  0.43900  0.91013  0.85012  1.0000
  H   H1984     1.0  0.43194  0.99050  0.92601  1.0000
  H   H1985     1.0  0.55672  0.85006  0.61180  1.0000
  C   C1173     1.0  0.58363  0.83826  0.51551  1.0000
  S   S329      1.0  0.35118  0.75978  0.89561  1.0000
  C   C1174     1.0  0.52406  0.89832  0.53970  1.0000
  C   C1175     1.0  0.45977  0.84566  0.80393  1.0000
  H   H1986     1.0  0.59312  0.90225  0.57805  1.0000
  H   H1987     1.0  0.31271  0.86286  0.71116  1.0000
  H   H1988     1.0  0.41234  0.89007  0.84060  1.0000
  H   H1989     1.0  0.43280  0.87865  0.89085  1.0000
  C   C1176     1.0  0.50655  0.89148  0.54916  1.0000
  H   H1990     1.0  0.42574  0.91752  0.80866  1.0000
  C   C1177     1.0  0.44963  0.86541  0.80152  1.0000
  N   N83       1.0  0.53416  0.95813  0.73267  1.0000
  H   H1991     1.0  0.52841  0.98025  0.68931  1.0000
  C   C1178     1.0  0.55382  0.95358  0.72011  1.0000
  C   C1179     1.0  0.53295  0.95671  0.77629  1.0000
  C   C1180     1.0  0.52006  0.94568  0.71279  1.0000
  C   C1181     1.0  0.51152  0.98768  0.73793  1.0000
  H   H1992     1.0  0.60458  0.89319  0.53531  1.0000
  C   C1182     1.0  0.54331  0.93971  0.79651  1.0000
  C   C1183     1.0  0.52302  0.92380  0.71646  1.0000
  H   H1993     1.0  0.30738  0.76989  0.57106  1.0000
  H   H1994     1.0  0.49899  0.97961  0.72963  1.0000
  H   H1995     1.0  0.55864  0.93895  0.72847  1.0000
  H   H1996     1.0  0.62006  0.79286  0.96436  1.0000
  H   H1997     1.0  0.53872  0.96968  0.79025  1.0000
  H   H1998     1.0  0.51815  0.95641  0.78517  1.0000
  H   H1999     1.0  0.50592  0.94878  0.72427  1.0000
  H   H2000     1.0  0.51838  0.94919  0.68140  1.0000
  H   H2001     1.0  0.49025  0.92982  0.96775  1.0000
  C   C1184     1.0  0.60715  0.87386  0.58618  1.0000
  H   H2002     1.0  0.61575  0.82535  0.57238  1.0000
  H   H2003     1.0  0.61792  0.90208  0.57516  1.0000
  C   C1185     1.0  0.55741  0.95555  0.67636  1.0000
  C   C1186     1.0  0.48250  0.98007  0.88100  1.0000
  C   C1187     1.0  0.34824  0.79928  0.67841  1.0000
  H   H2004     1.0  0.53839  0.92565  0.78677  1.0000
  H   H2005     1.0  0.54071  0.94067  0.82814  1.0000
  H   H2006     1.0  0.51570  0.91832  0.74204  1.0000
  H   H2007     1.0  0.53774  0.91883  0.71789  1.0000
  H   H2008     1.0  0.51713  0.91680  0.69022  1.0000
  H   H2009     1.0  0.61262  0.81964  0.62216  1.0000
  C   C1188     1.0  0.34879  0.86396  0.67253  1.0000
  C   C1189     1.0  0.56339  0.98490  0.54028  1.0000
  H   H2010     1.0  0.45366  0.96862  0.95498  1.0000
  H   H2011     1.0  0.60214  0.98985  0.56045  1.0000
  H   H2012     1.0  0.47931  0.94363  0.90363  1.0000
  H   H2013     1.0  0.34475  0.79799  0.70947  1.0000
  H   H2014     1.0  0.44361  0.86677  0.77153  1.0000
  H   H2015     1.0  0.33976  0.85006  0.62058  1.0000
  H   H2016     1.0  0.62501  0.84047  0.61051  1.0000
  C   C1190     1.0  0.62249  0.88131  0.96959  1.0000
  H   H2017     1.0  0.58331  0.83255  0.59702  1.0000
  H   H2018     1.0  0.40677  0.85844  0.88335  1.0000
  H   H2019     1.0  0.54362  0.86646  0.58186  1.0000
  H   H2020     1.0  0.61945  0.97397  0.51061  1.0000
  H   H2021     1.0  0.53112  0.89273  0.51455  1.0000
  H   H2022     1.0  0.31131  0.80965  0.66072  1.0000
  C   C1191     1.0  0.60536  0.89389  0.56732  1.0000
  H   H2023     1.0  0.30425  0.75403  0.96888  1.0000
  H   H2024     1.0  0.45934  0.96408  0.53142  1.0000
  H   H2025     1.0  0.43528  0.92594  0.51418  1.0000
  C   C1192     1.0  0.61306  0.83172  0.60131  1.0000
  C   C1193     1.0  0.55646  0.85717  0.58300  1.0000
  C   C1194     1.0  0.42140  0.85275  0.82827  1.0000
  C   C1195     1.0  0.43498  0.90576  0.82028  1.0000
  H   H2026     1.0  0.45113  0.83450  0.79019  1.0000
  H   H2027     1.0  0.35495  0.82060  0.63596  1.0000
  H   H2028     1.0  0.54808  0.94658  0.65861  1.0000
  C   C1196     1.0  0.57264  0.99574  0.78181  1.0000
  H   H2029     1.0  0.41690  0.85045  0.79758  1.0000
  H   H2030     1.0  0.32225  0.83050  0.58547  1.0000
  N   N84       1.0  0.43474  0.86904  0.83114  1.0000
  H   H2031     1.0  0.54113  0.98812  0.73073  1.0000
  C   C1197     1.0  0.54776  0.97357  0.52033  1.0000
  H   H2032     1.0  0.60731  0.87621  0.61821  1.0000
  C   C1198     1.0  0.33454  0.85152  0.65065  1.0000
  C   C1199     1.0  0.50721  0.98423  0.96272  1.0000
  S   S330      1.0  0.30952  0.77565  0.71340  1.0000
  H   H2033     1.0  0.61067  0.84931  0.52918  1.0000
  H   H2034     1.0  0.39352  0.86542  0.83994  1.0000
  C   C1200     1.0  0.40362  0.85476  0.85267  1.0000
  N   N85       1.0  0.33137  0.83213  0.66800  1.0000
  C   C1201     1.0  0.42164  0.99397  0.54213  1.0000
  H   H2035     1.0  0.47595  0.97052  0.85905  1.0000
  C   C1202     1.0  0.45751  0.97306  0.92526  1.0000
  H   H2036     1.0  0.59501  0.87194  0.98205  1.0000
  H   H2037     1.0  0.49838  0.98679  0.57362  1.0000
  H   H2038     1.0  0.40200  0.99210  0.58867  1.0000
  H   H2039     1.0  0.46501  0.88004  0.90963  1.0000
  H   H2040     1.0  0.47292  0.84608  0.78747  1.0000
  H   H2041     1.0  0.46335  0.84140  0.83419  1.0000
  H   H2042     1.0  0.39641  0.84090  0.85243  1.0000
  C   C1203     1.0  0.44672  0.99220  0.91794  1.0000
  H   H2043     1.0  0.50397  0.98550  0.83935  1.0000
  H   H2044     1.0  0.50026  0.88059  0.53127  1.0000
  H   H2045     1.0  0.32198  0.81966  0.72141  1.0000
  C   C1204     1.0  0.32073  0.75424  0.69910  1.0000
  H   H2046     1.0  0.44340  0.90801  0.54746  1.0000
  S   S331      1.0  0.32076  0.80577  0.87863  1.0000
  H   H2047     1.0  0.32121  0.86000  0.64767  1.0000
  C   C1205     1.0  0.50316  0.98194  0.87061  1.0000
  C   C1206     1.0  0.59428  0.84312  0.60214  1.0000
  H   H2048     1.0  0.44318  0.85561  0.88599  1.0000
  Fe  Fe161     1.0  0.33328  0.77835  0.85514  1.0000
  H   H2049     1.0  0.55497  0.84641  0.55979  1.0000
  H   H2050     1.0  0.34492  0.86689  0.70298  1.0000
  S   S332      1.0  0.55486  0.91996  0.55263  1.0000
  H   H2051     1.0  0.56371  0.96304  0.73550  1.0000
  C   C1207     1.0  0.41450  0.98594  0.57605  1.0000
  H   H2052     1.0  0.46045  0.87631  0.80321  1.0000
  H   H2053     1.0  0.50958  0.99394  0.88662  1.0000
  C   C1208     1.0  0.32594  0.83379  0.70993  1.0000
  H   H2054     1.0  0.51566  0.97549  0.94264  1.0000
  H   H2055     1.0  0.56750  0.97725  0.56765  1.0000
  H   H2056     1.0  0.33293  0.77400  0.52987  1.0000
  C   C1209     1.0  0.32077  0.76677  0.51667  1.0000
  C   C1210     1.0  0.59588  0.85390  0.53315  1.0000
  C   C1211     1.0  0.34927  0.82036  0.66579  1.0000
  C   C1212     1.0  0.30957  0.84790  0.71858  1.0000
  H   H2057     1.0  0.45141  0.96233  0.90507  1.0000
  H   H2058     1.0  0.59027  0.95974  0.53451  1.0000
  C   C1213     1.0  0.44243  0.87004  0.87227  1.0000
  H   H2059     1.0  0.48707  0.95257  0.99061  1.0000
  H   H2060     1.0  0.48649  0.93063  0.52738  1.0000
  C   C1214     1.0  0.46213  0.87814  0.87808  1.0000
  H   H2061     1.0  0.62135  0.86816  0.57916  1.0000
  S   S333      1.0  0.30671  0.76851  0.82750  1.0000
  H   H2062     1.0  0.33799  0.83803  0.72825  1.0000
  N   N86       1.0  0.47846  0.97334  0.92149  1.0000
  H   H2063     1.0  0.57050  0.87926  0.55265  1.0000
  C   C1215     1.0  0.31568  0.82288  0.64586  1.0000
  H   H2064     1.0  0.46381  0.89222  0.86428  1.0000
  H   H2065     1.0  0.42836  0.83903  0.83759  1.0000
  H   H2066     1.0  0.59403  0.86633  0.51330  1.0000
  H   H2067     1.0  0.57339  0.87947  0.60396  1.0000
  C   C1216     1.0  0.31953  0.81770  0.60317  1.0000
  C   C1217     1.0  0.44663  0.97000  0.54331  1.0000
  H   H2068     1.0  0.61595  0.81410  0.93509  1.0000
  H   H2069     1.0  0.34937  0.87806  0.65786  1.0000
  H   H2070     1.0  0.46738  0.94034  0.96955  1.0000
  N   N87       1.0  0.59240  0.85982  0.57451  1.0000
  C   C1218     1.0  0.48566  0.95298  0.92623  1.0000
  H   H2071     1.0  0.57195  0.95057  0.67063  1.0000
  H   H2072     1.0  0.51241  0.98924  0.76995  1.0000
  C   C1219     1.0  0.52963  0.97867  0.72139  1.0000
  H   H2073     1.0  0.50075  0.95153  0.92111  1.0000
  H   H2074     1.0  0.55234  0.95871  0.51329  1.0000
  H   H2075     1.0  0.33827  0.79115  0.66038  1.0000
  H   H2076     1.0  0.36311  0.85755  0.67197  1.0000
  H   H2077     1.0  0.61748  0.81566  0.98706  1.0000
  C   C1220     1.0  0.62326  0.80822  0.96126  1.0000
  C   C1221     1.0  0.45762  0.99494  0.65681  1.0000
  Fe  Fe162     1.0  0.31559  0.78445  0.77515  1.0000
  C   C1222     1.0  0.43763  0.98582  0.52546  1.0000
  C   C1223     1.0  0.48226  0.94367  0.96598  1.0000
  C   C1224     1.0  0.44801  0.91800  0.52475  1.0000
  H   H2078     1.0  0.55629  0.97069  0.66676  1.0000
  H   H2079     1.0  0.53600  0.97244  0.54063  1.0000
  H   H2080     1.0  0.62992  0.84189  0.91730  1.0000
  H   H2081     1.0  0.30859  0.75533  0.64156  1.0000
  H   H2082     1.0  0.58018  0.82690  0.53614  1.0000
  C   C1225     1.0  0.60975  0.86980  0.98788  1.0000
  H   H2083     1.0  0.30704  0.84785  0.75028  1.0000
  H   H2084     1.0  0.63329  0.78526  0.90481  1.0000
  H   H2085     1.0  0.45754  0.92795  0.53916  1.0000
  C   C1226     1.0  0.48621  0.98672  0.95178  1.0000
  H   H2086     1.0  0.63493  0.81414  0.87469  1.0000
  C   C1227     1.0  0.31730  0.74712  0.66173  1.0000
  H   H2087     1.0  0.87895  0.08268  0.15824  1.0000
  C   C1228     1.0  0.93915  0.00259  0.09023  1.0000
  H   H2088     1.0  0.67325  0.15729  0.19808  1.0000
  Fe  Fe163     1.0  0.68777  0.18383  0.11957  1.0000
  S   S334      1.0  0.65859  0.18890  0.09724  1.0000
  S   S335      1.0  0.69742  0.19106  0.18047  1.0000
  Fe  Fe164     1.0  0.66048  0.15868  0.07519  1.0000
  H   H2089     1.0  0.79830  0.20020  0.41013  1.0000
  H   H2090     1.0  0.76428  0.12374  0.19931  1.0000
  C   C1229     1.0  0.79789  0.22316  0.14594  1.0000
  S   S336      1.0  0.68903  0.15299  0.10132  1.0000
  H   H2091     1.0  0.70095  0.20941  0.25490  1.0000
  H   H2092     1.0  0.96734  0.06512  0.50364  1.0000
  H   H2093     1.0  0.73317  0.11926  0.08695  1.0000
  Fe  Fe165     1.0  0.93429  0.07539  0.19313  1.0000
  S   S337      1.0  0.93070  0.04653  0.21987  1.0000
  S   S338      1.0  0.91244  0.09970  0.18766  1.0000
  H   H2094     1.0  0.67628  0.09787  0.44260  1.0000
  Fe  Fe166     1.0  0.94417  0.03468  0.16616  1.0000
  C   C1230     1.0  0.95164  0.01381  0.07032  1.0000
  H   H2095     1.0  0.74666  0.20130  0.38314  1.0000
  S   S339      1.0  0.94573  0.06328  0.13730  1.0000
  Fe  Fe167     1.0  0.80375  0.17992  0.25016  1.0000
  S   S340      1.0  0.83329  0.17376  0.27078  1.0000
  S   S341      1.0  0.79262  0.19271  0.19384  1.0000
  Fe  Fe168     1.0  0.78642  0.16345  0.32168  1.0000
  S   S342      1.0  0.81418  0.15542  0.34891  1.0000
  S   S343      1.0  0.75679  0.16087  0.34208  1.0000
  Fe  Fe169     1.0  0.82309  0.18418  0.32875  1.0000
  S   S344      1.0  0.84148  0.19964  0.37163  1.0000
  Fe  Fe170     1.0  0.82297  0.14531  0.28965  1.0000
  S   S345      1.0  0.83985  0.11713  0.28722  1.0000
  S   S346      1.0  0.79460  0.19315  0.30627  1.0000
  S   S347      1.0  0.79412  0.15054  0.26426  1.0000
  C   C1231     1.0  0.89298  0.10479  0.21735  1.0000
  C   C1232     1.0  0.88822  0.09283  0.24790  1.0000
  C   C1233     1.0  0.87191  0.09682  0.26901  1.0000
  C   C1234     1.0  0.86042  0.11296  0.26034  1.0000
  C   C1235     1.0  0.86537  0.12510  0.23031  1.0000
  C   C1236     1.0  0.88149  0.12094  0.20877  1.0000
  H   H2096     1.0  0.89703  0.08047  0.25511  1.0000
  H   H2097     1.0  0.86821  0.08736  0.29228  1.0000
  H   H2098     1.0  0.85661  0.13751  0.22317  1.0000
  H   H2099     1.0  0.88504  0.13025  0.18513  1.0000
  H   H2100     1.0  0.73052  0.18029  0.14348  1.0000
  C   C1237     1.0  0.87578  0.15069  0.38510  1.0000
  H   H2101     1.0  0.70650  0.10814  0.42235  1.0000
  C   C1238     1.0  0.74411  0.15556  0.47133  1.0000
  C   C1239     1.0  0.76237  0.15237  0.45844  1.0000
  C   C1240     1.0  0.76646  0.15401  0.41887  1.0000
  C   C1241     1.0  0.75224  0.15870  0.39194  1.0000
  C   C1242     1.0  0.73396  0.16184  0.40482  1.0000
  C   C1243     1.0  0.72992  0.16043  0.44445  1.0000
  C   C1244     1.0  0.89573  0.18673  0.37241  1.0000
  H   H2102     1.0  0.78058  0.15154  0.40920  1.0000
  H   H2103     1.0  0.72292  0.16556  0.38411  1.0000
  H   H2104     1.0  0.71583  0.16309  0.45413  1.0000
  C   C1245     1.0  0.70284  0.11222  0.45249  1.0000
  C   C1246     1.0  0.87825  0.04660  0.19034  1.0000
  H   H2105     1.0  0.90337  0.03831  0.13295  1.0000
  H   H2106     1.0  0.68022  0.08268  0.50191  1.0000
  C   C1247     1.0  0.80806  0.23834  0.13135  1.0000
  H   H2107     1.0  0.65063  0.14531  0.24423  1.0000
  H   H2108     1.0  0.65766  0.11491  0.12461  1.0000
  S   S348      1.0  0.72526  0.14966  0.01822  1.0000
  H   H2109     1.0  0.77590  0.19163  0.03890  1.0000
  H   H2110     1.0  0.88699  0.05310  0.06996  1.0000
  H   H2111     1.0  0.84745  0.23246  0.18706  1.0000
  N   N88       1.0  0.88725  0.15293  0.34909  1.0000
  C   C1248     1.0  0.83161  0.22064  0.39194  1.0000
  C   C1249     1.0  0.81912  0.23230  0.37034  1.0000
  H   H2112     1.0  0.77172  0.15886  0.19053  1.0000
  H   H2113     1.0  0.77144  0.18300  0.11816  1.0000
  H   H2114     1.0  0.81560  0.22856  0.34068  1.0000
  H   H2115     1.0  0.74991  0.19565  0.45079  1.0000
  H   H2116     1.0  0.74260  0.11467  0.13452  1.0000
  H   H2117     1.0  0.73481  0.13336  0.18983  1.0000
  C   C1250     1.0  0.80544  0.21165  0.17601  1.0000
  C   C1251     1.0  0.82316  0.21524  0.19122  1.0000
  H   H2118     1.0  0.87712  0.16535  0.25451  1.0000
  H   H2119     1.0  0.75024  0.22370  0.36152  1.0000
  C   C1252     1.0  0.89573  0.13354  0.33939  1.0000
  H   H2120     1.0  0.82907  0.20642  0.21434  1.0000
  H   H2121     1.0  0.90514  0.06177  0.15003  1.0000
  H   H2122     1.0  0.95332  0.08904  0.02921  1.0000
  H   H2123     1.0  0.85177  0.13680  0.35703  1.0000
  H   H2124     1.0  0.73805  0.11681  0.48370  1.0000
  H   H2125     1.0  0.86659  0.07695  0.11512  1.0000
  H   H2126     1.0  0.83960  0.06570  0.15838  1.0000
  H   H2127     1.0  0.76128  0.22144  0.18907  1.0000
  S   S349      1.0  0.96796  0.03929  0.30345  1.0000
  H   H2128     1.0  0.83090  0.18120  0.02444  1.0000
  H   H2129     1.0  0.88719  0.05678  0.20654  1.0000
  C   C1253     1.0  0.68793  0.21272  0.19828  1.0000
  C   C1254     1.0  0.67626  0.22432  0.17474  1.0000
  H   H2130     1.0  0.78420  0.22038  0.13398  1.0000
  H   H2131     1.0  0.73575  0.20859  0.22616  1.0000
  Fe  Fe171     1.0  0.67182  0.19711  0.04148  1.0000
  H   H2132     1.0  0.67313  0.22015  0.14519  1.0000
  C   C1255     1.0  0.69119  0.07170  0.49605  1.0000
  C   C1256     1.0  0.83352  0.23002  0.17584  1.0000
  H   H2133     1.0  0.71939  0.23627  0.38834  1.0000
  H   H2134     1.0  0.71957  0.15244  0.17492  1.0000
  H   H2135     1.0  0.70757  0.07551  0.44460  1.0000
  H   H2136     1.0  0.88064  0.18596  0.28327  1.0000
  H   H2137     1.0  0.92127  0.14167  0.30871  1.0000
  S   S350      1.0  0.96275  0.07917  0.22012  1.0000
  H   H2138     1.0  0.77906  0.22734  0.38924  1.0000
  H   H2139     1.0  0.79739  0.21767  0.05511  1.0000
  C   C1257     1.0  0.73694  0.15845  0.22481  1.0000
  C   C1258     1.0  0.75612  0.18460  0.11399  1.0000
  C   C1259     1.0  0.76757  0.15011  0.16508  1.0000
  H   H2140     1.0  0.86627  0.14829  0.30441  1.0000
  C   C1260     1.0  0.75035  0.24394  0.43339  1.0000
  H   H2141     1.0  0.73338  0.17396  0.22401  1.0000
  H   H2142     1.0  0.77312  0.22865  0.23125  1.0000
  C   C1261     1.0  0.90907  0.13249  0.30493  1.0000
  H   H2143     1.0  0.96274  0.01175  0.49321  1.0000
  H   H2144     1.0  0.73385  0.23697  0.16392  1.0000
  C   C1262     1.0  0.82831  0.24233  0.44706  1.0000
  C   C1263     1.0  0.74245  0.14520  0.11542  1.0000
  H   H2145     1.0  0.77137  0.11980  0.14931  1.0000
  H   H2146     1.0  0.88516  0.19325  0.35218  1.0000
  Fe  Fe172     1.0  0.70014  0.16442  0.04538  1.0000
  N   N89       1.0  0.71328  0.09973  0.48177  1.0000
  H   H2147     1.0  0.83196  0.20632  0.09582  1.0000
  C   C1264     1.0  0.77258  0.12915  0.17510  1.0000
  H   H2148     1.0  0.68772  0.24009  0.28044  1.0000
  C   C1265     1.0  0.89737  0.05968  0.08964  1.0000
  H   H2149     1.0  0.86406  0.17065  0.32815  1.0000
  H   H2150     1.0  0.75461  0.14442  0.09581  1.0000
  S   S351      1.0  0.65947  0.20364  0.49161  1.0000
  Fe  Fe173     1.0  0.96009  0.04931  0.24278  1.0000
  H   H2151     1.0  0.73561  0.24601  0.44202  1.0000
  C   C1266     1.0  0.88575  0.02622  0.19953  1.0000
  C   C1267     1.0  0.75897  0.22809  0.21805  1.0000
  C   C1268     1.0  0.83638  0.22583  0.43013  1.0000
  H   H2152     1.0  0.67565  0.12282  0.43227  1.0000
  C   C1269     1.0  0.87454  0.16017  0.31657  1.0000
  H   H2153     1.0  0.84609  0.21689  0.44692  1.0000
  C   C1270     1.0  0.68140  0.11184  0.45287  1.0000
  H   H2154     1.0  0.82540  0.23403  0.05249  1.0000
  H   H2155     1.0  0.86439  0.04751  0.20417  1.0000
  H   H2156     1.0  0.88995  0.18647  0.40205  1.0000
  H   H2157     1.0  0.85800  0.04679  0.09976  1.0000
  H   H2158     1.0  0.78743  0.12815  0.18487  1.0000
  H   H2159     1.0  0.91206  0.16871  0.33506  1.0000
  C   C1271     1.0  0.80302  0.20484  0.03957  1.0000
  C   C1272     1.0  0.90248  0.16659  0.35931  1.0000
  H   H2160     1.0  0.64994  0.08835  0.16904  1.0000
  N   N90       1.0  0.75472  0.22325  0.42406  1.0000
  C   C1273     1.0  0.96625  0.08088  0.03754  1.0000
  H   H2161     1.0  0.66849  0.13304  0.18718  1.0000
  C   C1274     1.0  0.67260  0.22199  0.47196  1.0000
  H   H2162     1.0  0.89882  0.16774  0.27914  1.0000
  C   C1275     1.0  0.72318  0.22082  0.38659  1.0000
  H   H2163     1.0  0.89571  0.07551  0.08836  1.0000
  C   C1276     1.0  0.74546  0.17605  0.14815  1.0000
  H   H2164     1.0  0.74397  0.21952  0.27072  1.0000
  C   C1277     1.0  0.77538  0.22087  0.41744  1.0000
  H   H2165     1.0  0.85182  0.03561  0.14374  1.0000
  C   C1278     1.0  0.84218  0.21055  0.07394  1.0000
  H   H2166     1.0  0.75736  0.20084  0.24804  1.0000
  N   N91       1.0  0.87681  0.05217  0.14807  1.0000
  C   C1279     1.0  0.86888  0.07243  0.14585  1.0000
  C   C1280     1.0  0.89616  0.05248  0.13179  1.0000
  H   H2167     1.0  0.65385  0.18029  0.24856  1.0000
  C   C1281     1.0  0.86398  0.03919  0.12578  1.0000
  C   C1282     1.0  0.68971  0.22681  0.48880  1.0000
  H   H2168     1.0  0.85162  0.13701  0.40873  1.0000
  H   H2169     1.0  0.80751  0.19462  0.06289  1.0000
  C   C1283     1.0  0.85017  0.07635  0.16619  1.0000
  C   C1284     1.0  0.64521  0.14819  0.21418  1.0000
  H   H2170     1.0  0.65207  0.22907  0.42739  1.0000
  C   C1285     1.0  0.73419  0.12504  0.11698  1.0000
  H   H2171     1.0  0.88468  0.12325  0.33194  1.0000
  H   H2172     1.0  0.65592  0.18435  0.19785  1.0000
  H   H2173     1.0  0.71747  0.21564  0.35841  1.0000
  H   H2174     1.0  0.77713  0.15407  0.14162  1.0000
  H   H2175     1.0  0.71599  0.21295  0.40955  1.0000
  H   H2176     1.0  0.72215  0.23604  0.20870  1.0000
  H   H2177     1.0  0.67554  0.11544  0.48152  1.0000
  C   C1286     1.0  0.63886  0.09725  0.15626  1.0000
  H   H2178     1.0  0.90348  0.12747  0.36513  1.0000
  C   C1287     1.0  0.78319  0.20010  0.41645  1.0000
  H   H2179     1.0  0.84449  0.09067  0.15720  1.0000
  H   H2180     1.0  0.85213  0.07705  0.19822  1.0000
  S   S352      1.0  0.70110  0.19485  0.06597  1.0000
  N   N92       1.0  0.74755  0.15465  0.15357  1.0000
  H   H2181     1.0  0.96670  0.01730  0.01735  1.0000
  C   C1288     1.0  0.88367  0.17030  0.28209  1.0000
  H   H2182     1.0  0.71210  0.24658  0.48923  1.0000
  H   H2183     1.0  0.75116  0.15593  0.23719  1.0000
  H   H2184     1.0  0.85194  0.22031  0.08891  1.0000
  H   H2185     1.0  0.85054  0.19784  0.06484  1.0000
  C   C1289     1.0  0.74450  0.21696  0.38776  1.0000
  C   C1290     1.0  0.68468  0.23583  0.25087  1.0000
  C   C1291     1.0  0.74862  0.21119  0.45745  1.0000
  C   C1292     1.0  0.66852  0.24143  0.18946  1.0000
  H   H2186     1.0  0.91162  0.16051  0.38304  1.0000
  H   H2187     1.0  0.71980  0.12571  0.12821  1.0000
  H   H2188     1.0  0.77340  0.14860  0.47914  1.0000
  H   H2189     1.0  0.96931  0.04499  0.47201  1.0000
  H   H2190     1.0  0.86211  0.00885  0.11191  1.0000
  H   H2191     1.0  0.73718  0.11037  0.41460  1.0000
  H   H2192     1.0  0.90777  0.19635  0.37361  1.0000
  H   H2193     1.0  0.68461  0.06084  0.47708  1.0000
  C   C1293     1.0  0.73422  0.14902  0.18464  1.0000
  H   H2194     1.0  0.74236  0.09244  0.49531  1.0000
  C   C1294     1.0  0.64557  0.18287  0.22123  1.0000
  H   H2195     1.0  0.86815  0.16433  0.39223  1.0000
  H   H2196     1.0  0.88494  0.14730  0.41085  1.0000
  H   H2197     1.0  0.65816  0.15139  0.15707  1.0000
  S   S353      1.0  0.93204  0.00857  0.13757  1.0000
  H   H2198     1.0  0.73158  0.15398  0.09952  1.0000
  H   H2199     1.0  0.91144  0.05594  0.07845  1.0000
  H   H2200     1.0  0.75184  0.17851  0.08554  1.0000
  H   H2201     1.0  0.72716  0.15209  0.24546  1.0000
  H   H2202     1.0  0.75282  0.20020  0.11256  1.0000
  H   H2203     1.0  0.90161  0.13558  0.27710  1.0000
  H   H2204     1.0  0.75026  0.18381  0.17455  1.0000
  C   C1295     1.0  0.66219  0.14774  0.18741  1.0000
  C   C1296     1.0  0.69205  0.21843  0.23646  1.0000
  C   C1297     1.0  0.83266  0.22136  0.03949  1.0000
  C   C1298     1.0  0.74820  0.21366  0.24225  1.0000
  H   H2205     1.0  0.91470  0.11756  0.30237  1.0000
  C   C1299     1.0  0.70885  0.07891  0.47611  1.0000
  C   C1300     1.0  0.64328  0.11232  0.13121  1.0000
  C   C1301     1.0  0.78658  0.19561  0.01773  1.0000
  C   C1302     1.0  0.73154  0.24491  0.19159  1.0000
  C   C1303     1.0  0.66534  0.23269  0.44045  1.0000
  H   H2206     1.0  0.86706  0.12064  0.38473  1.0000
  C   C1304     1.0  0.82601  0.24162  0.14602  1.0000
  C   C1305     1.0  0.86080  0.13533  0.38327  1.0000
  H   H2207     1.0  0.89966  0.02307  0.18735  1.0000
  H   H2208     1.0  0.77648  0.19169  0.39311  1.0000
  H   H2209     1.0  0.95708  0.02648  0.08389  1.0000
  H   H2210     1.0  0.78191  0.19280  0.44478  1.0000
  C   C1306     1.0  0.87263  0.02015  0.11026  1.0000
  C   C1307     1.0  0.69924  0.24253  0.47500  1.0000
  H   H2211     1.0  0.84374  0.22744  0.02140  1.0000
  C   C1308     1.0  0.95704  0.00862  0.03262  1.0000
  H   H2212     1.0  0.75653  0.09740  0.43539  1.0000
  H   H2213     1.0  0.83178  0.24606  0.47677  1.0000
  C   C1309     1.0  0.73391  0.10210  0.47576  1.0000
  C   C1310     1.0  0.74104  0.09829  0.43440  1.0000
  N   N93       1.0  0.81933  0.20993  0.01503  1.0000
  H   H2214     1.0  0.73345  0.21348  0.46245  1.0000
  S   S354      1.0  0.67164  0.16733  0.01718  1.0000
  H   H2215     1.0  0.78369  0.22882  0.43941  1.0000
  H   H2216     1.0  0.87574  0.01532  0.18992  1.0000
  H   H2217     1.0  0.70691  0.12740  0.45604  1.0000
  H   H2218     1.0  0.77282  0.21939  0.49492  1.0000
  H   H2219     1.0  0.88739  0.02469  0.23152  1.0000
  H   H2220     1.0  0.73608  0.08465  0.42215  1.0000
  H   H2221     1.0  0.72061  0.06964  0.48751  1.0000
  H   H2222     1.0  0.75632  0.24624  0.30760  1.0000
  H   H2223     1.0  0.87581  0.02138  0.07895  1.0000
  H   H2224     1.0  0.88516  0.01455  0.12610  1.0000
  H   H2225     1.0  0.96338  0.06577  0.04422  1.0000
  C   C1311     1.0  0.75821  0.21498  0.49715  1.0000
  H   H2226     1.0  0.64684  0.21311  0.23427  1.0000
  Fe  Fe174     1.0  0.71038  0.15919  0.54249  1.0000
  S   S355      1.0  0.73946  0.15272  0.52096  1.0000
  C   C1312     1.0  0.87831  0.06620  0.59213  1.0000
  Fe  Fe175     1.0  0.68984  0.17411  0.61312  1.0000
  S   S356      1.0  0.66145  0.17098  0.58527  1.0000
  S   S357      1.0  0.69526  0.18542  0.67343  1.0000
  Fe  Fe176     1.0  0.67284  0.14259  0.56434  1.0000
  H   H2227     1.0  0.69423  0.10617  0.52905  1.0000
  H   H2228     1.0  0.95463  0.00301  0.72961  1.0000
  H   H2229     1.0  0.69778  0.21567  0.80728  1.0000
  S   S358      1.0  0.70035  0.14479  0.59616  1.0000
  S   S359      1.0  0.70226  0.18869  0.56233  1.0000
  Fe  Fe177     1.0  0.95360  0.07563  0.65374  1.0000
  C   C1313     1.0  0.72022  0.09690  0.55541  1.0000
  Fe  Fe178     1.0  0.91591  0.07946  0.69325  1.0000
  S   S360      1.0  0.92137  0.05258  0.72758  1.0000
  S   S361      1.0  0.88785  0.09564  0.69137  1.0000
  Fe  Fe179     1.0  0.95021  0.06362  0.73712  1.0000
  Fe  Fe180     1.0  0.93284  0.03976  0.67290  1.0000
  C   C1314     1.0  0.85086  0.03789  0.62704  1.0000
  S   S362      1.0  0.94399  0.09167  0.70684  1.0000
  S   S363      1.0  0.92509  0.06563  0.63731  1.0000
  Fe  Fe181     1.0  0.81333  0.19169  0.78403  1.0000
  S   S364      1.0  0.84320  0.18615  0.80196  1.0000
  S   S365      1.0  0.80376  0.19675  0.72220  1.0000
  Fe  Fe182     1.0  0.79865  0.18648  0.86580  1.0000
  S   S366      1.0  0.82734  0.17956  0.88993  1.0000
  S   S367      1.0  0.77351  0.19637  0.90057  1.0000
  Fe  Fe183     1.0  0.83647  0.20409  0.85404  1.0000
  S   S368      1.0  0.85621  0.22431  0.88325  1.0000
  Fe  Fe184     1.0  0.83197  0.16189  0.83581  1.0000
  S   S369      1.0  0.84989  0.13452  0.83898  1.0000
  S   S370      1.0  0.80769  0.21213  0.83260  1.0000
  S   S371      1.0  0.80211  0.16634  0.81496  1.0000
  C   C1315     1.0  0.87754  0.10620  0.73292  1.0000
  C   C1316     1.0  0.88635  0.10547  0.76947  1.0000
  C   C1317     1.0  0.87778  0.11429  0.80165  1.0000
  C   C1318     1.0  0.86058  0.12432  0.79746  1.0000
  C   C1319     1.0  0.85183  0.12514  0.76083  1.0000
  C   C1320     1.0  0.86015  0.11590  0.72887  1.0000
  H   H2230     1.0  0.89970  0.09803  0.77305  1.0000
  H   H2231     1.0  0.88456  0.11342  0.82994  1.0000
  H   H2232     1.0  0.83839  0.13244  0.75741  1.0000
  H   H2233     1.0  0.85310  0.11631  0.70086  1.0000
  H   H2234     1.0  0.75074  0.21914  0.73736  1.0000
  C   C1321     1.0  0.73467  0.18199  0.97803  1.0000
  H   H2235     1.0  0.92793  0.02979  0.58573  1.0000
  C   C1322     1.0  0.75393  0.15358  0.96733  1.0000
  H   H2236     1.0  0.76368  0.20010  0.68309  1.0000
  C   C1323     1.0  0.76482  0.16365  0.94110  1.0000
  C   C1324     1.0  0.76061  0.18292  0.93334  1.0000
  C   C1325     1.0  0.74558  0.19205  0.95202  1.0000
  H   H2237     1.0  0.85377  0.06818  0.64912  1.0000
  C   C1326     1.0  0.84438  0.24463  0.90121  1.0000
  H   H2238     1.0  0.77637  0.15648  0.92680  1.0000
  H   H2239     1.0  0.71954  0.24462  0.61273  1.0000
  H   H2240     1.0  0.82508  0.22600  0.96331  1.0000
  H   H2241     1.0  0.87977  0.05551  0.66982  1.0000
  H   H2242     1.0  0.71722  0.19173  0.77485  1.0000
  H   H2243     1.0  0.70237  0.17310  0.78469  1.0000
  C   C1327     1.0  0.70914  0.10694  0.52206  1.0000
  H   H2244     1.0  0.74230  0.20698  0.94623  1.0000
  H   H2245     1.0  0.83881  0.05330  0.67689  1.0000
  H   H2246     1.0  0.85996  0.02889  0.70291  1.0000
  H   H2247     1.0  0.93427  0.00728  0.75626  1.0000
  C   C1328     1.0  0.83902  0.23860  0.69441  1.0000
  H   H2248     1.0  0.70582  0.19010  0.91841  1.0000
  S   S372      1.0  0.96203  0.04863  0.68523  1.0000
  H   H2249     1.0  0.67635  0.19067  0.78291  1.0000
  C   C1329     1.0  0.71434  0.18088  0.79738  1.0000
  C   C1330     1.0  0.69167  0.24418  0.90559  1.0000
  C   C1331     1.0  0.66254  0.24091  0.93898  1.0000
  H   H2250     1.0  0.71530  0.16463  0.86976  1.0000
  H   H2251     1.0  0.66463  0.20892  0.80982  1.0000
  C   C1332     1.0  0.83484  0.24160  0.65492  1.0000
  N   N94       1.0  0.70914  0.19003  0.83544  1.0000
  C   C1333     1.0  0.81270  0.21609  0.65680  1.0000
  C   C1334     1.0  0.81636  0.21358  0.69658  1.0000
  C   C1335     1.0  0.74850  0.20348  0.68442  1.0000
  H   H2252     1.0  0.71801  0.22730  0.65000  1.0000
  C   C1336     1.0  0.94641  0.01757  0.84909  1.0000
  H   H2253     1.0  0.80266  0.20726  0.64205  1.0000
  H   H2254     1.0  0.83255  0.22284  0.74608  1.0000
  C   C1337     1.0  0.84743  0.19401  0.98019  1.0000
  H   H2255     1.0  0.93063  0.04458  0.84789  1.0000
  H   H2256     1.0  0.84499  0.03798  0.59687  1.0000
  C   C1338     1.0  0.67096  0.23736  0.65138  1.0000
  C   C1339     1.0  0.82963  0.22474  0.71538  1.0000
  H   H2257     1.0  0.96506  0.04807  0.91271  1.0000
  C   C1340     1.0  0.92903  0.00133  0.60950  1.0000
  C   C1341     1.0  0.68258  0.23756  0.71778  1.0000
  C   C1342     1.0  0.92964  0.03010  0.83481  1.0000
  C   C1343     1.0  0.68900  0.21856  0.71361  1.0000
  C   C1344     1.0  0.68646  0.20893  0.67838  1.0000
  C   C1345     1.0  0.67739  0.21833  0.64722  1.0000
  C   C1346     1.0  0.67499  0.19682  0.81243  1.0000
  H   H2258     1.0  0.72729  0.22377  0.81141  1.0000
  H   H2259     1.0  0.69596  0.21130  0.73759  1.0000
  H   H2260     1.0  0.67531  0.21094  0.61996  1.0000
  C   C1347     1.0  0.88037  0.04423  0.59308  1.0000
  C   C1348     1.0  0.67162  0.22971  0.96775  1.0000
  C   C1349     1.0  0.92857  0.01467  0.57929  1.0000
  C   C1350     1.0  0.70329  0.17457  0.86269  1.0000
  H   H2261     1.0  0.91626  0.02427  0.84439  1.0000
  H   H2262     1.0  0.95161  0.02524  0.75506  1.0000
  C   C1351     1.0  0.77227  0.23907  0.69117  1.0000
  H   H2263     1.0  0.88047  0.03734  0.72681  1.0000
  H   H2264     1.0  0.77816  0.23444  0.71991  1.0000
  H   H2265     1.0  0.69268  0.16538  0.84869  1.0000
  H   H2266     1.0  0.96783  0.02692  0.94193  1.0000
  H   H2267     1.0  0.96454  0.08214  0.91391  1.0000
  H   H2268     1.0  0.94422  0.01544  0.88077  1.0000
  S   S373      1.0  0.65762  0.11453  0.56021  1.0000
  H   H2269     1.0  0.86362  0.07096  0.58649  1.0000
  H   H2270     1.0  0.93285  0.09043  0.95059  1.0000
  H   H2271     1.0  0.80441  0.21326  0.95972  1.0000
  H   H2272     1.0  0.88162  0.01487  0.70229  1.0000
  H   H2273     1.0  0.88650  0.07163  0.56765  1.0000
  H   H2274     1.0  0.66901  0.18623  0.83218  1.0000
  C   C1352     1.0  0.69354  0.20462  0.82824  1.0000
  N   N95       1.0  0.75127  0.24015  0.69134  1.0000
  H   H2275     1.0  0.74131  0.16897  0.82194  1.0000
  H   H2276     1.0  0.75031  0.22617  0.51351  1.0000
  H   H2277     1.0  0.75716  0.13863  0.97312  1.0000
  N   N96       1.0  0.87170  0.03418  0.62667  1.0000
  H   H2278     1.0  0.75881  0.20152  0.51434  1.0000
  H   H2279     1.0  0.74687  0.22070  0.84382  1.0000
  H   H2280     1.0  0.93787  0.06754  0.93096  1.0000
  N   N97       1.0  0.87507  0.17246  0.68924  1.0000
  C   C1353     1.0  0.88384  0.15258  0.68967  1.0000
  C   C1354     1.0  0.85609  0.17149  0.70722  1.0000
  C   C1355     1.0  0.88664  0.18619  0.71249  1.0000
  C   C1356     1.0  0.87368  0.17946  0.64794  1.0000
  C   C1357     1.0  0.90391  0.15064  0.67455  1.0000
  C   C1358     1.0  0.84063  0.16277  0.68168  1.0000
  C   C1359     1.0  0.89213  0.17966  0.75405  1.0000
  C   C1360     1.0  0.86448  0.19953  0.64207  1.0000
  H   H2281     1.0  0.88402  0.14648  0.71950  1.0000
  H   H2282     1.0  0.87540  0.14263  0.67190  1.0000
  H   H2283     1.0  0.85079  0.18585  0.71660  1.0000
  H   H2284     1.0  0.85689  0.16294  0.73443  1.0000
  H   H2285     1.0  0.89969  0.18949  0.69725  1.0000
  H   H2286     1.0  0.87908  0.20027  0.71528  1.0000
  H   H2287     1.0  0.88779  0.18040  0.63542  1.0000
  H   H2288     1.0  0.86655  0.16907  0.62861  1.0000
  H   H2289     1.0  0.91370  0.16009  0.69003  1.0000
  H   H2290     1.0  0.90913  0.13569  0.67949  1.0000
  H   H2291     1.0  0.90441  0.15316  0.64284  1.0000
  H   H2292     1.0  0.83628  0.17248  0.65749  1.0000
  H   H2293     1.0  0.84476  0.14853  0.67008  1.0000
  H   H2294     1.0  0.82810  0.16088  0.69960  1.0000
  H   H2295     1.0  0.90246  0.16754  0.75401  1.0000
  H   H2296     1.0  0.87992  0.17559  0.77101  1.0000
  H   H2297     1.0  0.89875  0.19167  0.76971  1.0000
  H   H2298     1.0  0.87504  0.21084  0.64314  1.0000
  H   H2299     1.0  0.85387  0.20307  0.66386  1.0000
  H   H2300     1.0  0.85696  0.20021  0.61358  1.0000
  H   H2301     1.0  0.74210  0.19121  0.69905  1.0000
  H   H2302     1.0  0.73827  0.16616  0.77128  1.0000
  H   H2303     1.0  0.66382  0.24451  0.62742  1.0000
  H   H2304     1.0  0.81938  0.18449  0.97905  1.0000
  H   H2305     1.0  0.77022  0.23963  0.92392  1.0000
  S   S374      1.0  0.92798  0.00868  0.65844  1.0000
  H   H2306     1.0  0.72029  0.08112  0.55289  1.0000
  H   H2307     1.0  0.69500  0.06407  0.52347  1.0000
  C   C1361     1.0  0.72296  0.24180  0.64376  1.0000
  H   H2308     1.0  0.69034  0.21275  0.85515  1.0000
  H   H2309     1.0  0.86876  0.00465  0.64476  1.0000
  C   C1362     1.0  0.73072  0.16600  0.79914  1.0000
  H   H2310     1.0  0.92932  0.03205  0.80305  1.0000
  C   C1363     1.0  0.92907  0.00840  0.54052  1.0000
  H   H2311     1.0  0.71370  0.10081  0.58344  1.0000
  H   H2312     1.0  0.89669  0.03749  0.66169  1.0000
  H   H2313     1.0  0.87852  0.00785  0.55887  1.0000
  Fe  Fe185     1.0  0.67481  0.18324  0.53258  1.0000
  H   H2314     1.0  0.73551  0.18993  0.86778  1.0000
  H   H2315     1.0  0.69523  0.21899  0.51348  1.0000
  H   H2316     1.0  0.85449  0.00815  0.57497  1.0000
  H   H2317     1.0  0.89554  0.04045  0.59197  1.0000
  H   H2318     1.0  0.86044  0.24516  0.95467  1.0000
  C   C1364     1.0  0.69069  0.22547  0.96499  1.0000
  S   S375      1.0  0.96338  0.05830  0.79618  1.0000
  C   C1365     1.0  0.82172  0.23026  0.63611  1.0000
  H   H2319     1.0  0.71205  0.12246  0.52426  1.0000
  C   C1366     1.0  0.88136  0.04001  0.66395  1.0000
  C   C1367     1.0  0.73639  0.21290  0.82631  1.0000
  H   H2320     1.0  0.74425  0.20424  0.80478  1.0000
  H   H2321     1.0  0.64433  0.13478  0.62860  1.0000
  H   H2322     1.0  0.84605  0.20313  0.95401  1.0000
  H   H2323     1.0  0.84401  0.02596  0.64211  1.0000
  H   H2324     1.0  0.72906  0.22284  0.71278  1.0000
  H   H2325     1.0  0.77713  0.22787  0.67056  1.0000
  C   C1368     1.0  0.80202  0.24045  0.98967  1.0000
  H   H2326     1.0  0.94030  0.07177  0.98265  1.0000
  C   C1369     1.0  0.72539  0.20018  0.85367  1.0000
  H   H2327     1.0  0.81875  0.23221  0.60547  1.0000
  H   H2328     1.0  0.74818  0.24513  0.77519  1.0000
  C   C1370     1.0  0.81298  0.22175  0.98043  1.0000
  C   C1371     1.0  0.74436  0.22182  0.70812  1.0000
  H   H2329     1.0  0.69265  0.16895  0.92019  1.0000
  H   H2330     1.0  0.87423  0.03950  0.56493  1.0000
  H   H2331     1.0  0.88388  0.07310  0.61864  1.0000
  H   H2332     1.0  0.74236  0.20410  0.65468  1.0000
  H   H2333     1.0  0.95972  0.03676  0.54035  1.0000
  H   H2334     1.0  0.83135  0.06230  0.63109  1.0000
  C   C1372     1.0  0.84378  0.05647  0.64731  1.0000
  C   C1373     1.0  0.73876  0.16268  0.98571  1.0000
  C   C1374     1.0  0.94253  0.07778  0.95358  1.0000
  C   C1375     1.0  0.94940  0.00968  0.75675  1.0000
  H   H2335     1.0  0.68434  0.24478  0.74526  1.0000
  H   H2336     1.0  0.72064  0.20961  0.87772  1.0000
  N   N98       1.0  0.94972  0.99857  0.82899  1.0000
  C   C1376     1.0  0.69559  0.18156  0.90194  1.0000
  H   H2337     1.0  0.68229  0.18993  0.89846  1.0000
  C   C1377     1.0  0.74421  0.24314  0.65021  1.0000
  H   H2338     1.0  0.72552  0.15139  0.80399  1.0000
  C   C1378     1.0  0.87530  0.02955  0.70081  1.0000
  H   H2339     1.0  0.72301  0.18913  0.99191  1.0000
  H   H2340     1.0  0.85260  0.17972  0.97023  1.0000
  H   H2341     1.0  0.73477  0.10189  0.55705  1.0000
  H   H2342     1.0  0.77956  0.20564  0.99685  1.0000
  H   H2343     1.0  0.95893  0.02650  0.84724  1.0000
  C   C1379     1.0  0.82860  0.19172  0.00049  1.0000
  H   H2344     1.0  0.69777  0.21686  0.98711  1.0000
  C   C1380     1.0  0.70071  0.23277  0.93405  1.0000
  H   H2345     1.0  0.71553  0.22975  0.93254  1.0000
  C   C1381     1.0  0.86913  0.00409  0.58278  1.0000
  H   H2346     1.0  0.78896  0.23799  0.00524  1.0000
  H   H2347     1.0  0.75109  0.23277  0.63011  1.0000
  C   C1382     1.0  0.64156  0.10862  0.59636  1.0000
  H   H2348     1.0  0.64770  0.24390  0.94075  1.0000
  C   C1383     1.0  0.96022  0.00093  0.79188  1.0000
  C   C1384     1.0  0.87556  0.01294  0.62168  1.0000
  H   H2349     1.0  0.96566  0.00705  0.57089  1.0000
  H   H2350     1.0  0.96219  0.05013  0.98924  1.0000
  H   H2351     1.0  0.96299  0.09983  0.95086  1.0000
  H   H2352     1.0  0.89074  0.00948  0.62498  1.0000
  H   H2353     1.0  0.79088  0.18233  0.00231  1.0000
  C   C1385     1.0  0.96261  0.08411  0.94574  1.0000
  H   H2354     1.0  0.77027  0.24236  0.87216  1.0000
  H   H2355     1.0  0.64305  0.24015  0.54058  1.0000
  H   H2356     1.0  0.92857  0.01879  0.51723  1.0000
  H   H2357     1.0  0.85837  0.19971  0.99974  1.0000
  C   C1386     1.0  0.63731  0.12133  0.62644  1.0000
  H   H2358     1.0  0.92083  0.99775  0.80795  1.0000
  S   S376      1.0  0.97036  0.08787  0.60557  1.0000
  S   S377      1.0  0.65903  0.22200  0.00770  1.0000
  S   S378      1.0  0.68385  0.15464  0.50898  1.0000
  Fe  Fe186     1.0  0.67736  0.32291  0.33377  1.0000
  S   S379      1.0  0.70529  0.31643  0.36191  1.0000
  S   S380      1.0  0.66409  0.35285  0.33834  1.0000
  Fe  Fe187     1.0  0.67787  0.28442  0.29185  1.0000
  S   S381      1.0  0.70573  0.27493  0.31674  1.0000
  S   S382      1.0  0.66235  0.26855  0.24508  1.0000
  Fe  Fe188     1.0  0.69463  0.28711  0.37225  1.0000
  S   S383      1.0  0.70371  0.27359  0.42906  1.0000
  Fe  Fe189     1.0  0.71419  0.30482  0.30427  1.0000
  S   S384      1.0  0.74348  0.31038  0.28480  1.0000
  S   S385      1.0  0.66575  0.29431  0.34867  1.0000
  S   S386      1.0  0.68719  0.31351  0.27489  1.0000
  Fe  Fe190     1.0  0.79230  0.31095  0.08807  1.0000
  S   S387      1.0  0.81826  0.31097  0.12561  1.0000
  S   S388      1.0  0.76223  0.31527  0.10611  1.0000
  H   H2359     1.0  0.75815  0.36234  0.20201  1.0000
  S   S389      1.0  0.84129  0.29832  0.04741  1.0000
  S   S390      1.0  0.80508  0.27452  0.44554  1.0000
  Fe  Fe191     1.0  0.82586  0.28378  0.09442  1.0000
  H   H2360     1.0  0.93995  0.46100  0.09944  1.0000
  Fe  Fe192     1.0  0.83157  0.32571  0.07539  1.0000
  S   S391      1.0  0.85285  0.34855  0.08668  1.0000
  S   S392      1.0  0.79906  0.28256  0.06037  1.0000
  S   S393      1.0  0.80481  0.32816  0.04037  1.0000
  Fe  Fe193     1.0  0.95300  0.40978  0.40976  1.0000
  S   S394      1.0  0.95088  0.43990  0.43120  1.0000
  Fe  Fe194     1.0  0.91765  0.39785  0.45056  1.0000
  S   S395      1.0  0.91254  0.42739  0.47558  1.0000
  S   S396      1.0  0.90284  0.36958  0.45754  1.0000
  Fe  Fe195     1.0  0.92051  0.43801  0.41666  1.0000
  S   S397      1.0  0.90693  0.46447  0.39002  1.0000
  C   C1387     1.0  0.91260  0.48998  0.33118  1.0000
  H   H2361     1.0  0.85457  0.33772  0.33982  1.0000
  S   S398      1.0  0.92308  0.40866  0.39014  1.0000
  S   S399      1.0  0.94810  0.39699  0.46810  1.0000
  C   C1388     1.0  0.88047  0.36900  0.05346  1.0000
  C   C1389     1.0  0.94569  0.41906  0.17044  1.0000
  H   H2362     1.0  0.66934  0.25655  0.40197  1.0000
  H   H2363     1.0  0.67253  0.31939  0.50152  1.0000
  H   H2364     1.0  0.87486  0.28393  0.41225  1.0000
  H   H2365     1.0  0.83266  0.28985  0.32376  1.0000
  H   H2366     1.0  0.78868  0.27236  0.18117  1.0000
  C   C1390     1.0  0.86630  0.33839  0.36111  1.0000
  H   H2367     1.0  0.76283  0.26993  0.29737  1.0000
  H   H2368     1.0  0.86042  0.30803  0.46144  1.0000
  C   C1391     1.0  0.76167  0.25987  0.18822  1.0000
  H   H2369     1.0  0.71681  0.27205  0.20753  1.0000
  H   H2370     1.0  0.86522  0.35210  0.37741  1.0000
  H   H2371     1.0  0.73069  0.34287  0.32917  1.0000
  H   H2372     1.0  0.81498  0.34484  0.45212  1.0000
  C   C1392     1.0  0.69193  0.25331  0.44374  1.0000
  C   C1393     1.0  0.91813  0.47249  0.34838  1.0000
  C   C1394     1.0  0.93265  0.46155  0.33229  1.0000
  H   H2373     1.0  0.76889  0.25841  0.39308  1.0000
  H   H2374     1.0  0.93696  0.44806  0.34539  1.0000
  H   H2375     1.0  0.95605  0.48649  0.38633  1.0000
  H   H2376     1.0  0.91212  0.45846  0.05655  1.0000
  C   C1395     1.0  0.88917  0.37828  0.02271  1.0000
  H   H2377     1.0  0.70583  0.36479  0.20239  1.0000
  C   C1396     1.0  0.74830  0.31193  0.23504  1.0000
  C   C1397     1.0  0.76683  0.31371  0.22375  1.0000
  C   C1398     1.0  0.77125  0.31467  0.18429  1.0000
  C   C1399     1.0  0.75712  0.31414  0.15586  1.0000
  C   C1400     1.0  0.73853  0.31261  0.16719  1.0000
  C   C1401     1.0  0.73413  0.31132  0.20669  1.0000
  H   H2378     1.0  0.77786  0.31418  0.24558  1.0000
  H   H2379     1.0  0.78559  0.31596  0.17592  1.0000
  H   H2380     1.0  0.72753  0.31220  0.14530  1.0000
  H   H2381     1.0  0.71981  0.30984  0.21513  1.0000
  H   H2382     1.0  0.76330  0.25323  0.15899  1.0000
  H   H2383     1.0  0.75024  0.27299  0.41132  1.0000
  H   H2384     1.0  0.93102  0.47463  0.16440  1.0000
  H   H2385     1.0  0.71801  0.34159  0.26800  1.0000
  H   H2386     1.0  0.65928  0.25024  0.17128  1.0000
  C   C1402     1.0  0.94176  0.47868  0.03327  1.0000
  H   H2387     1.0  0.78083  0.27361  0.22962  1.0000
  H   H2388     1.0  0.95406  0.42746  0.15015  1.0000
  H   H2389     1.0  0.73883  0.37860  0.19540  1.0000
  H   H2390     1.0  0.70019  0.34102  0.21338  1.0000
  H   H2391     1.0  0.81171  0.32161  0.43114  1.0000
  H   H2392     1.0  0.92922  0.39284  0.16334  1.0000
  H   H2393     1.0  0.69059  0.28282  0.50732  1.0000
  H   H2394     1.0  0.69974  0.35583  0.28750  1.0000
  H   H2395     1.0  0.64608  0.32998  0.39676  1.0000
  H   H2396     1.0  0.87952  0.33865  0.34484  1.0000
  N   N99       1.0  0.92792  0.48411  0.06416  1.0000
  C   C1403     1.0  0.78137  0.26422  0.20371  1.0000
  H   H2397     1.0  0.74518  0.25590  0.37459  1.0000
  C   C1404     1.0  0.71986  0.26321  0.18155  1.0000
  N   N100      1.0  0.72410  0.37160  0.27247  1.0000
  C   C1405     1.0  0.92276  0.47788  0.13746  1.0000
  C   C1406     1.0  0.71685  0.39079  0.25779  1.0000
  H   H2398     1.0  0.91105  0.47290  0.49347  1.0000
  H   H2399     1.0  0.75488  0.27414  0.18319  1.0000
  H   H2400     1.0  0.91644  0.49241  0.14094  1.0000
  C   C1407     1.0  0.71068  0.35574  0.26492  1.0000
  C   C1408     1.0  0.74282  0.36691  0.25499  1.0000
  H   H2401     1.0  0.89028  0.33400  0.48621  1.0000
  C   C1409     1.0  0.74346  0.36527  0.21046  1.0000
  C   C1410     1.0  0.69823  0.39796  0.27520  1.0000
  H   H2402     1.0  0.73557  0.35290  0.19966  1.0000
  H   H2403     1.0  0.83858  0.29759  0.45095  1.0000
  H   H2404     1.0  0.91742  0.49061  0.45765  1.0000
  H   H2405     1.0  0.80200  0.25816  0.36984  1.0000
  C   C1411     1.0  0.84400  0.29650  0.34102  1.0000
  C   C1412     1.0  0.63948  0.37723  0.37584  1.0000
  H   H2406     1.0  0.90275  0.38432  0.02714  1.0000
  H   H2407     1.0  0.82555  0.32450  0.47531  1.0000
  C   C1413     1.0  0.64049  0.34449  0.39838  1.0000
  H   H2408     1.0  0.82497  0.29854  0.38854  1.0000
  H   H2409     1.0  0.72731  0.40195  0.26371  1.0000
  H   H2410     1.0  0.69272  0.41049  0.25831  1.0000
  C   C1414     1.0  0.86304  0.36066  0.04782  1.0000
  H   H2411     1.0  0.96917  0.47731  0.06302  1.0000
  H   H2412     1.0  0.89373  0.48660  0.46749  1.0000
  C   C1415     1.0  0.72706  0.37361  0.31586  1.0000
  H   H2413     1.0  0.74851  0.35287  0.26577  1.0000
  C   C1416     1.0  0.86145  0.28232  0.42705  1.0000
  C   C1417     1.0  0.83959  0.33363  0.42267  1.0000
  Fe  Fe196     1.0  0.81372  0.29962  0.01597  1.0000
  S   S400      1.0  0.94671  0.49233  0.23855  1.0000
  H   H2414     1.0  0.73280  0.25157  0.26398  1.0000
  C   C1418     1.0  0.90982  0.47431  0.05588  1.0000
  H   H2415     1.0  0.92971  0.40789  0.12166  1.0000
  H   H2416     1.0  0.70019  0.40288  0.30561  1.0000
  H   H2417     1.0  0.86462  0.27424  0.45425  1.0000
  C   C1419     1.0  0.73707  0.35659  0.33671  1.0000
  H   H2418     1.0  0.88739  0.36802  0.08159  1.0000
  N   N101      1.0  0.84848  0.31578  0.40531  1.0000
  H   H2419     1.0  0.85364  0.28477  0.35064  1.0000
  H   H2420     1.0  0.83551  0.34417  0.39963  1.0000
  C   C1420     1.0  0.82190  0.33071  0.44645  1.0000
  H   H2421     1.0  0.68742  0.38695  0.27422  1.0000
  C   C1421     1.0  0.93574  0.47637  0.10230  1.0000
  C   C1422     1.0  0.74572  0.25732  0.25153  1.0000
  H   H2422     1.0  0.68516  0.35985  0.22919  1.0000
  H   H2423     1.0  0.84972  0.34110  0.44180  1.0000
  H   H2424     1.0  0.94616  0.41516  0.29045  1.0000
  H   H2425     1.0  0.72645  0.27192  0.15902  1.0000
  C   C1423     1.0  0.86701  0.32122  0.38927  1.0000
  H   H2426     1.0  0.64444  0.38812  0.35667  1.0000
  H   H2427     1.0  0.87688  0.32494  0.41338  1.0000
  N   N102      1.0  0.95690  0.41389  0.20669  1.0000
  H   H2428     1.0  0.93002  0.40719  0.23037  1.0000
  C   C1424     1.0  0.94974  0.40133  0.27608  1.0000
  H   H2429     1.0  0.85139  0.30593  0.32097  1.0000
  H   H2430     1.0  0.94821  0.44070  0.23275  1.0000
  C   C1425     1.0  0.85191  0.30156  0.43774  1.0000
  H   H2431     1.0  0.76995  0.35419  0.50242  1.0000
  S   S401      1.0  0.83999  0.25901  0.12572  1.0000
  H   H2432     1.0  0.71348  0.37569  0.33068  1.0000
  H   H2433     1.0  0.87397  0.30908  0.37404  1.0000
  C   C1426     1.0  0.83527  0.30793  0.37488  1.0000
  C   C1427     1.0  0.88035  0.34497  0.49527  1.0000
  H   H2434     1.0  0.85189  0.27331  0.40980  1.0000
  C   C1428     1.0  0.94485  0.40196  0.23221  1.0000
  H   H2435     1.0  0.65592  0.27838  0.03639  1.0000
  C   C1429     1.0  0.75397  0.25836  0.40079  1.0000
  C   C1430     1.0  0.94140  0.46794  0.29887  1.0000
  H   H2436     1.0  0.96970  0.48375  0.01301  1.0000
  S   S402      1.0  0.95829  0.42900  0.06620  1.0000
  H   H2437     1.0  0.94982  0.39348  0.13343  1.0000
  H   H2438     1.0  0.74253  0.27280  0.24688  1.0000
  H   H2439     1.0  0.94862  0.48387  0.11112  1.0000
  H   H2440     1.0  0.93340  0.42845  0.17765  1.0000
  H   H2441     1.0  0.73523  0.38654  0.32286  1.0000
  H   H2442     1.0  0.73589  0.35846  0.36861  1.0000
  C   C1431     1.0  0.70009  0.35580  0.22524  1.0000
  H   H2443     1.0  0.88738  0.32526  0.03272  1.0000
  H   H2444     1.0  0.71491  0.39108  0.22591  1.0000
  H   H2445     1.0  0.75315  0.37774  0.26405  1.0000
  C   C1432     1.0  0.64697  0.35844  0.37339  1.0000
  H   H2446     1.0  0.75218  0.35579  0.33039  1.0000
  H   H2447     1.0  0.82661  0.31959  0.36093  1.0000
  C   C1433     1.0  0.93570  0.48524  0.28121  1.0000
  Fe  Fe197     1.0  0.94343  0.42721  0.48815  1.0000
  C   C1434     1.0  0.90781  0.48731  0.48138  1.0000
  H   H2448     1.0  0.95279  0.45956  0.28708  1.0000
  C   C1435     1.0  0.81578  0.25394  0.42543  1.0000
  H   H2449     1.0  0.94482  0.38684  0.22196  1.0000
  H   H2450     1.0  0.70616  0.25899  0.16918  1.0000
  H   H2451     1.0  0.77486  0.25050  0.27469  1.0000
  C   C1436     1.0  0.88348  0.36422  0.48640  1.0000
  C   C1437     1.0  0.93831  0.40212  0.14640  1.0000
  C   C1438     1.0  0.87065  0.37832  0.49871  1.0000
  H   H2452     1.0  0.91165  0.46719  0.13571  1.0000
  C   C1439     1.0  0.96137  0.43243  0.22676  1.0000
  C   C1440     1.0  0.67277  0.24729  0.22743  1.0000
  C   C1441     1.0  0.92139  0.49638  0.29762  1.0000
  H   H2453     1.0  0.94124  0.39039  0.29022  1.0000
  H   H2454     1.0  0.63915  0.30549  0.02287  1.0000
  H   H2455     1.0  0.89947  0.47771  0.07868  1.0000
  C   C1442     1.0  0.76095  0.25562  0.28395  1.0000
  H   H2456     1.0  0.87287  0.39317  0.49195  1.0000
  H   H2457     1.0  0.65912  0.28887  0.48602  1.0000
  N   N103      1.0  0.74978  0.24766  0.21331  1.0000
  C   C1443     1.0  0.67509  0.24824  0.42607  1.0000
  H   H2458     1.0  0.79015  0.25122  0.20960  1.0000
  C   C1444     1.0  0.96170  0.48581  0.04006  1.0000
  H   H2459     1.0  0.94287  0.46285  0.03015  1.0000
  H   H2460     1.0  0.96741  0.45203  0.17864  1.0000
  H   H2461     1.0  0.64797  0.32331  0.49652  1.0000
  H   H2462     1.0  0.66827  0.32010  0.01269  1.0000
  C   C1445     1.0  0.81147  0.24907  0.38687  1.0000
  H   H2463     1.0  0.96450  0.39736  0.28238  1.0000
  H   H2464     1.0  0.96804  0.43006  0.25559  1.0000
  C   C1446     1.0  0.89960  0.47937  0.01737  1.0000
  H   H2465     1.0  0.97024  0.38848  0.18255  1.0000
  H   H2466     1.0  0.75871  0.24859  0.45912  1.0000
  H   H2467     1.0  0.89396  0.49430  0.01752  1.0000
  H   H2468     1.0  0.88740  0.47004  0.01394  1.0000
  H   H2469     1.0  0.88280  0.30280  0.01124  1.0000
  H   H2470     1.0  0.80224  0.24717  0.10818  1.0000
  H   H2471     1.0  0.94505  0.48167  0.48195  1.0000
  C   C1447     1.0  0.85413  0.36211  0.01147  1.0000
  H   H2472     1.0  0.96966  0.43682  0.34951  1.0000
  C   C1448     1.0  0.95332  0.49223  0.49815  1.0000
  Fe  Fe198     1.0  0.66461  0.31043  0.81450  1.0000
  S   S403      1.0  0.69314  0.30725  0.84307  1.0000
  H   H2473     1.0  0.73544  0.38045  0.63486  1.0000
  Fe  Fe199     1.0  0.67498  0.28380  0.74796  1.0000
  S   S404      1.0  0.70387  0.27823  0.77102  1.0000
  S   S405      1.0  0.66616  0.27105  0.69083  1.0000
  Fe  Fe200     1.0  0.69103  0.27598  0.82927  1.0000
  H   H2474     1.0  0.91543  0.34678  0.87750  1.0000
  Fe  Fe201     1.0  0.70410  0.30956  0.78232  1.0000
  S   S406      1.0  0.73180  0.32163  0.76678  1.0000
  S   S407      1.0  0.66183  0.27861  0.80528  1.0000
  S   S408      1.0  0.67584  0.31565  0.75483  1.0000
  Fe  Fe202     1.0  0.78858  0.29352  0.58109  1.0000
  S   S409      1.0  0.81417  0.30334  0.61273  1.0000
  S   S410      1.0  0.75853  0.29460  0.60042  1.0000
  H   H2475     1.0  0.86396  0.29215  0.88506  1.0000
  S   S411      1.0  0.83793  0.29054  0.53475  1.0000
  N   N104      1.0  0.88582  0.31800  0.93143  1.0000
  Fe  Fe203     1.0  0.82762  0.27649  0.58878  1.0000
  C   C1449     1.0  0.73412  0.36521  0.62675  1.0000
  Fe  Fe204     1.0  0.82233  0.31663  0.55621  1.0000
  S   S412      1.0  0.83068  0.34765  0.55086  1.0000
  S   S413      1.0  0.80140  0.26565  0.56077  1.0000
  H   H2476     1.0  0.94008  0.44229  0.73219  1.0000
  C   C1450     1.0  0.68126  0.32747  0.95877  1.0000
  H   H2477     1.0  0.74972  0.33862  0.62880  1.0000
  Fe  Fe205     1.0  0.91797  0.40609  0.95302  1.0000
  S   S414      1.0  0.91988  0.43352  0.98658  1.0000
  S   S415      1.0  0.89128  0.38968  0.94602  1.0000
  Fe  Fe206     1.0  0.93475  0.44481  0.93514  1.0000
  S   S416      1.0  0.93127  0.47600  0.91912  1.0000
  H   H2478     1.0  0.89128  0.34103  0.97189  1.0000
  C   C1451     1.0  0.86761  0.32757  0.91858  1.0000
  S   S417      1.0  0.93045  0.41843  0.89918  1.0000
  S   S418      1.0  0.94515  0.39367  0.97666  1.0000
  C   C1452     1.0  0.82379  0.27555  0.93242  1.0000
  C   C1453     1.0  0.96205  0.41317  0.66976  1.0000
  C   C1454     1.0  0.76079  0.29172  0.84609  1.0000
  N   N105      1.0  0.66702  0.28327  0.54601  1.0000
  H   H2479     1.0  0.75098  0.27305  0.97561  1.0000
  S   S419      1.0  0.80952  0.29373  0.95223  1.0000
  H   H2480     1.0  0.85114  0.30789  0.95574  1.0000
  C   C1455     1.0  0.71849  0.28461  0.94404  1.0000
  H   H2481     1.0  0.76556  0.30021  0.00645  1.0000
  C   C1456     1.0  0.84954  0.32064  0.93710  1.0000
  C   C1457     1.0  0.64797  0.35938  0.86747  1.0000
  H   H2482     1.0  0.89307  0.35406  0.89468  1.0000
  H   H2483     1.0  0.63972  0.25715  0.57836  1.0000
  C   C1458     1.0  0.90543  0.34464  0.90121  1.0000
  C   C1459     1.0  0.88510  0.29644  0.93163  1.0000
  C   C1460     1.0  0.94381  0.46677  0.84650  1.0000
  C   C1461     1.0  0.93696  0.48118  0.87095  1.0000
  H   H2484     1.0  0.78176  0.25915  0.90209  1.0000
  H   H2485     1.0  0.94549  0.45227  0.85703  1.0000
  H   H2486     1.0  0.77359  0.27556  0.95786  1.0000
  C   C1462     1.0  0.73230  0.29128  0.91335  1.0000
  H   H2487     1.0  0.68405  0.32165  0.92945  1.0000
  C   C1463     1.0  0.66308  0.28965  0.58701  1.0000
  H   H2488     1.0  0.64560  0.33506  0.93294  1.0000
  C   C1464     1.0  0.73949  0.31357  0.72106  1.0000
  C   C1465     1.0  0.75848  0.31386  0.71205  1.0000
  C   C1466     1.0  0.76467  0.30753  0.67553  1.0000
  C   C1467     1.0  0.75181  0.30129  0.64758  1.0000
  C   C1468     1.0  0.73285  0.30100  0.65665  1.0000
  C   C1469     1.0  0.72673  0.30692  0.69334  1.0000
  H   H2489     1.0  0.76843  0.31887  0.73348  1.0000
  H   H2490     1.0  0.77934  0.30762  0.66895  1.0000
  H   H2491     1.0  0.72281  0.29621  0.63520  1.0000
  H   H2492     1.0  0.71206  0.30665  0.69993  1.0000
  H   H2493     1.0  0.78194  0.33114  0.61241  1.0000
  H   H2494     1.0  0.77851  0.26980  0.69854  1.0000
  H   H2495     1.0  0.76928  0.30227  0.83076  1.0000
  H   H2496     1.0  0.66514  0.28728  0.93130  1.0000
  N   N106      1.0  0.75166  0.28225  0.91552  1.0000
  C   C1470     1.0  0.75285  0.35404  0.63139  1.0000
  H   H2497     1.0  0.66182  0.35623  0.85685  1.0000
  H   H2498     1.0  0.74694  0.27049  0.70175  1.0000
  H   H2499     1.0  0.91423  0.48298  0.57521  1.0000
  C   C1471     1.0  0.64069  0.29745  0.99519  1.0000
  C   C1472     1.0  0.77319  0.37963  0.60732  1.0000
  C   C1473     1.0  0.79357  0.34965  0.65617  1.0000
  H   H2500     1.0  0.79725  0.25515  0.68163  1.0000
  H   H2501     1.0  0.77403  0.38391  0.63844  1.0000
  H   H2502     1.0  0.78749  0.38166  0.59610  1.0000
  H   H2503     1.0  0.79747  0.36466  0.66139  1.0000
  H   H2504     1.0  0.95151  0.43691  0.63244  1.0000
  H   H2505     1.0  0.80668  0.34085  0.65897  1.0000
  C   C1474     1.0  0.76932  0.25030  0.90004  1.0000
  H   H2506     1.0  0.71580  0.28020  0.55903  1.0000
  H   H2507     1.0  0.74794  0.25751  0.63945  1.0000
  C   C1475     1.0  0.66350  0.26226  0.54072  1.0000
  H   H2508     1.0  0.72764  0.36383  0.59753  1.0000
  C   C1476     1.0  0.64356  0.25568  0.54746  1.0000
  S   S420      1.0  0.79543  0.30902  0.52662  1.0000
  H   H2509     1.0  0.96028  0.45153  0.69258  1.0000
  H   H2510     1.0  0.90828  0.47672  0.99158  1.0000
  C   C1477     1.0  0.85142  0.35381  0.52727  1.0000
  H   H2511     1.0  0.74373  0.26108  0.87239  1.0000
  H   H2512     1.0  0.93081  0.47426  0.54224  1.0000
  H   H2513     1.0  0.67136  0.30242  0.59453  1.0000
  H   H2514     1.0  0.75722  0.35637  0.66208  1.0000
  H   H2515     1.0  0.89629  0.31941  0.87269  1.0000
  H   H2516     1.0  0.86799  0.34324  0.92375  1.0000
  H   H2517     1.0  0.78970  0.35093  0.53371  1.0000
  C   C1478     1.0  0.89209  0.32513  0.97082  1.0000
  C   C1479     1.0  0.88034  0.37950  0.98623  1.0000
  C   C1480     1.0  0.94848  0.47112  0.80824  1.0000
  H   H2518     1.0  0.93191  0.41800  0.73092  1.0000
  H   H2519     1.0  0.91387  0.31510  0.90895  1.0000
  C   C1481     1.0  0.76083  0.30208  0.97574  1.0000
  H   H2520     1.0  0.79672  0.34898  0.59506  1.0000
  H   H2521     1.0  0.87602  0.29102  0.95446  1.0000
  H   H2522     1.0  0.74863  0.35898  0.55445  1.0000
  H   H2523     1.0  0.93885  0.42942  0.77560  1.0000
  C   C1482     1.0  0.78191  0.25757  0.67927  1.0000
  H   H2524     1.0  0.63950  0.26653  0.00537  1.0000
  H   H2525     1.0  0.95625  0.39934  0.67913  1.0000
  H   H2526     1.0  0.74794  0.38871  0.57111  1.0000
  H   H2527     1.0  0.77910  0.29026  0.89640  1.0000
  C   C1483     1.0  0.76415  0.29372  0.89024  1.0000
  H   H2528     1.0  0.66545  0.25655  0.88553  1.0000
  S   S421      1.0  0.70464  0.25309  0.86729  1.0000
  H   H2529     1.0  0.69093  0.30149  0.54224  1.0000
  H   H2530     1.0  0.76757  0.25879  0.75870  1.0000
  C   C1484     1.0  0.94213  0.42776  0.74436  1.0000
  C   C1485     1.0  0.76252  0.35308  0.56326  1.0000
  H   H2531     1.0  0.93721  0.48364  0.00406  1.0000
  H   H2532     1.0  0.85564  0.37280  0.95295  1.0000
  H   H2533     1.0  0.73270  0.30716  0.91549  1.0000
  S   S422      1.0  0.84647  0.25912  0.62915  1.0000
  C   C1486     1.0  0.70163  0.27473  0.56376  1.0000
  H   H2534     1.0  0.76084  0.33726  0.56168  1.0000
  C   C1487     1.0  0.90055  0.32327  0.90282  1.0000
  H   H2535     1.0  0.69500  0.32932  0.97351  1.0000
  H   H2536     1.0  0.84308  0.33221  0.95488  1.0000
  S   S423      1.0  0.95229  0.49458  0.74593  1.0000
  H   H2537     1.0  0.70420  0.28975  0.93552  1.0000
  H   H2538     1.0  0.72883  0.25632  0.71834  1.0000
  H   H2539     1.0  0.67842  0.30060  0.98757  1.0000
  C   C1488     1.0  0.66964  0.31384  0.98312  1.0000
  C   C1489     1.0  0.75932  0.28220  0.95654  1.0000
  C   C1490     1.0  0.78510  0.34660  0.61510  1.0000
  H   H2540     1.0  0.77868  0.26151  0.64867  1.0000
  H   H2541     1.0  0.63964  0.28999  0.62622  1.0000
  H   H2542     1.0  0.66787  0.27837  0.60799  1.0000
  H   H2543     1.0  0.75477  0.40522  0.60781  1.0000
  H   H2544     1.0  0.72168  0.29062  0.97312  1.0000
  H   H2545     1.0  0.76533  0.27734  0.83565  1.0000
  H   H2546     1.0  0.65518  0.38659  0.89252  1.0000
  C   C1491     1.0  0.77600  0.35852  0.53090  1.0000
  H   H2547     1.0  0.88789  0.28949  0.86914  1.0000
  H   H2548     1.0  0.84181  0.27205  0.98282  1.0000
  H   H2549     1.0  0.72413  0.35917  0.64740  1.0000
  C   C1492     1.0  0.87831  0.28719  0.89339  1.0000
  H   H2550     1.0  0.74603  0.29471  0.83743  1.0000
  Fe  Fe207     1.0  0.94812  0.42219  0.00576  1.0000
  H   H2551     1.0  0.67456  0.34192  0.95607  1.0000
  H   H2552     1.0  0.74736  0.31021  0.97603  1.0000
  S   S424      1.0  0.95641  0.44227  0.53958  1.0000
  H   H2553     1.0  0.69883  0.27621  0.59517  1.0000
  C   C1493     1.0  0.81982  0.26902  0.89484  1.0000
  C   C1494     1.0  0.83860  0.26708  0.95387  1.0000
  H   H2554     1.0  0.71807  0.26888  0.94634  1.0000
  H   H2555     1.0  0.93934  0.41529  0.62708  1.0000
  H   H2556     1.0  0.91245  0.34950  0.92831  1.0000
  H   H2557     1.0  0.90703  0.32099  0.97647  1.0000
  H   H2558     1.0  0.77139  0.31079  0.96147  1.0000
  H   H2559     1.0  0.94695  0.47240  0.60173  1.0000
  C   C1495     1.0  0.94611  0.42468  0.64889  1.0000
  H   H2560     1.0  0.83920  0.31711  0.91395  1.0000
  H   H2561     1.0  0.76811  0.40274  0.56501  1.0000
  H   H2562     1.0  0.78441  0.34472  0.67942  1.0000
  H   H2563     1.0  0.80877  0.27584  0.87765  1.0000
  H   H2564     1.0  0.89913  0.29002  0.93908  1.0000
  C   C1496     1.0  0.84912  0.25185  0.93795  1.0000
  H   H2565     1.0  0.77819  0.37410  0.52953  1.0000
  H   H2566     1.0  0.86560  0.32631  0.88653  1.0000
  C   C1497     1.0  0.94269  0.48725  0.59331  1.0000
  N   N107      1.0  0.76815  0.35890  0.60397  1.0000
  H   H2567     1.0  0.70223  0.25939  0.55553  1.0000
  H   H2568     1.0  0.66140  0.27315  0.98719  1.0000
  H   H2569     1.0  0.72571  0.28850  0.88448  1.0000
  H   H2570     1.0  0.76265  0.30926  0.89696  1.0000
  C   C1498     1.0  0.75062  0.26184  0.90155  1.0000
  H   H2571     1.0  0.95393  0.45996  0.78966  1.0000
  C   C1499     1.0  0.68740  0.28623  0.53814  1.0000
  H   H2572     1.0  0.96124  0.48471  0.52180  1.0000
  C   C1500     1.0  0.76014  0.39458  0.58646  1.0000
  H   H2573     1.0  0.86245  0.32499  0.52309  1.0000
  N   N108      1.0  0.65085  0.30909  0.96602  1.0000
  H   H2574     1.0  0.64975  0.34653  0.00277  1.0000
  H   H2575     1.0  0.67246  0.25335  0.56066  1.0000
  C   C1501     1.0  0.88138  0.31843  0.00633  1.0000
  H   H2576     1.0  0.86658  0.32319  0.00506  1.0000
  H   H2577     1.0  0.93515  0.42990  0.66867  1.0000
  Fe  Fe208     1.0  0.95775  0.40809  0.92547  1.0000
  C   C1502     1.0  0.92747  0.48672  0.56101  1.0000
  C   C1503     1.0  0.94619  0.48983  0.79407  1.0000
  H   H2578     1.0  0.87788  0.27145  0.89750  1.0000
  C   C1504     1.0  0.86270  0.37158  0.98089  1.0000
  C   C1505     1.0  0.64419  0.37654  0.88778  1.0000
  S   S425      1.0  0.96307  0.43546  0.95684  1.0000
  H   H2579     1.0  0.93725  0.49444  0.61969  1.0000
  H   H2580     1.0  0.65824  0.30793  0.90529  1.0000
  H   H2581     1.0  0.81069  0.25065  0.00609  1.0000
  H   H2582     1.0  0.64063  0.31099  0.59793  1.0000
  C   C1506     1.0  0.82985  0.25336  0.87955  1.0000
  H   H2583     1.0  0.84467  0.38406  0.52778  1.0000
  H   H2584     1.0  0.84053  0.35611  0.00715  1.0000
  H   H2585     1.0  0.95528  0.49466  0.58401  1.0000
  H   H2586     1.0  0.82651  0.24820  0.85073  1.0000
  H   H2587     1.0  0.74142  0.25350  0.92028  1.0000
  C   C1507     1.0  0.85466  0.37310  0.51892  1.0000
  C   C1508     1.0  0.65902  0.31619  0.51492  1.0000
  C   C1509     1.0  0.65364  0.29822  0.92858  1.0000
  H   H2588     1.0  0.96099  0.40396  0.74633  1.0000
  H   H2589     1.0  0.74631  0.27057  0.77190  1.0000
  C   C1510     1.0  0.63936  0.32700  0.95692  1.0000
  H   H2590     1.0  0.79812  0.24765  0.96194  1.0000
  H   H2591     1.0  0.63974  0.28199  0.88320  1.0000
  C   C1511     1.0  0.65589  0.29445  0.51561  1.0000
  C   C1512     1.0  0.65001  0.27790  0.00636  1.0000
  C   C1513     1.0  0.75221  0.25753  0.75766  1.0000
  H   H2592     1.0  0.65838  0.32273  0.54417  1.0000
  C   C1514     1.0  0.96220  0.41953  0.74094  1.0000
  C   C1515     1.0  0.64262  0.29519  0.59655  1.0000
  H   H2593     1.0  0.64071  0.29262  0.51817  1.0000
  H   H2594     1.0  0.96910  0.40262  0.53835  1.0000
  C   C1516     1.0  0.67254  0.24812  0.90788  1.0000
  H   H2595     1.0  0.71498  0.25251  0.66103  1.0000
  C   C1517     1.0  0.74424  0.25661  0.71581  1.0000
  H   H2596     1.0  0.66714  0.25781  0.51080  1.0000
  S   S426      1.0  0.63782  0.32410  0.83791  1.0000
  H   H2597     1.0  0.84927  0.24728  0.70896  1.0000
  C   C1518     1.0  0.86453  0.33981  0.51596  1.0000
  Fe  Fe209     1.0  0.81044  0.28199  0.50863  1.0000
  C   C1519     1.0  0.67366  0.24704  0.68656  1.0000
  Fe  Fe210     1.0  0.68867  0.68557  0.32770  1.0000
  S   S427      1.0  0.71522  0.69419  0.30056  1.0000
  S   S428      1.0  0.66942  0.70533  0.36120  1.0000
  Fe  Fe211     1.0  0.69301  0.64443  0.30107  1.0000
  S   S429      1.0  0.72043  0.64933  0.27274  1.0000
  N   N109      1.0  0.72461  0.70505  0.03353  1.0000
  Fe  Fe212     1.0  0.72743  0.66690  0.32549  1.0000
  S   S430      1.0  0.75716  0.67035  0.34678  1.0000
  Fe  Fe213     1.0  0.70651  0.67626  0.25017  1.0000
  S   S431      1.0  0.71304  0.68720  0.19082  1.0000
  S   S432      1.0  0.70136  0.65945  0.35653  1.0000
  C   C1520     1.0  0.74549  0.70421  0.02804  1.0000
  Fe  Fe214     1.0  0.84506  0.66624  0.08662  1.0000
  S   S433      1.0  0.81620  0.66828  0.11129  1.0000
  S   S434      1.0  0.87171  0.65314  0.11400  1.0000
  C   C1521     1.0  0.73790  0.70331  0.47765  1.0000
  S   S435      1.0  0.80526  0.69851  0.04005  1.0000
  H   H2598     1.0  0.82433  0.69229  0.37392  1.0000
  Fe  Fe215     1.0  0.81756  0.69982  0.10031  1.0000
  S   S436      1.0  0.80342  0.72057  0.14150  1.0000
  Fe  Fe216     1.0  0.80573  0.66687  0.04927  1.0000
  S   S437      1.0  0.77861  0.65282  0.03333  1.0000
  S   S438      1.0  0.84707  0.69825  0.08014  1.0000
  C   C1522     1.0  0.71028  0.73568  0.41242  1.0000
  Fe  Fe217     1.0  0.92052  0.55908  0.19220  1.0000
  S   S439      1.0  0.92922  0.53152  0.16330  1.0000
  S   S440      1.0  0.89097  0.56908  0.17634  1.0000
  Fe  Fe218     1.0  0.95854  0.56271  0.23111  1.0000
  H   H2599     1.0  0.83003  0.74498  0.32564  1.0000
  H   H2600     1.0  0.66454  0.63465  0.23424  1.0000
  Fe  Fe219     1.0  0.94321  0.52320  0.21954  1.0000
  H   H2601     1.0  0.96382  0.49769  0.47806  1.0000
  H   H2602     1.0  0.64030  0.65954  0.26012  1.0000
  S   S441      1.0  0.93213  0.54929  0.25056  1.0000
  C   C1523     1.0  0.67585  0.56158  0.17088  1.0000
  C   C1524     1.0  0.64659  0.53963  0.22637  1.0000
  C   C1525     1.0  0.83653  0.72988  0.17798  1.0000
  H   H2603     1.0  0.92899  0.56686  0.09450  1.0000
  H   H2604     1.0  0.64078  0.67494  0.40483  1.0000
  C   C1526     1.0  0.92397  0.51736  0.03011  1.0000
  C   C1527     1.0  0.71907  0.72557  0.04230  1.0000
  H   H2605     1.0  0.84045  0.68296  0.40952  1.0000
  H   H2606     1.0  0.95013  0.63294  0.09991  1.0000
  H   H2607     1.0  0.70439  0.73647  0.27794  1.0000
  H   H2608     1.0  0.69974  0.70837  0.49646  1.0000
  H   H2609     1.0  0.90548  0.56138  0.08416  1.0000
  H   H2610     1.0  0.72061  0.66357  0.08976  1.0000
  C   C1528     1.0  0.92480  0.50547  0.06804  1.0000
  H   H2611     1.0  0.94901  0.58949  0.09149  1.0000
  H   H2612     1.0  0.90438  0.59491  0.09420  1.0000
  H   H2613     1.0  0.65128  0.58713  0.30637  1.0000
  H   H2614     1.0  0.81018  0.73076  0.33525  1.0000
  C   C1529     1.0  0.87601  0.62995  0.13336  1.0000
  C   C1530     1.0  0.89297  0.62611  0.15340  1.0000
  C   C1531     1.0  0.89761  0.60762  0.16729  1.0000
  C   C1532     1.0  0.88522  0.59278  0.16145  1.0000
  C   C1533     1.0  0.86809  0.59668  0.14211  1.0000
  C   C1534     1.0  0.86351  0.61517  0.12797  1.0000
  H   H2615     1.0  0.90264  0.63751  0.15798  1.0000
  H   H2616     1.0  0.91074  0.60485  0.18248  1.0000
  H   H2617     1.0  0.85842  0.58527  0.13760  1.0000
  H   H2618     1.0  0.85041  0.61795  0.11262  1.0000
  C   C1535     1.0  0.70227  0.70976  0.18404  1.0000
  C   C1536     1.0  0.68603  0.71468  0.20391  1.0000
  H   H2619     1.0  0.68804  0.69416  0.02711  1.0000
  H   H2620     1.0  0.75094  0.70397  0.42147  1.0000
  S   S442      1.0  0.67939  0.61556  0.30342  1.0000
  C   C1537     1.0  0.70982  0.72287  0.15846  1.0000
  H   H2621     1.0  0.68018  0.70464  0.22377  1.0000
  H   H2622     1.0  0.83990  0.67209  0.36287  1.0000
  H   H2623     1.0  0.72270  0.71937  0.14407  1.0000
  H   H2624     1.0  0.64083  0.55395  0.23412  1.0000
  C   C1538     1.0  0.83964  0.73163  0.46343  1.0000
  H   H2625     1.0  0.66199  0.53904  0.22963  1.0000
  H   H2626     1.0  0.90135  0.49848  0.34354  1.0000
  H   H2627     1.0  0.74105  0.66849  0.06369  1.0000
  C   C1539     1.0  0.95154  0.58551  0.01723  1.0000
  H   H2628     1.0  0.77562  0.74461  0.07857  1.0000
  C   C1540     1.0  0.76368  0.66448  0.39496  1.0000
  C   C1541     1.0  0.75150  0.65539  0.41966  1.0000
  C   C1542     1.0  0.75733  0.65058  0.45772  1.0000
  C   C1543     1.0  0.77524  0.65507  0.47137  1.0000
  C   C1544     1.0  0.78727  0.66449  0.44688  1.0000
  C   C1545     1.0  0.78155  0.66904  0.40869  1.0000
  H   H2629     1.0  0.73775  0.65174  0.40925  1.0000
  H   H2630     1.0  0.74801  0.64325  0.47656  1.0000
  H   H2631     1.0  0.80109  0.66802  0.45721  1.0000
  H   H2632     1.0  0.79100  0.67611  0.38974  1.0000
  S   S443      1.0  0.96526  0.53953  0.08996  1.0000
  H   H2633     1.0  0.93722  0.52494  0.02639  1.0000
  H   H2634     1.0  0.72514  0.73715  0.40917  1.0000
  C   C1546     1.0  0.81713  0.73235  0.17640  1.0000
  H   H2635     1.0  0.64128  0.52958  0.24825  1.0000
  H   H2636     1.0  0.72749  0.73099  0.06730  1.0000
  H   H2637     1.0  0.70850  0.71347  0.36964  1.0000
  C   C1547     1.0  0.90051  0.62705  0.03135  1.0000
  H   H2638     1.0  0.75304  0.70802  0.05546  1.0000
  N   N110      1.0  0.85274  0.70625  0.32379  1.0000
  C   C1548     1.0  0.85648  0.68863  0.29931  1.0000
  C   C1549     1.0  0.85365  0.70004  0.36574  1.0000
  C   C1550     1.0  0.86789  0.72021  0.31581  1.0000
  H   H2639     1.0  0.76737  0.69988  0.45999  1.0000
  C   C1551     1.0  0.85981  0.69217  0.25567  1.0000
  S   S444      1.0  0.97033  0.53600  0.20403  1.0000
  C   C1552     1.0  0.95938  0.54422  0.35220  1.0000
  H   H2640     1.0  0.86899  0.68041  0.31065  1.0000
  H   H2641     1.0  0.84474  0.67863  0.30071  1.0000
  H   H2642     1.0  0.85258  0.71231  0.38597  1.0000
  H   H2643     1.0  0.65089  0.57952  0.11169  1.0000
  H   H2644     1.0  0.88162  0.71247  0.31296  1.0000
  H   H2645     1.0  0.75043  0.68943  0.02094  1.0000
  H   H2646     1.0  0.91294  0.52874  0.03267  1.0000
  C   C1553     1.0  0.87139  0.73593  0.34624  1.0000
  H   H2647     1.0  0.86075  0.67817  0.24037  1.0000
  H   H2648     1.0  0.84834  0.70065  0.24143  1.0000
  H   H2649     1.0  0.87318  0.69930  0.25088  1.0000
  C   C1554     1.0  0.75444  0.70803  0.45190  1.0000
  H   H2650     1.0  0.67213  0.53239  0.15175  1.0000
  N   N111      1.0  0.92672  0.60410  0.05827  1.0000
  H   H2651     1.0  0.88809  0.62050  0.04405  1.0000
  H   H2652     1.0  0.86522  0.72754  0.28749  1.0000
  H   H2653     1.0  0.86209  0.73819  0.20654  1.0000
  C   C1555     1.0  0.91790  0.62402  0.05793  1.0000
  H   H2654     1.0  0.82916  0.72994  0.36807  1.0000
  H   H2655     1.0  0.86284  0.74025  0.42973  1.0000
  S   S445      1.0  0.83445  0.66180  0.02532  1.0000
  C   C1556     1.0  0.64521  0.65194  0.34150  1.0000
  H   H2656     1.0  0.93620  0.51157  0.08609  1.0000
  H   H2657     1.0  0.91375  0.62842  0.08770  1.0000
  C   C1557     1.0  0.91162  0.59032  0.06742  1.0000
  H   H2658     1.0  0.86755  0.69325  0.37288  1.0000
  C   C1558     1.0  0.67181  0.73229  0.41920  1.0000
  H   H2659     1.0  0.94547  0.54894  0.36281  1.0000
  C   C1559     1.0  0.91754  0.56915  0.07290  1.0000
  H   H2660     1.0  0.70604  0.69375  0.07706  1.0000
  C   C1560     1.0  0.63937  0.62007  0.21859  1.0000
  H   H2661     1.0  0.83403  0.72022  0.28194  1.0000
  H   H2662     1.0  0.68997  0.55559  0.17855  1.0000
  H   H2663     1.0  0.71912  0.66494  0.03799  1.0000
  C   C1561     1.0  0.83861  0.68604  0.37800  1.0000
  C   C1562     1.0  0.83380  0.71450  0.31200  1.0000
  C   C1563     1.0  0.84706  0.74000  0.20557  1.0000
  H   H2664     1.0  0.96181  0.50122  0.04757  1.0000
  H   H2665     1.0  0.66410  0.73593  0.21171  1.0000
  C   C1564     1.0  0.94124  0.60344  0.09050  1.0000
  S   S446      1.0  0.94610  0.57450  0.17516  1.0000
  S   S447      1.0  0.67851  0.67023  0.27440  1.0000
  H   H2666     1.0  0.90064  0.59037  0.04419  1.0000
  H   H2667     1.0  0.66870  0.74631  0.28033  1.0000
  H   H2668     1.0  0.72202  0.73496  0.01733  1.0000
  C   C1565     1.0  0.65974  0.61142  0.27328  1.0000
  H   H2669     1.0  0.72619  0.71236  0.46602  1.0000
  C   C1566     1.0  0.65543  0.62319  0.24143  1.0000
  H   H2670     1.0  0.69369  0.72232  0.07748  1.0000
  H   H2671     1.0  0.63879  0.54550  0.08975  1.0000
  C   C1567     1.0  0.70083  0.72234  0.38969  1.0000
  C   C1568     1.0  0.64800  0.59630  0.28175  1.0000
  H   H2672     1.0  0.79326  0.74619  0.20256  1.0000
  N   N112      1.0  0.77343  0.68694  0.21307  1.0000
  C   C1569     1.0  0.76237  0.70519  0.20424  1.0000
  C   C1570     1.0  0.77704  0.67695  0.17494  1.0000
  C   C1571     1.0  0.79159  0.69232  0.23282  1.0000
  C   C1572     1.0  0.76217  0.67490  0.23960  1.0000
  C   C1573     1.0  0.75846  0.71855  0.23909  1.0000
  C   C1574     1.0  0.75974  0.67116  0.15087  1.0000
  C   C1575     1.0  0.80896  0.67934  0.22541  1.0000
  C   C1576     1.0  0.77082  0.65518  0.25046  1.0000
  H   H2673     1.0  0.76952  0.71374  0.18205  1.0000
  H   H2674     1.0  0.74850  0.70210  0.19145  1.0000
  H   H2675     1.0  0.78559  0.66361  0.17895  1.0000
  H   H2676     1.0  0.78533  0.68618  0.15603  1.0000
  H   H2677     1.0  0.79582  0.70678  0.22355  1.0000
  H   H2678     1.0  0.78992  0.69342  0.26486  1.0000
  H   H2679     1.0  0.75969  0.68241  0.26753  1.0000
  H   H2680     1.0  0.74805  0.67266  0.22693  1.0000
  H   H2681     1.0  0.92107  0.56240  0.04482  1.0000
  C   C1577     1.0  0.95595  0.61909  0.08904  1.0000
  H   H2682     1.0  0.77133  0.72271  0.25486  1.0000
  H   H2683     1.0  0.76450  0.66326  0.12467  1.0000
  H   H2684     1.0  0.75075  0.66143  0.16696  1.0000
  H   H2685     1.0  0.75145  0.68375  0.14024  1.0000
  H   H2686     1.0  0.81430  0.68182  0.19584  1.0000
  H   H2687     1.0  0.80655  0.66392  0.22913  1.0000
  H   H2688     1.0  0.82018  0.68314  0.24628  1.0000
  H   H2689     1.0  0.77307  0.64593  0.22476  1.0000
  H   H2690     1.0  0.76114  0.64764  0.26949  1.0000
  H   H2691     1.0  0.78390  0.65655  0.26766  1.0000
  H   H2692     1.0  0.93440  0.60479  0.11921  1.0000
  N   N113      1.0  0.64447  0.54572  0.15197  1.0000
  C   C1578     1.0  0.72077  0.69276  0.06830  1.0000
  C   C1579     1.0  0.64023  0.53296  0.18577  1.0000
  H   H2693     1.0  0.73414  0.68823  0.47144  1.0000
  H   H2694     1.0  0.65687  0.73118  0.42147  1.0000
  H   H2695     1.0  0.96441  0.59153  0.03000  1.0000
  H   H2696     1.0  0.94901  0.57177  0.03164  1.0000
  H   H2697     1.0  0.74870  0.71215  0.25962  1.0000
  H   H2698     1.0  0.66939  0.56582  0.19855  1.0000
  H   H2699     1.0  0.72861  0.69794  0.09421  1.0000
  H   H2700     1.0  0.91176  0.50876  0.08409  1.0000
  H   H2701     1.0  0.67828  0.57460  0.15349  1.0000
  C   C1580     1.0  0.66525  0.54665  0.14631  1.0000
  C   C1581     1.0  0.68153  0.72082  0.39243  1.0000
  C   C1582     1.0  0.82220  0.73709  0.47786  1.0000
  C   C1583     1.0  0.72576  0.67127  0.06406  1.0000
  C   C1584     1.0  0.64147  0.51622  0.10669  1.0000
  H   H2702     1.0  0.95989  0.54892  0.32156  1.0000
  C   C1585     1.0  0.96147  0.52228  0.35594  1.0000
  Fe  Fe220     1.0  0.83465  0.69385  0.02075  1.0000
  H   H2703     1.0  0.75153  0.73195  0.22812  1.0000
  C   C1586     1.0  0.80829  0.74458  0.20301  1.0000
  H   H2704     1.0  0.82318  0.70323  0.31010  1.0000
  H   H2705     1.0  0.66810  0.55013  0.11547  1.0000
  H   H2706     1.0  0.68918  0.72687  0.02618  1.0000
  Fe  Fe221     1.0  0.95547  0.54630  0.15004  1.0000
  C   C1587     1.0  0.67695  0.73238  0.19709  1.0000
  C   C1588     1.0  0.68140  0.74530  0.44294  1.0000
  H   H2707     1.0  0.64993  0.62233  0.36200  1.0000
  H   H2708     1.0  0.96133  0.62114  0.05946  1.0000
  C   C1589     1.0  0.84914  0.74424  0.43998  1.0000
  H   H2709     1.0  0.95740  0.51875  0.38583  1.0000
  H   H2710     1.0  0.87841  0.72985  0.37263  1.0000
  H   H2711     1.0  0.92805  0.63478  0.04868  1.0000
  H   H2712     1.0  0.84346  0.72035  0.15774  1.0000
  C   C1590     1.0  0.93479  0.59993  0.01883  1.0000
  C   C1591     1.0  0.82565  0.73098  0.33680  1.0000
  C   C1592     1.0  0.69842  0.72984  0.05137  1.0000
  H   H2713     1.0  0.96997  0.55177  0.36981  1.0000
  H   H2714     1.0  0.91686  0.50973  0.28416  1.0000
  C   C1593     1.0  0.70082  0.74069  0.15196  1.0000
  H   H2715     1.0  0.65102  0.64601  0.31429  1.0000
  H   H2716     1.0  0.64076  0.57262  0.18357  1.0000
  C   C1594     1.0  0.68423  0.74534  0.17089  1.0000
  H   H2717     1.0  0.65682  0.51410  0.10559  1.0000
  C   C1595     1.0  0.65079  0.63717  0.37331  1.0000
  H   H2718     1.0  0.95042  0.51595  0.33718  1.0000
  H   H2719     1.0  0.75691  0.72361  0.45167  1.0000
  H   H2720     1.0  0.69657  0.74539  0.05744  1.0000
  S   S448      1.0  0.85023  0.70942  0.47493  1.0000
  H   H2721     1.0  0.96795  0.61497  0.10846  1.0000
  H   H2722     1.0  0.81478  0.72745  0.49589  1.0000
  H   H2723     1.0  0.66536  0.63958  0.38319  1.0000
  H   H2724     1.0  0.90461  0.51667  0.49559  1.0000
  H   H2725     1.0  0.89709  0.64263  0.02913  1.0000
  H   H2726     1.0  0.68247  0.74586  0.32288  1.0000
  H   H2727     1.0  0.64683  0.51850  0.18222  1.0000
  H   H2728     1.0  0.85863  0.74408  0.35422  1.0000
  H   H2729     1.0  0.64235  0.63850  0.39968  1.0000
  H   H2730     1.0  0.65333  0.66509  0.34631  1.0000
  H   H2731     1.0  0.88098  0.74644  0.33397  1.0000
  H   H2732     1.0  0.65038  0.74505  0.33984  1.0000
  H   H2733     1.0  0.93726  0.51840  0.48827  1.0000
  H   H2734     1.0  0.79545  0.74672  0.04896  1.0000
  Fe  Fe222     1.0  0.68099  0.69230  0.85758  1.0000
  S   S449      1.0  0.70574  0.69777  0.82088  1.0000
  S   S450      1.0  0.66529  0.71414  0.89326  1.0000
  Fe  Fe223     1.0  0.68054  0.65002  0.83776  1.0000
  S   S451      1.0  0.70571  0.65170  0.80046  1.0000
  H   H2735     1.0  0.66725  0.63060  0.66979  1.0000
  Fe  Fe224     1.0  0.71755  0.67055  0.84715  1.0000
  S   S452      1.0  0.74839  0.66996  0.86228  1.0000
  Fe  Fe225     1.0  0.69197  0.67866  0.77729  1.0000
  S   S453      1.0  0.69284  0.68193  0.71235  1.0000
  S   S454      1.0  0.69370  0.66636  0.88710  1.0000
  S   S455      1.0  0.66592  0.67572  0.81135  1.0000
  Fe  Fe226     1.0  0.84695  0.66108  0.58015  1.0000
  S   S456      1.0  0.81779  0.66069  0.60377  1.0000
  S   S457      1.0  0.87480  0.64642  0.59584  1.0000
  H   H2736     1.0  0.92091  0.64329  0.66823  1.0000
  H   H2737     1.0  0.65773  0.59934  0.71682  1.0000
  C   C1596     1.0  0.93498  0.50000  0.85709  1.0000
  Fe  Fe227     1.0  0.81832  0.69277  0.60075  1.0000
  S   S458      1.0  0.80307  0.71272  0.64182  1.0000
  S   S459      1.0  0.83726  0.66042  0.51762  1.0000
  H   H2738     1.0  0.87506  0.64102  0.78876  1.0000
  S   S460      1.0  0.84816  0.69325  0.58272  1.0000
  C   C1597     1.0  0.74954  0.73797  0.65565  1.0000
  Fe  Fe228     1.0  0.92655  0.56003  0.69477  1.0000
  S   S461      1.0  0.93447  0.53161  0.66857  1.0000
  S   S462      1.0  0.89672  0.57170  0.69140  1.0000
  H   H2739     1.0  0.89640  0.60979  0.78576  1.0000
  C   C1598     1.0  0.80130  0.71078  0.90773  1.0000
  C   C1599     1.0  0.77026  0.65754  0.98574  1.0000
  Fe  Fe229     1.0  0.94959  0.52505  0.72463  1.0000
  H   H2740     1.0  0.95150  0.51820  0.53051  1.0000
  N   N114      1.0  0.90640  0.63088  0.74487  1.0000
  S   S463      1.0  0.93931  0.55213  0.75309  1.0000
  H   H2741     1.0  0.90192  0.54158  0.53589  1.0000
  C   C1600     1.0  0.91423  0.63930  0.81704  1.0000
  C   C1601     1.0  0.93280  0.60595  0.76205  1.0000
  S   S464      1.0  0.95175  0.57480  0.67325  1.0000
  H   H2742     1.0  0.92383  0.59462  0.99854  1.0000
  H   H2743     1.0  0.72469  0.55443  0.89168  1.0000
  H   H2744     1.0  0.91665  0.62382  0.82189  1.0000
  C   C1602     1.0  0.81724  0.72423  0.67603  1.0000
  C   C1603     1.0  0.83577  0.71816  0.68232  1.0000
  C   C1604     1.0  0.84707  0.72795  0.70888  1.0000
  C   C1605     1.0  0.81000  0.74002  0.69655  1.0000
  H   H2745     1.0  0.76809  0.71340  0.99198  1.0000
  H   H2746     1.0  0.84140  0.70595  0.66670  1.0000
  H   H2747     1.0  0.84995  0.70215  0.84184  1.0000
  H   H2748     1.0  0.92622  0.64651  0.83098  1.0000
  C   C1606     1.0  0.82415  0.70744  0.80669  1.0000
  H   H2749     1.0  0.80863  0.74449  0.57651  1.0000
  C   C1607     1.0  0.67877  0.73028  0.91990  1.0000
  C   C1608     1.0  0.87939  0.62366  0.61656  1.0000
  C   C1609     1.0  0.89769  0.61598  0.61530  1.0000
  C   C1610     1.0  0.90291  0.59943  0.63644  1.0000
  C   C1611     1.0  0.88992  0.59057  0.65955  1.0000
  C   C1612     1.0  0.87142  0.59779  0.65968  1.0000
  C   C1613     1.0  0.86612  0.61425  0.63811  1.0000
  H   H2750     1.0  0.90803  0.62322  0.59875  1.0000
  H   H2751     1.0  0.91714  0.59396  0.63585  1.0000
  H   H2752     1.0  0.86126  0.59094  0.67737  1.0000
  H   H2753     1.0  0.85201  0.62011  0.63942  1.0000
  C   C1614     1.0  0.68509  0.70400  0.69294  1.0000
  C   C1615     1.0  0.67437  0.71687  0.71489  1.0000
  H   H2754     1.0  0.86994  0.72899  0.56248  1.0000
  N   N115      1.0  0.74048  0.70632  0.52076  1.0000
  C   C1616     1.0  0.68446  0.72673  0.63941  1.0000
  C   C1617     1.0  0.68998  0.70886  0.65506  1.0000
  H   H2755     1.0  0.67058  0.71319  0.74414  1.0000
  H   H2756     1.0  0.90972  0.51753  0.58593  1.0000
  H   H2757     1.0  0.69829  0.69891  0.63806  1.0000
  C   C1618     1.0  0.72415  0.72403  0.72868  1.0000
  H   H2758     1.0  0.94363  0.59714  0.74725  1.0000
  H   H2759     1.0  0.93778  0.51880  0.80800  1.0000
  C   C1619     1.0  0.91155  0.65281  0.68545  1.0000
  H   H2760     1.0  0.70417  0.72437  0.88927  1.0000
  C   C1620     1.0  0.84689  0.73878  0.92259  1.0000
  H   H2761     1.0  0.74706  0.68729  0.59706  1.0000
  C   C1621     1.0  0.75635  0.66535  0.91015  1.0000
  C   C1622     1.0  0.74448  0.65861  0.93842  1.0000
  H   H2762     1.0  0.86145  0.72329  0.71356  1.0000
  S   S465      1.0  0.66433  0.62346  0.85041  1.0000
  C   C1623     1.0  0.78202  0.66462  0.95762  1.0000
  C   C1624     1.0  0.77515  0.66810  0.91974  1.0000
  H   H2763     1.0  0.72997  0.65648  0.93125  1.0000
  H   H2764     1.0  0.70438  0.56911  0.83589  1.0000
  H   H2765     1.0  0.79652  0.66698  0.96484  1.0000
  H   H2766     1.0  0.78447  0.67288  0.89774  1.0000
  C   C1625     1.0  0.91254  0.64567  0.77405  1.0000
  H   H2767     1.0  0.73500  0.71275  0.72311  1.0000
  C   C1626     1.0  0.75301  0.71693  0.99558  1.0000
  H   H2768     1.0  0.74486  0.73692  0.76376  1.0000
  C   C1627     1.0  0.66072  0.61026  0.77515  1.0000
  S   S466      1.0  0.80724  0.69487  0.53973  1.0000
  H   H2769     1.0  0.70729  0.72921  0.52305  1.0000
  H   H2770     1.0  0.67403  0.61657  0.77001  1.0000
  H   H2771     1.0  0.82829  0.70925  0.88429  1.0000
  C   C1628     1.0  0.81417  0.70541  0.87385  1.0000
  C   C1629     1.0  0.91637  0.54082  0.54801  1.0000
  H   H2772     1.0  0.90327  0.66155  0.66395  1.0000
  H   H2773     1.0  0.74077  0.72558  0.66102  1.0000
  C   C1630     1.0  0.84036  0.73053  0.95654  1.0000
  H   H2774     1.0  0.96942  0.53309  0.88782  1.0000
  H   H2775     1.0  0.68539  0.58474  0.85280  1.0000
  N   N116      1.0  0.72024  0.60234  0.87665  1.0000
  C   C1631     1.0  0.73332  0.61885  0.87387  1.0000
  C   C1632     1.0  0.70554  0.60826  0.90541  1.0000
  C   C1633     1.0  0.71113  0.59968  0.83723  1.0000
  C   C1634     1.0  0.73148  0.58469  0.88882  1.0000
  C   C1635     1.0  0.74830  0.61729  0.84236  1.0000
  C   C1636     1.0  0.71259  0.61139  0.94747  1.0000
  C   C1637     1.0  0.69730  0.58334  0.83293  1.0000
  C   C1638     1.0  0.72072  0.56801  0.90661  1.0000
  H   H2776     1.0  0.72539  0.63259  0.86868  1.0000
  H   H2777     1.0  0.74112  0.62086  0.90173  1.0000
  H   H2778     1.0  0.69409  0.59807  0.90668  1.0000
  H   H2779     1.0  0.69837  0.62187  0.89593  1.0000
  H   H2780     1.0  0.70354  0.61308  0.82809  1.0000
  H   H2781     1.0  0.72172  0.59667  0.81476  1.0000
  H   H2782     1.0  0.73930  0.57875  0.86370  1.0000
  H   H2783     1.0  0.74242  0.58849  0.91069  1.0000
  H   H2784     1.0  0.75865  0.62858  0.84754  1.0000
  H   H2785     1.0  0.75608  0.60338  0.84291  1.0000
  H   H2786     1.0  0.70038  0.61383  0.96638  1.0000
  H   H2787     1.0  0.72066  0.59887  0.95917  1.0000
  H   H2788     1.0  0.72109  0.62431  0.95006  1.0000
  H   H2789     1.0  0.80309  0.72581  0.91699  1.0000
  H   H2790     1.0  0.69113  0.58384  0.80309  1.0000
  C   C1639     1.0  0.86773  0.74384  0.57338  1.0000
  H   H2791     1.0  0.85578  0.73045  0.90353  1.0000
  H   H2792     1.0  0.70537  0.56942  0.90464  1.0000
  H   H2793     1.0  0.72487  0.56596  0.93760  1.0000
  H   H2794     1.0  0.92065  0.50944  0.00326  1.0000
  Fe  Fe230     1.0  0.83692  0.69239  0.52175  1.0000
  C   C1640     1.0  0.81022  0.73599  0.83707  1.0000
  H   H2795     1.0  0.91700  0.55183  0.57130  1.0000
  C   C1641     1.0  0.79107  0.70742  0.82015  1.0000
  H   H2796     1.0  0.66656  0.64201  0.71618  1.0000
  H   H2797     1.0  0.92619  0.65150  0.76576  1.0000
  H   H2798     1.0  0.88665  0.65139  0.71813  1.0000
  H   H2799     1.0  0.89143  0.63085  0.68982  1.0000
  H   H2800     1.0  0.76684  0.74625  0.51248  1.0000
  H   H2801     1.0  0.91834  0.60916  0.70734  1.0000
  C   C1642     1.0  0.66832  0.73445  0.69873  1.0000
  H   H2802     1.0  0.79150  0.69148  0.81825  1.0000
  Fe  Fe231     1.0  0.96072  0.54568  0.65147  1.0000
  C   C1643     1.0  0.76608  0.73208  0.52689  1.0000
  C   C1644     1.0  0.70484  0.71369  0.52501  1.0000
  C   C1645     1.0  0.89161  0.61805  0.75992  1.0000
  H   H2803     1.0  0.92641  0.54485  0.52561  1.0000
  H   H2804     1.0  0.81452  0.68951  0.87125  1.0000
  H   H2805     1.0  0.92349  0.59571  0.77580  1.0000
  H   H2806     1.0  0.92969  0.51120  0.87595  1.0000
  C   C1646     1.0  0.84469  0.71135  0.81758  1.0000
  H   H2807     1.0  0.86442  0.61814  0.78687  1.0000
  H   H2808     1.0  0.85351  0.70784  0.79224  1.0000
  H   H2809     1.0  0.71593  0.72678  0.70192  1.0000
  C   C1647     1.0  0.89807  0.64117  0.70978  1.0000
  C   C1648     1.0  0.92276  0.61872  0.73145  1.0000
  H   H2810     1.0  0.76998  0.71081  0.77431  1.0000
  H   H2811     1.0  0.72343  0.68617  0.98382  1.0000
  H   H2812     1.0  0.86478  0.63224  0.74389  1.0000
  H   H2813     1.0  0.90250  0.65816  0.77369  1.0000
  H   H2814     1.0  0.72314  0.70472  0.57156  1.0000
  C   C1649     1.0  0.87300  0.62820  0.77044  1.0000
  H   H2815     1.0  0.93382  0.62771  0.71954  1.0000
  H   H2816     1.0  0.73702  0.73681  0.51102  1.0000
  H   H2817     1.0  0.71524  0.70974  0.97412  1.0000
  S   S467      1.0  0.84589  0.70632  0.96599  1.0000
  H   H2818     1.0  0.90178  0.64431  0.83331  1.0000
  H   H2819     1.0  0.93367  0.52319  0.58478  1.0000
  H   H2820     1.0  0.76262  0.70693  0.59028  1.0000
  Fe  Fe232     1.0  0.96514  0.56490  0.72974  1.0000
  H   H2821     1.0  0.83972  0.73750  0.58835  1.0000
  C   C1650     1.0  0.66089  0.64278  0.68609  1.0000
  H   H2822     1.0  0.82322  0.69172  0.80192  1.0000
  H   H2823     1.0  0.91982  0.66273  0.70345  1.0000
  C   C1651     1.0  0.82901  0.74143  0.98127  1.0000
  H   H2824     1.0  0.82176  0.71415  0.77767  1.0000
  H   H2825     1.0  0.84698  0.72660  0.82449  1.0000
  H   H2826     1.0  0.78643  0.70803  0.90168  1.0000
  Fe  Fe233     1.0  0.80832  0.66294  0.54110  1.0000
  H   H2827     1.0  0.68609  0.69903  0.97660  1.0000
  C   C1652     1.0  0.75888  0.69250  0.58015  1.0000
  H   H2828     1.0  0.77100  0.68271  0.58698  1.0000
  H   H2829     1.0  0.80552  0.70185  0.93328  1.0000
  C   C1653     1.0  0.63946  0.64143  0.68414  1.0000
  N   N117      1.0  0.80959  0.71447  0.83496  1.0000
  C   C1654     1.0  0.75153  0.65429  0.97589  1.0000
  H   H2830     1.0  0.88828  0.60686  0.73799  1.0000
  S   S468      1.0  0.78218  0.64901  0.51919  1.0000
  H   H2831     1.0  0.74218  0.62007  0.81299  1.0000
  C   C1655     1.0  0.83994  0.74393  0.72887  1.0000
  H   H2832     1.0  0.94037  0.61451  0.78401  1.0000
  H   H2833     1.0  0.74129  0.73040  0.56021  1.0000
  H   H2834     1.0  0.77960  0.71053  0.84037  1.0000
  C   C1656     1.0  0.78456  0.71513  0.78000  1.0000
  C   C1657     1.0  0.69758  0.73272  0.91186  1.0000
  H   H2835     1.0  0.75024  0.67700  0.52926  1.0000
  C   C1658     1.0  0.94153  0.50936  0.51370  1.0000
  H   H2836     1.0  0.79300  0.70885  0.75624  1.0000
  H   H2837     1.0  0.65977  0.74428  0.71552  1.0000
  C   C1659     1.0  0.75473  0.69179  0.53606  1.0000
  H   H2838     1.0  0.65588  0.73913  0.95585  1.0000
  C   C1660     1.0  0.72223  0.70206  0.53973  1.0000
  C   C1661     1.0  0.65282  0.61166  0.81184  1.0000
  C   C1662     1.0  0.70781  0.74629  0.93268  1.0000
  H   H2839     1.0  0.78224  0.73796  0.86616  1.0000
  H   H2840     1.0  0.78477  0.73093  0.77846  1.0000
  N   N118      1.0  0.92476  0.50485  0.53763  1.0000
  H   H2841     1.0  0.81209  0.74212  0.80760  1.0000
  C   C1663     1.0  0.65149  0.60046  0.74509  1.0000
  H   H2842     1.0  0.71899  0.68662  0.53641  1.0000
  H   H2843     1.0  0.77246  0.73398  0.55624  1.0000
  H   H2844     1.0  0.76820  0.69267  0.52134  1.0000
  H   H2845     1.0  0.76419  0.73985  0.71046  1.0000
  C   C1664     1.0  0.74534  0.72674  0.52997  1.0000
  C   C1665     1.0  0.67346  0.73947  0.66112  1.0000
  H   H2846     1.0  0.76269  0.73229  0.64282  1.0000
  H   H2847     1.0  0.68828  0.73047  0.61026  1.0000
  H   H2848     1.0  0.69426  0.67608  0.99226  1.0000
  C   C1666     1.0  0.67038  0.74113  0.94933  1.0000
  H   H2849     1.0  0.74609  0.71434  0.96708  1.0000
  C   C1667     1.0  0.71522  0.69831  0.99657  1.0000
  H   H2850     1.0  0.66553  0.65609  0.67222  1.0000
  H   H2851     1.0  0.77496  0.72205  0.51018  1.0000
  C   C1668     1.0  0.73276  0.74213  0.74574  1.0000
  H   H2852     1.0  0.90276  0.62151  0.00160  1.0000
  H   H2853     1.0  0.95460  0.58222  0.98641  1.0000
  H   H2854     1.0  0.64563  0.64826  0.76133  1.0000
  H   H2855     1.0  0.71403  0.71838  0.74937  1.0000
  H   H2856     1.0  0.82281  0.74029  0.85370  1.0000
  H   H2857     1.0  0.69330  0.71187  0.54559  1.0000
  C   C1669     1.0  0.92118  0.52101  0.56592  1.0000
  H   H2858     1.0  0.89503  0.50118  0.53041  1.0000
  H   H2859     1.0  0.87355  0.74428  0.60338  1.0000
  H   H2860     1.0  0.74247  0.64858  0.99739  1.0000
  H   H2861     1.0  0.65062  0.67559  0.72082  1.0000
  C   C1670     1.0  0.69490  0.69158  0.99915  1.0000
  H   H2862     1.0  0.93967  0.61324  0.00502  1.0000
  H   H2863     1.0  0.64766  0.69412  0.66546  1.0000
  C   C1671     1.0  0.93955  0.50432  0.81864  1.0000
  H   H2864     1.0  0.79580  0.74496  0.69113  1.0000
  H   H2865     1.0  0.63722  0.67415  0.64365  1.0000
  H   H2866     1.0  0.75194  0.73236  0.00306  1.0000
  C   C1672     1.0  0.79338  0.74687  0.85514  1.0000
  H   H2867     1.0  0.84174  0.74691  0.54152  1.0000
  H   H2868     1.0  0.82402  0.73514  0.00762  1.0000
  C   C1673     1.0  0.90750  0.50325  0.51222  1.0000
  Fe  Fe234     1.0  0.67021  0.81973  0.06612  1.0000
  H   H2869     1.0  0.68069  0.81230  0.26101  1.0000
  H   H2870     1.0  0.93636  0.94295  0.13099  1.0000
  Fe  Fe235     1.0  0.68347  0.78651  0.11750  1.0000
  S   S469      1.0  0.71253  0.78612  0.09522  1.0000
  H   H2871     1.0  0.77106  0.81354  0.10375  1.0000
  Fe  Fe236     1.0  0.71001  0.81797  0.09990  1.0000
  S   S470      1.0  0.73523  0.83340  0.12204  1.0000
  H   H2872     1.0  0.71444  0.77928  0.35108  1.0000
  H   H2873     1.0  0.92265  0.97733  0.08766  1.0000
  S   S471      1.0  0.68186  0.81818  0.12720  1.0000
  C   C1674     1.0  0.93797  0.98071  0.03503  1.0000
  H   H2874     1.0  0.75444  0.77182  0.08981  1.0000
  C   C1675     1.0  0.95018  0.99211  0.01481  1.0000
  Fe  Fe237     1.0  0.92379  0.91037  0.44940  1.0000
  S   S472      1.0  0.92245  0.93741  0.41417  1.0000
  S   S473      1.0  0.90148  0.88820  0.45530  1.0000
  Fe  Fe238     1.0  0.95101  0.92815  0.39460  1.0000
  H   H2875     1.0  0.65661  0.78918  0.27963  1.0000
  H   H2876     1.0  0.94705  0.92099  0.07988  1.0000
  S   S474      1.0  0.95144  0.90028  0.42639  1.0000
  H   H2877     1.0  0.80127  0.75972  0.48165  1.0000
  Fe  Fe239     1.0  0.82079  0.80012  0.37689  1.0000
  S   S475      1.0  0.84839  0.80394  0.34884  1.0000
  S   S476      1.0  0.81512  0.79109  0.43791  1.0000
  Fe  Fe240     1.0  0.79810  0.80936  0.30332  1.0000
  S   S477      1.0  0.82371  0.81460  0.26869  1.0000
  S   S478      1.0  0.76793  0.80538  0.28509  1.0000
  Fe  Fe241     1.0  0.83570  0.78830  0.29817  1.0000
  S   S479      1.0  0.85164  0.76526  0.26563  1.0000
  Fe  Fe242     1.0  0.83444  0.83005  0.32212  1.0000
  S   S480      1.0  0.84941  0.85817  0.31744  1.0000
  S   S481      1.0  0.80954  0.78198  0.32912  1.0000
  S   S482      1.0  0.80751  0.82727  0.35391  1.0000
  H   H2878     1.0  0.66555  0.80628  0.22149  1.0000
  C   C1676     1.0  0.76392  0.79415  0.40171  1.0000
  H   H2879     1.0  0.73256  0.81075  0.37676  1.0000
  H   H2880     1.0  0.75588  0.83888  0.43971  1.0000
  H   H2881     1.0  0.95978  0.94245  0.07928  1.0000
  H   H2882     1.0  0.93247  0.96805  0.22742  1.0000
  C   C1677     1.0  0.67667  0.80046  0.24145  1.0000
  C   C1678     1.0  0.88680  0.88031  0.41687  1.0000
  C   C1679     1.0  0.88297  0.89150  0.38389  1.0000
  C   C1680     1.0  0.87130  0.88464  0.35389  1.0000
  C   C1681     1.0  0.86334  0.86657  0.35657  1.0000
  C   C1682     1.0  0.86704  0.85546  0.38971  1.0000
  C   C1683     1.0  0.87866  0.86235  0.41974  1.0000
  H   H2883     1.0  0.88882  0.90553  0.38172  1.0000
  H   H2884     1.0  0.86831  0.89341  0.32856  1.0000
  H   H2885     1.0  0.86093  0.84158  0.39227  1.0000
  H   H2886     1.0  0.88137  0.85367  0.44532  1.0000
  C   C1684     1.0  0.74419  0.82583  0.16759  1.0000
  C   C1685     1.0  0.76071  0.83354  0.18246  1.0000
  C   C1686     1.0  0.76836  0.82722  0.21830  1.0000
  C   C1687     1.0  0.75936  0.81330  0.23950  1.0000
  C   C1688     1.0  0.74285  0.80563  0.22461  1.0000
  C   C1689     1.0  0.73531  0.81179  0.18870  1.0000
  H   H2887     1.0  0.76761  0.84442  0.16622  1.0000
  H   H2888     1.0  0.78104  0.83328  0.22971  1.0000
  H   H2889     1.0  0.73591  0.79485  0.24090  1.0000
  H   H2890     1.0  0.72258  0.80579  0.17746  1.0000
  C   C1690     1.0  0.75292  0.80445  0.46701  1.0000
  C   C1691     1.0  0.75778  0.77324  0.40548  1.0000
  N   N119      1.0  0.68248  0.77297  0.29120  1.0000
  H   H2891     1.0  0.69509  0.79883  0.31231  1.0000
  H   H2892     1.0  0.77859  0.79268  0.02657  1.0000
  H   H2893     1.0  0.92213  0.94995  0.19702  1.0000
  C   C1692     1.0  0.69967  0.76735  0.26860  1.0000
  C   C1693     1.0  0.75973  0.83699  0.37802  1.0000
  S   S483      1.0  0.71310  0.76435  0.46506  1.0000
  H   H2894     1.0  0.74334  0.79272  0.47360  1.0000
  H   H2895     1.0  0.69614  0.76358  0.36453  1.0000
  H   H2896     1.0  0.74575  0.75381  0.14359  1.0000
  C   C1694     1.0  0.70064  0.74713  0.43916  1.0000
  C   C1695     1.0  0.84124  0.76225  0.43071  1.0000
  H   H2897     1.0  0.69628  0.78658  0.38426  1.0000
  H   H2898     1.0  0.72670  0.79512  0.41459  1.0000
  H   H2899     1.0  0.96494  0.99533  0.33687  1.0000
  H   H2900     1.0  0.94486  0.92097  0.15043  1.0000
  S   S484      1.0  0.69839  0.82241  0.03927  1.0000
  H   H2901     1.0  0.66321  0.77329  0.24191  1.0000
  N   N120      1.0  0.93169  0.86568  0.32670  1.0000
  C   C1696     1.0  0.94386  0.85669  0.35850  1.0000
  C   C1697     1.0  0.94221  0.86369  0.28936  1.0000
  C   C1698     1.0  0.91381  0.85478  0.32427  1.0000
  C   C1699     1.0  0.92795  0.88633  0.33747  1.0000
  C   C1700     1.0  0.93438  0.85336  0.39775  1.0000
  H   H2902     1.0  0.74733  0.81690  0.48379  1.0000
  C   C1701     1.0  0.90215  0.85621  0.28625  1.0000
  C   C1702     1.0  0.91747  0.89916  0.30738  1.0000
  S   S485      1.0  0.96609  0.94373  0.44190  1.0000
  Fe  Fe243     1.0  0.69895  0.79027  0.03666  1.0000
  H   H2903     1.0  0.93371  0.86859  0.26391  1.0000
  H   H2904     1.0  0.72476  0.74918  0.26693  1.0000
  H   H2905     1.0  0.91678  0.83916  0.32841  1.0000
  H   H2906     1.0  0.90440  0.85913  0.34826  1.0000
  H   H2907     1.0  0.91970  0.88735  0.36433  1.0000
  H   H2908     1.0  0.94104  0.89353  0.34578  1.0000
  H   H2909     1.0  0.65625  0.82208  0.49297  1.0000
  H   H2910     1.0  0.75213  0.76983  0.43418  1.0000
  H   H2911     1.0  0.68856  0.79624  0.22287  1.0000
  C   C1703     1.0  0.94946  0.93440  0.13676  1.0000
  H   H2912     1.0  0.74713  0.76987  0.38287  1.0000
  H   H2913     1.0  0.65918  0.76703  0.35746  1.0000
  H   H2914     1.0  0.89823  0.87104  0.27795  1.0000
  H   H2915     1.0  0.88887  0.84874  0.29042  1.0000
  H   H2916     1.0  0.90926  0.84877  0.26195  1.0000
  H   H2917     1.0  0.90219  0.89874  0.31116  1.0000
  H   H2918     1.0  0.92086  0.89582  0.27699  1.0000
  H   H2919     1.0  0.92170  0.91419  0.31165  1.0000
  C   C1704     1.0  0.71163  0.75007  0.28345  1.0000
  C   C1705     1.0  0.82412  0.76794  0.44620  1.0000
  H   H2920     1.0  0.79046  0.77615  0.16881  1.0000
  H   H2921     1.0  0.86269  0.83440  0.02683  1.0000
  H   H2922     1.0  0.71554  0.75110  0.31454  1.0000
  H   H2923     1.0  0.81187  0.76461  0.25001  1.0000
  H   H2924     1.0  0.76600  0.82767  0.35557  1.0000
  H   H2925     1.0  0.67386  0.75424  0.46335  1.0000
  H   H2926     1.0  0.96678  0.98764  0.38716  1.0000
  H   H2927     1.0  0.80059  0.76022  0.11443  1.0000
  H   H2928     1.0  0.70665  0.75075  0.13227  1.0000
  H   H2929     1.0  0.94506  0.84823  0.41939  1.0000
  C   C1706     1.0  0.77887  0.80216  0.08750  1.0000
  C   C1707     1.0  0.65570  0.75906  0.33056  1.0000
  H   H2930     1.0  0.77057  0.74944  0.14394  1.0000
  H   H2931     1.0  0.77561  0.76222  0.04034  1.0000
  C   C1708     1.0  0.95275  0.94806  0.20185  1.0000
  C   C1709     1.0  0.76163  0.82811  0.41896  1.0000
  C   C1710     1.0  0.75946  0.76063  0.14725  1.0000
  C   C1711     1.0  0.73307  0.80913  0.40892  1.0000
  C   C1712     1.0  0.68728  0.78657  0.32362  1.0000
  C   C1713     1.0  0.95739  0.92939  0.09655  1.0000
  H   H2932     1.0  0.94951  0.93412  0.21521  1.0000
  C   C1714     1.0  0.76959  0.80082  0.04696  1.0000
  C   C1715     1.0  0.93233  0.98606  0.07245  1.0000
  H   H2933     1.0  0.71800  0.82226  0.45788  1.0000
  H   H2934     1.0  0.76316  0.79735  0.37011  1.0000
  C   C1716     1.0  0.78417  0.75512  0.06342  1.0000
  H   H2935     1.0  0.95473  0.97377  0.35215  1.0000
  H   H2936     1.0  0.74508  0.84062  0.36962  1.0000
  H   H2937     1.0  0.75157  0.78887  0.12708  1.0000
  H   H2938     1.0  0.80598  0.81391  0.14111  1.0000
  H   H2939     1.0  0.95615  0.86558  0.36515  1.0000
  H   H2940     1.0  0.81778  0.79091  0.13261  1.0000
  H   H2941     1.0  0.79290  0.80793  0.08245  1.0000
  H   H2942     1.0  0.76792  0.81550  0.03481  1.0000
  H   H2943     1.0  0.77854  0.79858  0.16651  1.0000
  Fe  Fe244     1.0  0.93759  0.95078  0.46497  1.0000
  S   S486      1.0  0.64188  0.83437  0.05539  1.0000
  S   S487      1.0  0.66993  0.78776  0.05852  1.0000
  C   C1717     1.0  0.77206  0.79911  0.48559  1.0000
  H   H2944     1.0  0.69582  0.76365  0.23812  1.0000
  N   N121      1.0  0.78030  0.78398  0.11110  1.0000
  C   C1718     1.0  0.67298  0.75537  0.30540  1.0000
  H   H2945     1.0  0.77685  0.82706  0.42598  1.0000
  C   C1719     1.0  0.71985  0.82452  0.42643  1.0000
  C   C1720     1.0  0.78840  0.78908  0.15044  1.0000
  H   H2946     1.0  0.81314  0.79898  0.18083  1.0000
  H   H2947     1.0  0.92798  0.86662  0.40967  1.0000
  C   C1721     1.0  0.65050  0.83655  0.49261  1.0000
  H   H2948     1.0  0.96702  0.87209  0.25901  1.0000
  H   H2949     1.0  0.78236  0.81037  0.48119  1.0000
  C   C1722     1.0  0.87641  0.83623  0.01311  1.0000
  C   C1723     1.0  0.66892  0.78336  0.26389  1.0000
  H   H2950     1.0  0.76740  0.85057  0.37768  1.0000
  N   N122      1.0  0.75287  0.80895  0.42417  1.0000
  S   S488      1.0  0.67260  0.76746  0.16371  1.0000
  H   H2951     1.0  0.93309  0.97023  0.17644  1.0000
  H   H2952     1.0  0.77907  0.79473  0.40848  1.0000
  H   H2953     1.0  0.70911  0.77963  0.26636  1.0000
  H   H2954     1.0  0.84876  0.77202  0.41291  1.0000
  C   C1724     1.0  0.79312  0.76929  0.09222  1.0000
  N   N123      1.0  0.96230  0.94506  0.16367  1.0000
  H   H2955     1.0  0.75539  0.79504  0.04746  1.0000
  H   H2956     1.0  0.72456  0.83925  0.42155  1.0000
  C   C1725     1.0  0.81880  0.75493  0.23009  1.0000
  H   H2957     1.0  0.94965  0.84248  0.34915  1.0000
  H   H2958     1.0  0.96585  0.98435  0.19380  1.0000
  H   H2959     1.0  0.77761  0.78527  0.47440  1.0000
  C   C1726     1.0  0.69937  0.77841  0.35735  1.0000
  H   H2960     1.0  0.80443  0.77643  0.07655  1.0000
  C   C1727     1.0  0.80743  0.79877  0.15059  1.0000
  H   H2961     1.0  0.77013  0.76345  0.40210  1.0000
  C   C1728     1.0  0.93405  0.95964  0.20023  1.0000
  H   H2962     1.0  0.92368  0.84225  0.39574  1.0000
  H   H2963     1.0  0.64415  0.76648  0.31431  1.0000
  C   C1729     1.0  0.81456  0.75536  0.46972  1.0000
  C   C1730     1.0  0.76094  0.77689  0.11727  1.0000
  S   S489      1.0  0.95850  0.93065  0.33153  1.0000
  H   H2964     1.0  0.70584  0.82348  0.41243  1.0000
  H   H2965     1.0  0.67456  0.79355  0.33601  1.0000
  H   H2966     1.0  0.96209  0.95476  0.22379  1.0000
  H   H2967     1.0  0.95415  0.97077  0.13153  1.0000
  Fe  Fe245     1.0  0.96403  0.91660  0.47580  1.0000
  H   H2968     1.0  0.88701  0.83616  0.03705  1.0000
  C   C1731     1.0  0.83823  0.75273  0.23134  1.0000
  H   H2969     1.0  0.95814  0.89027  0.29051  1.0000
  C   C1732     1.0  0.96059  0.87460  0.28771  1.0000
  C   C1733     1.0  0.96704  0.98287  0.35648  1.0000
  S   S490      1.0  0.93215  0.98174  0.48262  1.0000
  H   H2970     1.0  0.94553  0.84830  0.28335  1.0000
  S   S491      1.0  0.93654  0.92451  0.50230  1.0000
  C   C1734     1.0  0.96674  0.96386  0.14511  1.0000
  H   H2971     1.0  0.93252  0.96804  0.02144  1.0000
  H   H2972     1.0  0.76009  0.76641  0.17730  1.0000
  Fe  Fe246     1.0  0.68769  0.81395  0.55983  1.0000
  H   H2973     1.0  0.95471  0.91191  0.58424  1.0000
  H   H2974     1.0  0.70854  0.78507  0.73054  1.0000
  Fe  Fe247     1.0  0.68391  0.77576  0.59888  1.0000
  S   S492      1.0  0.71079  0.76364  0.57633  1.0000
  H   H2975     1.0  0.88621  0.78265  0.95995  1.0000
  Fe  Fe248     1.0  0.72282  0.79194  0.59172  1.0000
  S   S493      1.0  0.75308  0.78801  0.61097  1.0000
  C   C1735     1.0  0.95746  0.93590  0.70789  1.0000
  H   H2976     1.0  0.95458  0.91134  0.74797  1.0000
  S   S494      1.0  0.69653  0.80309  0.61925  1.0000
  S   S495      1.0  0.67365  0.78710  0.54085  1.0000
  H   H2977     1.0  0.65146  0.76340  0.86860  1.0000
  H   H2978     1.0  0.93508  0.91495  0.71412  1.0000
  Fe  Fe249     1.0  0.93326  0.91931  0.92510  1.0000
  S   S496      1.0  0.93826  0.94661  0.89310  1.0000
  S   S497      1.0  0.90433  0.90698  0.92565  1.0000
  C   C1736     1.0  0.85150  0.84376  0.93944  1.0000
  H   H2979     1.0  0.65079  0.80216  0.98463  1.0000
  H   H2980     1.0  0.86667  0.83193  0.89119  1.0000
  S   S498      1.0  0.95911  0.90411  0.90352  1.0000
  H   H2981     1.0  0.84171  0.79507  0.51539  1.0000
  Fe  Fe250     1.0  0.83026  0.79994  0.86311  1.0000
  S   S499      1.0  0.85856  0.79496  0.83831  1.0000
  S   S500      1.0  0.82378  0.79226  0.92495  1.0000
  Fe  Fe251     1.0  0.81408  0.81567  0.78724  1.0000
  S   S501      1.0  0.84120  0.81195  0.75604  1.0000
  S   S502      1.0  0.78682  0.82732  0.76145  1.0000
  Fe  Fe252     1.0  0.84322  0.78359  0.78647  1.0000
  H   H2982     1.0  0.81668  0.78767  0.58366  1.0000
  Fe  Fe253     1.0  0.85436  0.82383  0.81069  1.0000
  S   S503      1.0  0.88032  0.84162  0.80792  1.0000
  S   S504      1.0  0.81513  0.78629  0.81336  1.0000
  S   S505      1.0  0.82701  0.82987  0.83969  1.0000
  H   H2983     1.0  0.80674  0.75784  0.62137  1.0000
  H   H2984     1.0  0.81966  0.77303  0.54257  1.0000
  C   C1737     1.0  0.92999  0.98173  0.60066  1.0000
  C   C1738     1.0  0.93106  0.97547  0.56190  1.0000
  C   C1739     1.0  0.65857  0.77672  0.87721  1.0000
  H   H2985     1.0  0.92997  0.97133  0.62386  1.0000
  H   H2986     1.0  0.93203  0.96034  0.55538  1.0000
  C   C1740     1.0  0.89746  0.88983  0.89077  1.0000
  C   C1741     1.0  0.91028  0.88141  0.86542  1.0000
  C   C1742     1.0  0.90463  0.86704  0.83947  1.0000
  C   C1743     1.0  0.88616  0.86087  0.83874  1.0000
  C   C1744     1.0  0.87321  0.86962  0.86342  1.0000
  C   C1745     1.0  0.87886  0.88404  0.88935  1.0000
  H   H2987     1.0  0.92460  0.88577  0.86613  1.0000
  H   H2988     1.0  0.91471  0.86041  0.82035  1.0000
  H   H2989     1.0  0.85887  0.86525  0.86256  1.0000
  H   H2990     1.0  0.86881  0.89064  0.90859  1.0000
  C   C1746     1.0  0.76261  0.80014  0.65123  1.0000
  C   C1747     1.0  0.78016  0.79402  0.66595  1.0000
  C   C1748     1.0  0.78777  0.80233  0.69959  1.0000
  C   C1749     1.0  0.77797  0.81709  0.71839  1.0000
  C   C1750     1.0  0.76056  0.82349  0.70328  1.0000
  C   C1751     1.0  0.75283  0.81499  0.66981  1.0000
  H   H2991     1.0  0.78765  0.78244  0.65184  1.0000
  H   H2992     1.0  0.80116  0.79730  0.71112  1.0000
  H   H2993     1.0  0.75295  0.83495  0.71773  1.0000
  H   H2994     1.0  0.73932  0.81985  0.65862  1.0000
  C   C1752     1.0  0.72273  0.76428  0.69157  1.0000
  C   C1753     1.0  0.85303  0.78382  0.57109  1.0000
  H   H2995     1.0  0.96871  0.89524  0.61315  1.0000
  H   H2996     1.0  0.76250  0.75978  0.78683  1.0000
  C   C1754     1.0  0.64948  0.86873  0.51840  1.0000
  H   H2997     1.0  0.68205  0.80129  0.90244  1.0000
  C   C1755     1.0  0.69933  0.75730  0.96180  1.0000
  C   C1756     1.0  0.68318  0.82520  0.93988  1.0000
  Fe  Fe254     1.0  0.95408  0.95587  0.94648  1.0000
  S   S506      1.0  0.85461  0.75609  0.76104  1.0000
  C   C1757     1.0  0.93153  0.98854  0.82290  1.0000
  H   H2998     1.0  0.67892  0.79549  0.95203  1.0000
  S   S507      1.0  0.71531  0.80539  0.53441  1.0000
  H   H2999     1.0  0.96210  0.96749  0.66025  1.0000
  H   H3000     1.0  0.76767  0.78417  0.77822  1.0000
  H   H3001     1.0  0.68303  0.83503  0.91465  1.0000
  C   C1758     1.0  0.85331  0.78552  0.52636  1.0000
  H   H3002     1.0  0.92530  0.98521  0.85142  1.0000
  C   C1759     1.0  0.83591  0.78590  0.65256  1.0000
  C   C1760     1.0  0.68064  0.75459  0.97029  1.0000
  H   H3003     1.0  0.96455  0.97196  0.84353  1.0000
  H   H3004     1.0  0.65164  0.88669  0.96226  1.0000
  H   H3005     1.0  0.89232  0.80971  0.89044  1.0000
  H   H3006     1.0  0.95429  0.98372  0.88362  1.0000
  H   H3007     1.0  0.86902  0.80916  0.98771  1.0000
  N   N124      1.0  0.65373  0.80600  0.92265  1.0000
  H   H3008     1.0  0.81584  0.76240  0.73786  1.0000
  N   N125      1.0  0.73870  0.75695  0.71718  1.0000
  H   H3009     1.0  0.69810  0.82255  0.94805  1.0000
  H   H3010     1.0  0.85836  0.76635  0.63920  1.0000
  H   H3011     1.0  0.77047  0.79739  0.51742  1.0000
  C   C1761     1.0  0.93057  0.98881  0.53167  1.0000
  H   H3012     1.0  0.84660  0.76373  0.88615  1.0000
  C   C1762     1.0  0.64452  0.81094  0.96047  1.0000
  H   H3013     1.0  0.84566  0.83906  0.96727  1.0000
  C   C1763     1.0  0.94579  0.92215  0.73199  1.0000
  C   C1764     1.0  0.83034  0.76858  0.93725  1.0000
  H   H3014     1.0  0.87003  0.98824  0.58524  1.0000
  C   C1765     1.0  0.80660  0.75895  0.58936  1.0000
  C   C1766     1.0  0.86447  0.82815  0.92215  1.0000
  H   H3015     1.0  0.65839  0.78631  0.85162  1.0000
  H   H3016     1.0  0.85809  0.85777  0.94277  1.0000
  N   N126      1.0  0.84104  0.76846  0.58702  1.0000
  C   C1767     1.0  0.84174  0.75767  0.91278  1.0000
  S   S508      1.0  0.67455  0.84386  0.55444  1.0000
  H   H3017     1.0  0.89048  0.77683  0.91044  1.0000
  H   H3018     1.0  0.72304  0.74834  0.76753  1.0000
  H   H3019     1.0  0.83859  0.78373  0.68415  1.0000
  H   H3020     1.0  0.92395  0.82956  0.94770  1.0000
  H   H3021     1.0  0.93762  0.97221  0.76917  1.0000
  H   H3022     1.0  0.64060  0.84883  0.87360  1.0000
  H   H3023     1.0  0.79243  0.76429  0.58034  1.0000
  H   H3024     1.0  0.84814  0.79814  0.58146  1.0000
  H   H3025     1.0  0.85600  0.81519  0.92117  1.0000
  H   H3026     1.0  0.83668  0.75549  0.64313  1.0000
  C   C1768     1.0  0.75453  0.74923  0.69278  1.0000
  C   C1769     1.0  0.74566  0.77383  0.74017  1.0000
  C   C1770     1.0  0.88366  0.78759  0.92967  1.0000
  C   C1771     1.0  0.95599  0.91922  0.64569  1.0000
  C   C1772     1.0  0.70547  0.77225  0.71291  1.0000
  H   H3027     1.0  0.83935  0.84611  0.91934  1.0000
  H   H3028     1.0  0.67652  0.83218  0.96513  1.0000
  C   C1773     1.0  0.64297  0.84042  0.90067  1.0000
  H   H3029     1.0  0.90703  0.80548  0.93154  1.0000
  H   H3030     1.0  0.74782  0.78616  0.72072  1.0000
  C   C1774     1.0  0.64168  0.87790  0.97653  1.0000
  H   H3031     1.0  0.86678  0.79142  0.51747  1.0000
  H   H3032     1.0  0.72754  0.77579  0.67214  1.0000
  C   C1775     1.0  0.84338  0.76812  0.63062  1.0000
  C   C1776     1.0  0.93254  0.96988  0.79891  1.0000
  H   H3033     1.0  0.67404  0.76284  0.99293  1.0000
  C   C1777     1.0  0.91416  0.84074  0.95874  1.0000
  Fe  Fe255     1.0  0.70205  0.77757  0.52012  1.0000
  H   H3034     1.0  0.79831  0.75578  0.87987  1.0000
  H   H3035     1.0  0.81528  0.76891  0.99077  1.0000
  C   C1778     1.0  0.82111  0.77294  0.57477  1.0000
  H   H3036     1.0  0.71750  0.75318  0.67148  1.0000
  C   C1779     1.0  0.65706  0.84995  0.51933  1.0000
  C   C1780     1.0  0.89527  0.84113  0.93648  1.0000
  H   H3037     1.0  0.94760  0.90760  0.65775  1.0000
  H   H3038     1.0  0.89847  0.84248  0.90514  1.0000
  S   S509      1.0  0.66543  0.76145  0.64155  1.0000
  H   H3039     1.0  0.94736  0.94677  0.69566  1.0000
  H   H3040     1.0  0.91830  0.96416  0.79593  1.0000
  H   H3041     1.0  0.67314  0.77226  0.88509  1.0000
  S   S510      1.0  0.94668  0.92998  0.98063  1.0000
  C   C1781     1.0  0.76401  0.77053  0.76368  1.0000
  H   H3042     1.0  0.73517  0.77895  0.76146  1.0000
  H   H3043     1.0  0.69903  0.76118  0.73087  1.0000
  H   H3044     1.0  0.86764  0.78257  0.58253  1.0000
  H   H3045     1.0  0.96645  0.94372  0.72896  1.0000
  C   C1782     1.0  0.96483  0.91060  0.60900  1.0000
  H   H3046     1.0  0.76306  0.76113  0.68236  1.0000
  H   H3047     1.0  0.92089  0.85466  0.95408  1.0000
  S   S511      1.0  0.95643  0.98660  0.96670  1.0000
  H   H3048     1.0  0.94524  0.93020  0.63648  1.0000
  H   H3049     1.0  0.82065  0.78805  0.64867  1.0000
  H   H3050     1.0  0.88818  0.85491  0.94362  1.0000
  C   C1783     1.0  0.88052  0.81942  0.98482  1.0000
  H   H3051     1.0  0.84309  0.79908  0.64451  1.0000
  N   N127      1.0  0.88298  0.82428  0.94265  1.0000
  Fe  Fe256     1.0  0.96517  0.93214  0.87532  1.0000
  C   C1784     1.0  0.64766  0.81933  0.88993  1.0000
  H   H3052     1.0  0.93823  0.93057  0.75443  1.0000
  H   H3053     1.0  0.77597  0.76655  0.74509  1.0000
  H   H3054     1.0  0.86855  0.78728  0.92299  1.0000
  H   H3055     1.0  0.65077  0.77611  0.93732  1.0000
  H   H3056     1.0  0.85243  0.77162  0.51127  1.0000
  C   C1785     1.0  0.96171  0.98628  0.85613  1.0000
  C   C1786     1.0  0.67462  0.80596  0.92896  1.0000
  H   H3057     1.0  0.69475  0.77693  0.69101  1.0000
  C   C1787     1.0  0.82409  0.76049  0.97171  1.0000
  C   C1788     1.0  0.89216  0.80733  0.92250  1.0000
  H   H3058     1.0  0.78698  0.75701  0.83371  1.0000
  H   H3059     1.0  0.94124  0.95857  0.81320  1.0000
  H   H3060     1.0  0.89323  0.81164  0.99642  1.0000
  H   H3061     1.0  0.96325  0.95456  0.61437  1.0000
  S   S512      1.0  0.71244  0.77426  0.98717  1.0000
  H   H3062     1.0  0.65464  0.87922  0.53872  1.0000
  H   H3063     1.0  0.64704  0.82587  0.96913  1.0000
  H   H3064     1.0  0.72230  0.74832  0.92609  1.0000
  H   H3065     1.0  0.96669  0.98704  0.78235  1.0000
  H   H3066     1.0  0.65848  0.81949  0.86720  1.0000
  H   H3067     1.0  0.87569  0.75317  0.55416  1.0000
  C   C1789     1.0  0.64802  0.86344  0.00250  1.0000
  H   H3068     1.0  0.87620  0.85060  0.99991  1.0000
  H   H3069     1.0  0.65420  0.84739  0.91728  1.0000
  H   H3070     1.0  0.91265  0.83909  0.99044  1.0000
  C   C1790     1.0  0.64845  0.78587  0.91207  1.0000
  C   C1791     1.0  0.84667  0.74891  0.57188  1.0000
  C   C1792     1.0  0.82135  0.74994  0.72281  1.0000
  H   H3071     1.0  0.74280  0.74744  0.63334  1.0000
  N   N128      1.0  0.96912  0.92681  0.67635  1.0000
  H   H3072     1.0  0.66280  0.86110  0.00819  1.0000
