data_image0
_chemical_formula_structural       SH2CFeSC6H2CH2NHC3HFeH7SHFeCH4SHSH5CHCH2CH2C2SH2Fe2SFeHS2CS2HSCHC6H6FeH2SHNH2CH3C5HCH4SHC2HCH2FeHCHNHC2H3CHC2HNC4H3C2H4CSH6SH5C2H2CHCH5C2HCH3CH3C2HNH2CH4CH3CFeHC2SHCSCFeHSCSFeCHSHFeCH2C6H4C2H5NHCH2C2H4FeH2SCH5SCHSHSCHCH2CH4C2HCH5CH2S2FeS2HFeSHSC4H4CH2SC2H4C2H4NHC6H4CHCHCH2FeH2C2H5CH2SHCFeCHCH2C3HNCHCH7SHCHCHCHSFeS2FeHSFeHCSHCSC2H4C6H3CSHCHCHSH6C2H4CNH2CNHCHNHCH2CH4CH2CH3C2H2FeS2HSFeSFeCSHCH3CH2C2H5C4H2CH3SC3HCSHCH3NCH4CNC2HFeC4H3CHCH2NFeSFeSC6H5CH6SFeH6CSCHCH2CHCHSHCH2FeH5S2HSHCFeSC2HFeHC8H5CH10C2FeH3C2HSCHCH2CNH6CHFeHSCHC2HSHSH5C4H4NCHCHCHCH3CH7CH3SC2H3CHCH2C3HCHCH2S
_chemical_formula_sum              "S64 H384 C224 Fe32 N16"
_cell_length_a       28.7778
_cell_length_b       28.4779
_cell_length_c       31.1658
_cell_angle_alpha    89.0019
_cell_angle_beta     88.5357
_cell_angle_gamma    90.9826

_space_group_name_H-M_alt    "P 1"
_space_group_IT_number       1

loop_
  _space_group_symop_operation_xyz
  'x, y, z'

loop_
  _atom_site_type_symbol
  _atom_site_label
  _atom_site_symmetry_multiplicity
  _atom_site_fract_x
  _atom_site_fract_y
  _atom_site_fract_z
  _atom_site_occupancy
  S   S1        1.0  0.05720  0.36545  0.25989  1.0000
  H   H1        1.0  0.30811  0.29968  0.24787  1.0000
  H   H2        1.0  0.22580  0.32277  0.30727  1.0000
  C   C1        1.0  0.23531  0.34880  0.28130  1.0000
  Fe  Fe1       1.0  0.26898  0.42014  0.02368  1.0000
  S   S2        1.0  0.20984  0.49296  0.16001  1.0000
  C   C2        1.0  0.09842  0.40252  0.23230  1.0000
  C   C3        1.0  0.09976  0.40422  0.18723  1.0000
  C   C4        1.0  0.13366  0.43181  0.16463  1.0000
  C   C5        1.0  0.16634  0.45819  0.18697  1.0000
  C   C6        1.0  0.16399  0.45765  0.23199  1.0000
  C   C7        1.0  0.13028  0.42996  0.25453  1.0000
  H   H3        1.0  0.07494  0.38355  0.16971  1.0000
  H   H4        1.0  0.13423  0.43282  0.12996  1.0000
  C   C8        1.0  0.27954  0.37450  0.29635  1.0000
  H   H5        1.0  0.12861  0.43049  0.28917  1.0000
  H   H6        1.0  0.29481  0.36677  0.20707  1.0000
  N   N1        1.0  0.23890  0.32549  0.23819  1.0000
  H   H7        1.0  0.07283  0.51100  0.30210  1.0000
  C   C9        1.0  0.19063  0.30861  0.22748  1.0000
  C   C10       1.0  0.27254  0.28575  0.24204  1.0000
  C   C11       1.0  0.16843  0.27092  0.25812  1.0000
  H   H8        1.0  0.30502  0.26774  0.18000  1.0000
  Fe  Fe2       1.0  0.17044  0.45745  0.00928  1.0000
  H   H9        1.0  0.20721  0.37522  0.28129  1.0000
  H   H10       1.0  0.25579  0.31946  0.14637  1.0000
  H   H11       1.0  0.18913  0.29397  0.19486  1.0000
  H   H12       1.0  0.04611  0.48076  0.11938  1.0000
  H   H13       1.0  0.28904  0.21824  0.21451  1.0000
  H   H14       1.0  0.15535  0.31631  0.03022  1.0000
  H   H15       1.0  0.18950  0.23876  0.25991  1.0000
  S   S3        1.0  0.31272  0.35472  0.02128  1.0000
  H   H16       1.0  0.26461  0.26333  0.27109  1.0000
  Fe  Fe3       1.0  0.22178  0.48401  0.08854  1.0000
  C   C12       1.0  0.25639  0.36206  0.20556  1.0000
  H   H17       1.0  0.02213  0.49393  0.17079  1.0000
  H   H18       1.0  0.13389  0.26048  0.24588  1.0000
  H   H19       1.0  0.30866  0.35016  0.30118  1.0000
  H   H20       1.0  0.24549  0.24671  0.18619  1.0000
  S   S4        1.0  0.29223  0.48678  0.05465  1.0000
  H   H21       1.0  0.24177  0.39712  0.21293  1.0000
  S   S5        1.0  0.20192  0.41476  0.06171  1.0000
  H   H22       1.0  0.18845  0.47871  0.24957  1.0000
  H   H23       1.0  0.38021  0.28359  0.00443  1.0000
  H   H24       1.0  0.16179  0.28434  0.29081  1.0000
  H   H25       1.0  0.16666  0.33876  0.22661  1.0000
  H   H26       1.0  0.04524  0.47828  0.26201  1.0000
  C   C13       1.0  0.27811  0.25346  0.20311  1.0000
  H   H27       1.0  0.20751  0.35905  0.15244  1.0000
  C   C14       1.0  0.24507  0.35409  0.15809  1.0000
  H   H28       1.0  0.26405  0.38111  0.13791  1.0000
  H   H29       1.0  0.50658  0.46753  0.01121  1.0000
  C   C15       1.0  0.02092  0.50399  0.13621  1.0000
  H   H30       1.0  0.29064  0.40382  0.27433  1.0000
  H   H31       1.0  0.21374  0.30364  0.01514  1.0000
  C   C16       1.0  0.03897  0.50550  0.28635  1.0000
  C   C17       1.0  0.17761  0.30309  0.00352  1.0000
  S   S6        1.0  0.09849  0.43241  0.99224  1.0000
  H   H32       1.0  0.16593  0.26658  0.99753  1.0000
  H   H33       1.0  0.08680  0.51733  0.20005  1.0000
  Fe  Fe4       1.0  0.10544  0.39481  0.40889  1.0000
  Fe  Fe5       1.0  0.03486  0.31420  0.41918  1.0000
  S   S7        1.0  0.13045  0.46898  0.42156  1.0000
  Fe  Fe6       1.0  0.13319  0.29242  0.38965  1.0000
  H   H34       1.0  0.08395  0.13635  0.42573  1.0000
  S   S8        1.0  0.18902  0.23725  0.38186  1.0000
  S   S9        1.0  0.06346  0.27605  0.36194  1.0000
  C   C18       1.0  0.50589  0.08769  0.49320  1.0000
  S   S10       1.0  0.14163  0.36091  0.35337  1.0000
  S   S11       1.0  0.10470  0.32769  0.44848  1.0000
  H   H35       1.0  0.33580  0.11676  0.63260  1.0000
  S   S12       1.0  0.26259  0.12141  0.54218  1.0000
  C   C19       1.0  0.08714  0.51208  0.42226  1.0000
  H   H36       1.0  0.43529  0.06436  0.48379  1.0000
  C   C20       1.0  0.24093  0.15123  0.49679  1.0000
  C   C21       1.0  0.25448  0.13990  0.45485  1.0000
  C   C22       1.0  0.23797  0.16624  0.41984  1.0000
  C   C23       1.0  0.20745  0.20366  0.42646  1.0000
  C   C24       1.0  0.19295  0.21402  0.46832  1.0000
  C   C25       1.0  0.20989  0.18812  0.50329  1.0000
  H   H37       1.0  0.27853  0.11170  0.44945  1.0000
  H   H38       1.0  0.24936  0.15801  0.38754  1.0000
  H   H39       1.0  0.16953  0.24272  0.47386  1.0000
  H   H40       1.0  0.19927  0.19716  0.53562  1.0000
  H   H41       1.0  0.43312  0.08172  0.63396  1.0000
  H   H42       1.0  0.19763  0.03287  0.39828  1.0000
  Fe  Fe7       1.0  0.29962  0.05175  0.54214  1.0000
  H   H43       1.0  0.47566  0.16286  0.56622  1.0000
  H   H44       1.0  0.47879  0.20884  0.63159  1.0000
  S   S13       1.0  0.03388  0.38403  0.38415  1.0000
  H   H45       1.0  0.49744  0.12457  0.49202  1.0000
  N   N2        1.0  0.13489  0.03906  0.47608  1.0000
  H   H46       1.0  0.13529  0.03528  0.58859  1.0000
  H   H47       1.0  0.04079  0.03973  0.49998  1.0000
  C   C26       1.0  0.04414  0.50324  0.44297  1.0000
  H   H48       1.0  0.01602  0.49623  0.35257  1.0000
  H   H49       1.0  0.03677  0.46916  0.45776  1.0000
  H   H50       1.0  0.10007  0.07259  0.53025  1.0000
  C   C27       1.0  0.13393  0.05728  0.52127  1.0000
  C   C28       1.0  0.12831  0.07947  0.44496  1.0000
  C   C29       1.0  0.47070  0.05366  0.48862  1.0000
  C   C30       1.0  0.08241  0.10622  0.44896  1.0000
  C   C31       1.0  0.39583  0.16448  0.61817  1.0000
  H   H51       1.0  0.05231  0.08397  0.44005  1.0000
  C   C32       1.0  0.34396  0.15496  0.62992  1.0000
  H   H52       1.0  0.15951  0.08691  0.52411  1.0000
  H   H53       1.0  0.07680  0.12165  0.48102  1.0000
  H   H54       1.0  0.13000  0.06741  0.41124  1.0000
  H   H55       1.0  0.15705  0.10593  0.44777  1.0000
  S   S14       1.0  0.37324  0.03916  0.56143  1.0000
  H   H56       1.0  0.39929  0.20187  0.60706  1.0000
  C   C33       1.0  0.47760  0.16996  0.63662  1.0000
  C   C34       1.0  0.49457  0.14845  0.59396  1.0000
  H   H57       1.0  0.49204  0.10968  0.59422  1.0000
  C   C35       1.0  0.18300  0.02036  0.46752  1.0000
  H   H58       1.0  0.21004  0.04738  0.47484  1.0000
  H   H59       1.0  0.40315  0.14288  0.58942  1.0000
  Fe  Fe8       1.0  0.07024  0.34765  0.32985  1.0000
  H   H60       1.0  0.32259  0.16895  0.60357  1.0000
  C   C36       1.0  0.14469  0.02086  0.55671  1.0000
  H   H61       1.0  0.27168  0.39031  0.32803  1.0000
  N   N3        1.0  0.42984  0.15446  0.65319  1.0000
  H   H62       1.0  0.21269  0.38680  0.89009  1.0000
  C   C37       1.0  0.46057  0.08443  0.69750  1.0000
  C   C38       1.0  0.42726  0.10248  0.66342  1.0000
  H   H63       1.0  0.38963  0.16277  0.71262  1.0000
  H   H64       1.0  0.25659  0.29333  0.95611  1.0000
  H   H65       1.0  0.34211  0.41673  0.95013  1.0000
  C   C39       1.0  0.18881  0.35575  0.88725  1.0000
  H   H66       1.0  0.40144  0.40749  0.89180  1.0000
  C   C40       1.0  0.35703  0.35079  0.98124  1.0000
  C   C41       1.0  0.12952  0.26169  0.90572  1.0000
  H   H67       1.0  0.18481  0.37108  0.97285  1.0000
  N   N4        1.0  0.19655  0.32049  0.92311  1.0000
  C   C42       1.0  0.41909  0.30580  0.94724  1.0000
  C   C43       1.0  0.42494  0.34049  0.91515  1.0000
  C   C44       1.0  0.39713  0.38053  0.91656  1.0000
  C   C45       1.0  0.36350  0.38584  0.94958  1.0000
  H   H68       1.0  0.43931  0.21350  0.75166  1.0000
  H   H69       1.0  0.13762  0.39666  0.85338  1.0000
  H   H70       1.0  0.27832  0.33849  0.86691  1.0000
  C   C46       1.0  0.18200  0.27169  0.91031  1.0000
  C   C47       1.0  0.24808  0.32024  0.93135  1.0000
  H   H71       1.0  0.25954  0.35460  0.94440  1.0000
  H   H72       1.0  0.47603  0.22824  0.70633  1.0000
  H   H73       1.0  0.19608  0.24445  0.93229  1.0000
  H   H74       1.0  0.49514  0.43543  0.92890  1.0000
  C   C48       1.0  0.13988  0.37664  0.88415  1.0000
  S   S15       1.0  0.46570  0.33520  0.87221  1.0000
  H   H75       1.0  0.47863  0.17103  0.73139  1.0000
  H   H76       1.0  0.39182  0.09184  0.67546  1.0000
  H   H77       1.0  0.11833  0.27057  0.87275  1.0000
  H   H78       1.0  0.31692  0.31082  0.90269  1.0000
  H   H79       1.0  0.12232  0.22370  0.91204  1.0000
  H   H80       1.0  0.10716  0.27971  0.92934  1.0000
  S   S16       1.0  0.23559  0.45595  0.96812  1.0000
  H   H81       1.0  0.44029  0.27479  0.94641  1.0000
  H   H82       1.0  0.19748  0.34039  0.85547  1.0000
  H   H83       1.0  0.27384  0.27569  0.87838  1.0000
  H   H84       1.0  0.45631  0.04570  0.70080  1.0000
  H   H85       1.0  0.19799  0.26306  0.87863  1.0000
  C   C49       1.0  0.41581  0.18261  0.69214  1.0000
  C   C50       1.0  0.45497  0.19923  0.72175  1.0000
  H   H86       1.0  0.13359  0.40219  0.91006  1.0000
  H   H87       1.0  0.13440  0.34002  0.96004  1.0000
  C   C51       1.0  0.28034  0.31071  0.89214  1.0000
  H   H88       1.0  0.11165  0.34990  0.88496  1.0000
  C   C52       1.0  0.38507  0.31089  0.98007  1.0000
  H   H89       1.0  0.47034  0.04559  0.86064  1.0000
  H   H90       1.0  0.48402  0.38304  0.98666  1.0000
  H   H91       1.0  0.39831  0.21563  0.68234  1.0000
  H   H92       1.0  0.50915  0.11813  0.88482  1.0000
  H   H93       1.0  0.46516  0.48913  0.97591  1.0000
  C   C53       1.0  0.05426  0.47426  0.98779  1.0000
  C   C54       1.0  0.17224  0.33561  0.96394  1.0000
  H   H94       1.0  0.50474  0.16274  0.66042  1.0000
  C   C55       1.0  0.50325  0.48561  0.97983  1.0000
  H   H95       1.0  0.45207  0.09882  0.72948  1.0000
  H   H96       1.0  0.49739  0.09182  0.68841  1.0000
  H   H97       1.0  0.33223  0.17255  0.65961  1.0000
  C   C56       1.0  0.49963  0.04321  0.88162  1.0000
  H   H98       1.0  0.05052  0.64169  0.08243  1.0000
  H   H99       1.0  0.09266  0.60277  0.05849  1.0000
  H   H100      1.0  0.36402  0.69558  0.03612  1.0000
  C   C57       1.0  0.08481  0.56041  0.14054  1.0000
  C   C58       1.0  0.09500  0.55353  0.18854  1.0000
  H   H101      1.0  0.13282  0.55938  0.19318  1.0000
  N   N5        1.0  0.03440  0.55512  0.12887  1.0000
  H   H102      1.0  0.04037  0.53654  0.06187  1.0000
  H   H103      1.0  0.10659  0.53523  0.12215  1.0000
  C   C59       1.0  0.33228  0.63945  0.00087  1.0000
  H   H104      1.0  0.45192  0.67592  0.04579  1.0000
  H   H105      1.0  0.09968  0.59536  0.13130  1.0000
  H   H106      1.0  0.31104  0.62658  0.02787  1.0000
  H   H107      1.0  0.46125  0.67220  0.10209  1.0000
  C   C60       1.0  0.36221  0.67859  0.00541  1.0000
  H   H108      1.0  0.07653  0.57915  0.20885  1.0000
  H   H109      1.0  0.47920  0.72429  0.07314  1.0000
  H   H110      1.0  0.04159  0.61842  0.03078  1.0000
  C   C61       1.0  0.47657  0.68549  0.07103  1.0000
  Fe  Fe9       1.0  0.25508  0.52309  0.00099  1.0000
  H   H111      1.0  0.05237  0.64534  0.15847  1.0000
  C   C62       1.0  0.05506  0.61001  0.06303  1.0000
  C   C63       1.0  0.02861  0.56645  0.08177  1.0000
  S   S17       1.0  0.18662  0.52719  0.03797  1.0000
  H   H112      1.0  0.03079  0.53877  0.26992  1.0000
  C   C64       1.0  0.01481  0.63691  0.16054  1.0000
  S   S18       1.0  0.13615  0.80026  0.37659  1.0000
  C   C65       1.0  0.09643  0.55653  0.40345  1.0000
  Fe  Fe10      1.0  0.27456  0.94812  0.54259  1.0000
  H   H113      1.0  0.24637  0.77049  0.49105  1.0000
  S   S19       1.0  0.20770  0.90541  0.54025  1.0000
  C   C66       1.0  0.06305  0.59204  0.40568  1.0000
  S   S20       1.0  0.43836  0.96355  0.47925  1.0000
  Fe  Fe11      1.0  0.34449  0.98445  0.60779  1.0000
  C   C67       1.0  0.09975  0.99994  0.46948  1.0000
  H   H114      1.0  0.16925  0.66965  0.38480  1.0000
  S   S21       1.0  0.34571  0.92520  0.56163  1.0000
  H   H115      1.0  0.10206  0.65870  0.52357  1.0000
  Fe  Fe12      1.0  0.06041  0.77724  0.37758  1.0000
  C   C68       1.0  0.09077  0.68350  0.49829  1.0000
  H   H116      1.0  0.08314  0.71791  0.51292  1.0000
  H   H117      1.0  0.11677  0.72060  0.44140  1.0000
  C   C69       1.0  0.15474  0.83442  0.41984  1.0000
  C   C70       1.0  0.12431  0.84453  0.45398  1.0000
  C   C71       1.0  0.14099  0.86703  0.49039  1.0000
  C   C72       1.0  0.18788  0.88082  0.49246  1.0000
  C   C73       1.0  0.21797  0.87280  0.45752  1.0000
  C   C74       1.0  0.20147  0.84924  0.42144  1.0000
  H   H118      1.0  0.08816  0.83393  0.45292  1.0000
  H   H119      1.0  0.11751  0.87324  0.51730  1.0000
  H   H120      1.0  0.25419  0.88334  0.45888  1.0000
  H   H121      1.0  0.22515  0.84171  0.39501  1.0000
  C   C75       1.0  0.12690  0.68947  0.46101  1.0000
  C   C76       1.0  0.17913  0.73458  0.50522  1.0000
  H   H122      1.0  0.23313  0.64951  0.49300  1.0000
  H   H123      1.0  0.13841  0.59703  0.48934  1.0000
  H   H124      1.0  0.07005  0.62587  0.39041  1.0000
  H   H125      1.0  0.12196  0.65919  0.43981  1.0000
  H   H126      1.0  0.22283  0.64245  0.40243  1.0000
  N   N6        1.0  0.17674  0.69448  0.47415  1.0000
  H   H127      1.0  0.44397  0.92812  0.61105  1.0000
  C   C77       1.0  0.20672  0.70824  0.43531  1.0000
  H   H128      1.0  0.22439  0.69350  0.36907  1.0000
  H   H129      1.0  0.05125  0.98228  0.52331  1.0000
  C   C78       1.0  0.20491  0.67590  0.39627  1.0000
  C   C79       1.0  0.19451  0.65059  0.49578  1.0000
  H   H130      1.0  0.16005  0.72549  0.53585  1.0000
  H   H131      1.0  0.19491  0.57400  0.49565  1.0000
  H   H132      1.0  0.22526  0.77567  0.54480  1.0000
  H   H133      1.0  0.18661  0.65061  0.53098  1.0000
  Fe  Fe13      1.0  0.37159  0.98064  0.51435  1.0000
  H   H134      1.0  0.05756  0.66963  0.48566  1.0000
  H   H135      1.0  0.24973  0.72101  0.52856  1.0000
  S   S22       1.0  0.30040  0.99797  0.49026  1.0000
  C   C80       1.0  0.17558  0.60286  0.48012  1.0000
  H   H136      1.0  0.16156  0.76599  0.49200  1.0000
  H   H137      1.0  0.12940  0.56335  0.38687  1.0000
  H   H138      1.0  0.24402  0.71066  0.44365  1.0000
  H   H139      1.0  0.17972  0.59844  0.44516  1.0000
  H   H140      1.0  0.19762  0.74397  0.42364  1.0000
  S   S23       1.0  0.03428  0.71333  0.34340  1.0000
  C   C81       1.0  0.22829  0.75076  0.51782  1.0000
  H   H141      1.0  0.35724  0.88663  0.65000  1.0000
  S   S24       1.0  0.02086  0.76002  0.43871  1.0000
  H   H142      1.0  0.43681  0.87294  0.55205  1.0000
  S   S25       1.0  0.27115  0.00265  0.59369  1.0000
  C   C82       1.0  0.46686  0.86979  0.57354  1.0000
  H   H143      1.0  0.11415  0.96578  0.48052  1.0000
  C   C83       1.0  0.02071  0.58365  0.42772  1.0000
  H   H144      1.0  0.45713  0.84255  0.59819  1.0000
  H   H145      1.0  0.48052  0.94347  0.56616  1.0000
  C   C84       1.0  0.47654  0.91811  0.59356  1.0000
  H   H146      1.0  0.49363  0.01537  0.59042  1.0000
  H   H147      1.0  0.12546  0.98718  0.55330  1.0000
  H   H148      1.0  0.49639  0.85794  0.55323  1.0000
  H   H149      1.0  0.02489  0.98740  0.47322  1.0000
  C   C85       1.0  0.05202  0.00370  0.49316  1.0000
  C   C86       1.0  0.48167  0.00607  0.48821  1.0000
  H   H150      1.0  0.18978  0.98979  0.48898  1.0000
  C   C87       1.0  0.19336  0.00312  0.42159  1.0000
  H   H151      1.0  0.09318  0.99580  0.43467  1.0000
  H   H152      1.0  0.16670  0.97772  0.41073  1.0000
  H   H153      1.0  0.48916  0.97242  0.37103  1.0000
  H   H154      1.0  0.22692  0.98439  0.42120  1.0000
  H   H155      1.0  0.18237  0.01377  0.55702  1.0000
  C   C88       1.0  0.51167  0.88269  0.65666  1.0000
  H   H156      1.0  0.01576  0.58654  0.32679  1.0000
  H   H157      1.0  0.33594  0.74719  0.78499  1.0000
  S   S26       1.0  0.42306  0.74788  0.97611  1.0000
  S   S27       1.0  0.49072  0.94948  0.87035  1.0000
  Fe  Fe14      1.0  0.46342  0.77930  0.91872  1.0000
  S   S28       1.0  0.49161  0.73686  0.86446  1.0000
  S   S29       1.0  0.37818  0.98370  0.67257  1.0000
  H   H158      1.0  0.17643  0.76253  0.87200  1.0000
  Fe  Fe15      1.0  0.46905  0.79591  0.82136  1.0000
  S   S30       1.0  0.43177  0.78905  0.75887  1.0000
  H   H159      1.0  0.29541  0.79176  0.79801  1.0000
  S   S31       1.0  0.43477  0.83417  0.87503  1.0000
  C   C89       1.0  0.41460  0.84310  0.73630  1.0000
  C   C90       1.0  0.38904  0.84368  0.69854  1.0000
  C   C91       1.0  0.41527  0.92851  0.73536  1.0000
  C   C92       1.0  0.42734  0.88568  0.75484  1.0000
  H   H160      1.0  0.30691  0.78074  0.97625  1.0000
  H   H161      1.0  0.42549  0.96121  0.74988  1.0000
  H   H162      1.0  0.44689  0.88573  0.78405  1.0000
  H   H163      1.0  0.22343  0.66150  0.93113  1.0000
  C   C93       1.0  0.32820  0.61860  0.96083  1.0000
  H   H164      1.0  0.21378  0.74908  0.82639  1.0000
  H   H165      1.0  0.28221  0.83277  0.95181  1.0000
  S   S32       1.0  0.28546  0.57514  0.95146  1.0000
  C   C94       1.0  0.38592  0.67459  0.93058  1.0000
  C   C95       1.0  0.35547  0.63602  0.92587  1.0000
  H   H166      1.0  0.29332  0.71143  0.93893  1.0000
  H   H167      1.0  0.27785  0.71270  0.83330  1.0000
  H   H168      1.0  0.40620  0.68803  0.90324  1.0000
  H   H169      1.0  0.35231  0.62013  0.89476  1.0000
  C   C96       1.0  0.38866  0.69661  0.97016  1.0000
  C   C97       1.0  0.23875  0.68169  0.90321  1.0000
  H   H170      1.0  0.26324  0.65764  0.88691  1.0000
  H   H171      1.0  0.35358  0.76672  0.90926  1.0000
  H   H172      1.0  0.33303  0.81922  0.88558  1.0000
  H   H173      1.0  0.19011  0.80523  0.82993  1.0000
  N   N7        1.0  0.28294  0.76112  0.88673  1.0000
  H   H174      1.0  0.35234  0.79111  0.82172  1.0000
  C   C98       1.0  0.26445  0.72553  0.91975  1.0000
  C   C99       1.0  0.24590  0.79545  0.87483  1.0000
  C   C100      1.0  0.32256  0.76915  0.81157  1.0000
  C   C101      1.0  0.31213  0.80883  0.95138  1.0000
  C   C102      1.0  0.20439  0.77629  0.84973  1.0000
  C   C103      1.0  0.39026  0.92915  0.69730  1.0000
  H   H175      1.0  0.21005  0.69004  0.88173  1.0000
  H   H176      1.0  0.24069  0.74237  0.94345  1.0000
  H   H177      1.0  0.23043  0.81123  0.90416  1.0000
  H   H178      1.0  0.26084  0.82650  0.85671  1.0000
  C   C104      1.0  0.30326  0.73666  0.84816  1.0000
  H   H179      1.0  0.34307  0.82969  0.96099  1.0000
  C   C105      1.0  0.32212  0.78868  0.90643  1.0000
  H   H180      1.0  0.33195  0.71332  0.85809  1.0000
  C   C106      1.0  0.37687  0.88659  0.67908  1.0000
  H   H181      1.0  0.37896  0.81088  0.68412  1.0000
  H   H182      1.0  0.03503  0.58637  0.95343  1.0000
  Fe  Fe16      1.0  0.50344  0.87197  0.87970  1.0000
  H   H183      1.0  0.09924  0.53008  0.96300  1.0000
  H   H184      1.0  0.48835  0.66815  0.98182  1.0000
  C   C107      1.0  0.02750  0.55156  0.96649  1.0000
  C   C108      1.0  0.06392  0.51979  0.97200  1.0000
  H   H185      1.0  0.47440  0.87830  0.66630  1.0000
  H   H186      1.0  0.48303  0.97322  0.66074  1.0000
  H   H187      1.0  0.68394  0.36669  0.02683  1.0000
  H   H188      1.0  0.00311  0.44846  0.31850  1.0000
  H   H189      1.0  0.93413  0.46767  0.21108  1.0000
  C   C109      1.0  0.93977  0.46026  0.24563  1.0000
  H   H190      1.0  0.64448  0.50595  0.00241  1.0000
  H   H191      1.0  0.89057  0.09338  0.31047  1.0000
  S   S33       1.0  0.73736  0.45008  0.04215  1.0000
  H   H192      1.0  0.58479  0.49569  0.01774  1.0000
  C   C110      1.0  0.72685  0.41967  0.99435  1.0000
  Fe  Fe17      1.0  0.78549  0.51395  0.04421  1.0000
  C   C111      1.0  0.97196  0.48921  0.12164  1.0000
  H   H193      1.0  0.91122  0.43588  0.25658  1.0000
  C   C112      1.0  0.93826  0.50687  0.27015  1.0000
  H   H194      1.0  0.93672  0.48276  0.00308  1.0000
  H   H195      1.0  0.63934  0.07209  0.26059  1.0000
  C   C113      1.0  0.64312  0.06600  0.29564  1.0000
  C   C114      1.0  0.69798  0.37935  0.99616  1.0000
  C   C115      1.0  0.61571  0.47935  0.00309  1.0000
  H   H196      1.0  0.97346  0.44231  0.24823  1.0000
  N   N8        1.0  0.95345  0.50432  0.31612  1.0000
  C   C116      1.0  0.59684  0.04571  0.31479  1.0000
  H   H197      1.0  0.96612  0.45128  0.12927  1.0000
  C   C117      1.0  0.97207  0.49338  0.99461  1.0000
  H   H198      1.0  0.00042  0.42583  0.01062  1.0000
  H   H199      1.0  0.67230  0.04156  0.29959  1.0000
  H   H200      1.0  0.85257  0.04947  0.28795  1.0000
  H   H201      1.0  0.55741  0.41288  0.01804  1.0000
  H   H202      1.0  0.62739  0.45014  0.02408  1.0000
  H   H203      1.0  0.65233  0.10046  0.30945  1.0000
  H   H204      1.0  0.96829  0.49345  0.08650  1.0000
  S   S34       1.0  0.86006  0.51288  0.06484  1.0000
  H   H205      1.0  0.93302  0.02743  0.32388  1.0000
  C   C118      1.0  0.00821  0.46112  0.99878  1.0000
  H   H206      1.0  0.94401  0.50843  0.13858  1.0000
  C   C119      1.0  0.00260  0.48746  0.32042  1.0000
  H   H207      1.0  0.51623  0.33858  0.01310  1.0000
  C   C120      1.0  0.86831  0.06186  0.31799  1.0000
  H   H208      1.0  0.56934  0.07173  0.30818  1.0000
  S   S35       1.0  0.68587  0.04010  0.55863  1.0000
  Fe  Fe18      1.0  0.77084  0.11058  0.48047  1.0000
  S   S36       1.0  0.79633  0.05927  0.52963  1.0000
  S   S37       1.0  0.81677  0.14305  0.42748  1.0000
  Fe  Fe19      1.0  0.66865  0.09333  0.50822  1.0000
  H   H209      1.0  0.90194  0.27838  0.61332  1.0000
  S   S38       1.0  0.59550  0.11801  0.50051  1.0000
  Fe  Fe20      1.0  0.74280  0.09142  0.57394  1.0000
  H   H210      1.0  0.84121  0.26644  0.55592  1.0000
  C   C121      1.0  0.76191  0.24018  0.59227  1.0000
  S   S39       1.0  0.72244  0.14668  0.52627  1.0000
  H   H211      1.0  0.76924  0.32667  0.63463  1.0000
  C   C122      1.0  0.55202  0.07429  0.49821  1.0000
  S   S40       1.0  0.97866  0.28892  0.46709  1.0000
  C   C123      1.0  0.78450  0.29498  0.64979  1.0000
  C   C124      1.0  0.92635  0.46535  0.38874  1.0000
  H   H212      1.0  0.70081  0.25501  0.55519  1.0000
  H   H213      1.0  0.91166  0.49589  0.40574  1.0000
  H   H214      1.0  0.91372  0.23868  0.52156  1.0000
  H   H215      1.0  0.74190  0.21428  0.61283  1.0000
  C   C125      1.0  0.93548  0.24668  0.45534  1.0000
  C   C126      1.0  0.92775  0.23239  0.41340  1.0000
  C   C127      1.0  0.89129  0.20044  0.40531  1.0000
  C   C128      1.0  0.86262  0.18238  0.43907  1.0000
  C   C129      1.0  0.87102  0.19583  0.48112  1.0000
  C   C130      1.0  0.90729  0.22799  0.48913  1.0000
  H   H216      1.0  0.94923  0.24672  0.38717  1.0000
  H   H217      1.0  0.88490  0.19022  0.37269  1.0000
  H   H218      1.0  0.84934  0.18176  0.50727  1.0000
  C   C131      1.0  0.66496  0.14542  0.64436  1.0000
  S   S41       1.0  0.71458  0.06243  0.45744  1.0000
  H   H219      1.0  0.52669  0.04350  0.63052  1.0000
  C   C132      1.0  0.61533  0.07187  0.38827  1.0000
  H   H220      1.0  0.77534  0.21987  0.56463  1.0000
  C   C133      1.0  0.85156  0.18730  0.60830  1.0000
  H   H221      1.0  0.87412  0.33293  0.62723  1.0000
  S   S42       1.0  0.75446  0.11271  0.64223  1.0000
  H   H222      1.0  0.53184  0.15807  0.58811  1.0000
  H   H223      1.0  0.89315  0.06651  0.46794  1.0000
  H   H224      1.0  0.95374  0.07354  0.38420  1.0000
  H   H225      1.0  0.66219  0.13255  0.61206  1.0000
  H   H226      1.0  0.61372  0.06212  0.42292  1.0000
  H   H227      1.0  0.82646  0.16824  0.58824  1.0000
  C   C134      1.0  0.87945  0.30685  0.60167  1.0000
  C   C135      1.0  0.72689  0.27501  0.57360  1.0000
  H   H228      1.0  0.58847  0.13246  0.35107  1.0000
  H   H229      1.0  0.81507  0.31936  0.57124  1.0000
  H   H230      1.0  0.88384  0.47909  0.33417  1.0000
  H   H231      1.0  0.83125  0.04838  0.40575  1.0000
  C   C136      1.0  0.83299  0.28816  0.58440  1.0000
  N   N9        1.0  0.80169  0.26148  0.61623  1.0000
  H   H232      1.0  0.55389  0.11595  0.39874  1.0000
  H   H233      1.0  0.65286  0.07895  0.38086  1.0000
  C   C137      1.0  0.91975  0.06597  0.40090  1.0000
  N   N10       1.0  0.59688  0.03223  0.36180  1.0000
  H   H234      1.0  0.90651  0.43383  0.40091  1.0000
  C   C138      1.0  0.82728  0.22248  0.63822  1.0000
  H   H235      1.0  0.86857  0.16023  0.62831  1.0000
  N   N11       1.0  0.89846  0.02050  0.38614  1.0000
  H   H236      1.0  0.87908  0.20413  0.58757  1.0000
  C   C139      1.0  0.58958  0.11879  0.38449  1.0000
  H   H237      1.0  0.70730  0.29357  0.59906  1.0000
  H   H238      1.0  0.96296  0.46064  0.39777  1.0000
  C   C140      1.0  0.54756  0.02100  0.37647  1.0000
  H   H239      1.0  0.89921  0.32513  0.57497  1.0000
  H   H240      1.0  0.60833  0.14559  0.40333  1.0000
  H   H241      1.0  0.74375  0.30094  0.55104  1.0000
  H   H242      1.0  0.94157  0.10487  0.45645  1.0000
  C   C141      1.0  0.92667  0.06957  0.44964  1.0000
  H   H243      1.0  0.89773  0.09608  0.39173  1.0000
  H   H244      1.0  0.52435  0.05079  0.36913  1.0000
  C   C142      1.0  0.56291  0.02659  0.49924  1.0000
  H   H245      1.0  0.59462  0.17014  0.64730  1.0000
  H   H246      1.0  0.83898  0.07297  0.33887  1.0000
  H   H247      1.0  0.95127  0.04323  0.46170  1.0000
  C   C143      1.0  0.92079  0.46996  0.33966  1.0000
  C   C144      1.0  0.89733  0.02213  0.33786  1.0000
  H   H248      1.0  0.92514  0.43383  0.32723  1.0000
  H   H249      1.0  0.59940  0.40646  0.84277  1.0000
  Fe  Fe21      1.0  0.58243  0.23089  0.80034  1.0000
  S   S43       1.0  0.63973  0.21591  0.84562  1.0000
  S   S44       1.0  0.57968  0.20707  0.73120  1.0000
  H   H250      1.0  0.76406  0.24758  0.70420  1.0000
  S   S45       1.0  0.57854  0.27179  0.91956  1.0000
  Fe  Fe22      1.0  0.63159  0.29020  0.86769  1.0000
  S   S46       1.0  0.69095  0.34344  0.87056  1.0000
  Fe  Fe23      1.0  0.58175  0.19840  0.89327  1.0000
  C   C145      1.0  0.59884  0.08945  0.79915  1.0000
  S   S47       1.0  0.57862  0.30647  0.81830  1.0000
  H   H251      1.0  0.62488  0.45152  0.87339  1.0000
  C   C146      1.0  0.57521  0.03764  0.93558  1.0000
  H   H252      1.0  0.60661  0.49451  0.93596  1.0000
  H   H253      1.0  0.70350  0.07029  0.87671  1.0000
  H   H254      1.0  0.66658  0.04560  0.68792  1.0000
  C   C147      1.0  0.57718  0.40246  0.90989  1.0000
  H   H255      1.0  0.81389  0.30858  0.66876  1.0000
  H   H256      1.0  0.55353  0.08529  0.74285  1.0000
  C   C148      1.0  0.62949  0.18317  0.70641  1.0000
  C   C149      1.0  0.67129  0.17903  0.72801  1.0000
  H   H257      1.0  0.66521  0.32408  0.96035  1.0000
  H   H258      1.0  0.76758  0.46649  0.95289  1.0000
  H   H259      1.0  0.67411  0.19217  0.76015  1.0000
  H   H260      1.0  0.59078  0.09711  0.83341  1.0000
  H   H261      1.0  0.71719  0.25942  0.66812  1.0000
  C   C150      1.0  0.52173  0.08440  0.89507  1.0000
  C   C151      1.0  0.70523  0.37140  0.91878  1.0000
  C   C152      1.0  0.68722  0.35526  0.95855  1.0000
  C   C153      1.0  0.74854  0.27444  0.68303  1.0000
  H   H262      1.0  0.73648  0.30301  0.70422  1.0000
  H   H263      1.0  0.71242  0.08687  0.82157  1.0000
  C   C154      1.0  0.59215  0.43120  0.86918  1.0000
  H   H264      1.0  0.52518  0.06825  0.79328  1.0000
  H   H265      1.0  0.61626  0.07531  0.70600  1.0000
  H   H266      1.0  0.62043  0.12001  0.78733  1.0000
  S   S48       1.0  0.52436  0.20908  0.84648  1.0000
  C   C155      1.0  0.56019  0.08182  0.92133  1.0000
  C   C156      1.0  0.74520  0.43559  0.95463  1.0000
  C   C157      1.0  0.70960  0.15756  0.70805  1.0000
  H   H267      1.0  0.64094  0.44510  0.94755  1.0000
  C   C158      1.0  0.70641  0.14038  0.66633  1.0000
  S   S49       1.0  0.59157  0.13307  0.93438  1.0000
  H   H268      1.0  0.66571  0.11171  0.85354  1.0000
  C   C159      1.0  0.73449  0.41143  0.91701  1.0000
  H   H269      1.0  0.60525  0.37698  0.91583  1.0000
  H   H270      1.0  0.74872  0.42395  0.88636  1.0000
  H   H271      1.0  0.68053  0.07890  0.75765  1.0000
  N   N12       1.0  0.56667  0.43030  0.94973  1.0000
  C   C160      1.0  0.62665  0.16671  0.66438  1.0000
  H   H272      1.0  0.74169  0.15405  0.72509  1.0000
  H   H273      1.0  0.62950  0.03062  0.86352  1.0000
  H   H274      1.0  0.54666  0.38089  0.90079  1.0000
  H   H275      1.0  0.53781  0.12832  0.78115  1.0000
  C   C161      1.0  0.63782  0.04443  0.71245  1.0000
  N   N13       1.0  0.62524  0.04403  0.79516  1.0000
  C   C162      1.0  0.68529  0.07936  0.84674  1.0000
  C   C163      1.0  0.55134  0.09232  0.77745  1.0000
  H   H276      1.0  0.60478  0.03550  0.95624  1.0000
  Fe  Fe24      1.0  0.52542  0.28387  0.86885  1.0000
  C   C164      1.0  0.51675  0.36305  0.98494  1.0000
  C   C165      1.0  0.60798  0.46256  0.95697  1.0000
  C   C166      1.0  0.65309  0.03767  0.83523  1.0000
  C   C167      1.0  0.65893  0.04621  0.75726  1.0000
  H   H277      1.0  0.51695  0.34102  0.95612  1.0000
  H   H278      1.0  0.56434  0.45455  0.85807  1.0000
  H   H279      1.0  0.53004  0.48450  0.91560  1.0000
  C   C168      1.0  0.56009  0.39550  0.98660  1.0000
  H   H280      1.0  0.59116  0.37284  0.98904  1.0000
  C   C169      1.0  0.52347  0.45801  0.94177  1.0000
  H   H281      1.0  0.80306  0.20105  0.65929  1.0000
  H   H282      1.0  0.85368  0.23676  0.66023  1.0000
  N   N14       1.0  0.54879  0.67585  0.02132  1.0000
  Fe  Fe25      1.0  0.84101  0.57255  0.10793  1.0000
  S   S50       1.0  0.86735  0.57357  0.17616  1.0000
  Fe  Fe26      1.0  0.87189  0.56897  0.01404  1.0000
  S   S51       1.0  0.76531  0.56885  0.09196  1.0000
  C   C170      1.0  0.92567  0.70936  0.23311  1.0000
  C   C171      1.0  0.91792  0.70701  0.18890  1.0000
  C   C172      1.0  0.89880  0.66608  0.17119  1.0000
  C   C173      1.0  0.88727  0.62718  0.19761  1.0000
  C   C174      1.0  0.89384  0.63008  0.24196  1.0000
  C   C175      1.0  0.91286  0.67103  0.25967  1.0000
  H   H283      1.0  0.92733  0.73675  0.16822  1.0000
  H   H284      1.0  0.89383  0.66448  0.13707  1.0000
  H   H285      1.0  0.88370  0.60082  0.26278  1.0000
  H   H286      1.0  0.91732  0.67323  0.29392  1.0000
  H   H287      1.0  0.58956  0.58641  0.00283  1.0000
  C   C176      1.0  0.52438  0.66303  0.06342  1.0000
  H   H288      1.0  0.00335  0.64869  0.19290  1.0000
  H   H289      1.0  0.59124  0.59387  0.06053  1.0000
  H   H290      1.0  0.64307  0.59980  0.02811  1.0000
  H   H291      1.0  0.95868  0.53315  0.25080  1.0000
  H   H292      1.0  0.61697  0.67742  0.04940  1.0000
  H   H293      1.0  0.83124  0.72210  0.00721  1.0000
  S   S52       1.0  0.73973  0.68566  0.03055  1.0000
  Fe  Fe27      1.0  0.78320  0.62046  0.03863  1.0000
  H   H294      1.0  0.55523  0.79382  0.04736  1.0000
  H   H295      1.0  0.54639  0.67142  0.09120  1.0000
  H   H296      1.0  0.61781  0.67139  0.99325  1.0000
  H   H297      1.0  0.99658  0.65829  0.13625  1.0000
  H   H298      1.0  0.60966  0.76379  0.04053  1.0000
  H   H299      1.0  0.56693  0.74472  0.08039  1.0000
  C   C177      1.0  0.54925  0.72813  0.01290  1.0000
  S   S53       1.0  0.95210  0.76019  0.25399  1.0000
  C   C178      1.0  0.59836  0.66008  0.02287  1.0000
  H   H300      1.0  0.99788  0.56903  0.18924  1.0000
  C   C179      1.0  0.60514  0.60682  0.02891  1.0000
  H   H301      1.0  0.99121  0.57107  0.07446  1.0000
  H   H302      1.0  0.68985  0.76770  0.00824  1.0000
  C   C180      1.0  0.00239  0.58428  0.15626  1.0000
  H   H303      1.0  0.89057  0.71420  0.99467  1.0000
  C   C181      1.0  0.57183  0.75887  0.04733  1.0000
  H   H304      1.0  0.96651  0.58318  0.14376  1.0000
  S   S54       1.0  0.85748  0.62849  0.05838  1.0000
  H   H305      1.0  0.51554  0.61460  0.99372  1.0000
  C   C182      1.0  0.97900  0.59209  0.31857  1.0000
  H   H306      1.0  0.97589  0.59839  0.28366  1.0000
  H   H307      1.0  0.51833  0.62436  0.06620  1.0000
  Fe  Fe28      1.0  0.97543  0.75873  0.32292  1.0000
  H   H308      1.0  0.51394  0.74144  0.00675  1.0000
  H   H309      1.0  0.58784  0.01474  0.29513  1.0000
  H   H310      1.0  0.90184  0.51948  0.26863  1.0000
  H   H311      1.0  0.88596  0.98777  0.32470  1.0000
  H   H312      1.0  0.52097  0.98152  0.32156  1.0000
  S   S55       1.0  0.73887  0.93722  0.48962  1.0000
  S   S56       1.0  0.92894  0.74225  0.38056  1.0000
  H   H313      1.0  0.91148  0.94567  0.38764  1.0000
  S   S57       1.0  0.97825  0.62743  0.43235  1.0000
  H   H314      1.0  0.99491  0.94809  0.39987  1.0000
  C   C183      1.0  0.56121  0.91373  0.59569  1.0000
  Fe  Fe29      1.0  0.96451  0.80406  0.41101  1.0000
  S   S58       1.0  0.94273  0.86486  0.45273  1.0000
  C   C184      1.0  0.52777  0.99250  0.49370  1.0000
  C   C185      1.0  0.60832  0.92213  0.61709  1.0000
  H   H315      1.0  0.62045  0.88938  0.63276  1.0000
  Fe  Fe30      1.0  0.98991  0.70007  0.40269  1.0000
  H   H316      1.0  0.92511  0.97431  0.43546  1.0000
  C   C186      1.0  0.97836  0.97972  0.38595  1.0000
  C   C187      1.0  0.81849  0.97759  0.38560  1.0000
  C   C188      1.0  0.88503  0.88067  0.46500  1.0000
  C   C189      1.0  0.84685  0.85971  0.44552  1.0000
  C   C190      1.0  0.80173  0.87621  0.45423  1.0000
  C   C191      1.0  0.79488  0.91414  0.48180  1.0000
  C   C192      1.0  0.83301  0.93427  0.50184  1.0000
  C   C193      1.0  0.87781  0.91741  0.49367  1.0000
  H   H317      1.0  0.85212  0.83124  0.42346  1.0000
  H   H318      1.0  0.77229  0.86027  0.43882  1.0000
  H   H319      1.0  0.82802  0.96267  0.52388  1.0000
  H   H320      1.0  0.90715  0.93331  0.50929  1.0000
  H   H321      1.0  0.60837  0.95089  0.64036  1.0000
  C   C194      1.0  0.52369  0.01100  0.61166  1.0000
  H   H322      1.0  0.53632  0.95568  0.49297  1.0000
  H   H323      1.0  0.56227  0.87707  0.58402  1.0000
  H   H324      1.0  0.80891  0.98797  0.35260  1.0000
  H   H325      1.0  0.83437  0.94243  0.38538  1.0000
  H   H326      1.0  0.63464  0.93328  0.59202  1.0000
  H   H327      1.0  0.95432  0.55016  0.37095  1.0000
  H   H328      1.0  0.56121  0.93504  0.56542  1.0000
  H   H329      1.0  0.52201  0.84804  0.64378  1.0000
  H   H330      1.0  0.65066  0.93676  0.41252  1.0000
  H   H331      1.0  0.85196  0.00519  0.44066  1.0000
  C   C195      1.0  0.51671  0.96870  0.64290  1.0000
  C   C196      1.0  0.92655  0.97891  0.39999  1.0000
  Fe  Fe31      1.0  0.73690  0.01307  0.50941  1.0000
  H   H332      1.0  0.98308  0.97736  0.35065  1.0000
  H   H333      1.0  0.64052  0.99134  0.43730  1.0000
  H   H334      1.0  0.78555  0.97436  0.40488  1.0000
  C   C197      1.0  0.85022  0.01477  0.40599  1.0000
  C   C198      1.0  0.62712  0.96732  0.41279  1.0000
  H   H335      1.0  0.59221  0.95374  0.42302  1.0000
  S   S59       1.0  0.00603  0.82414  0.35136  1.0000
  C   C199      1.0  0.94736  0.55174  0.33615  1.0000
  H   H336      1.0  0.61955  0.96253  0.34423  1.0000
  C   C200      1.0  0.62785  0.99044  0.36756  1.0000
  H   H337      1.0  0.99745  0.01072  0.39793  1.0000
  H   H338      1.0  0.97849  0.53224  0.46298  1.0000
  C   C201      1.0  0.01128  0.53905  0.44606  1.0000
  N   N15       1.0  0.51771  0.92099  0.62265  1.0000
  H   H339      1.0  0.55628  0.00888  0.59213  1.0000
  H   H340      1.0  0.96872  0.62497  0.33463  1.0000
  H   H341      1.0  0.91065  0.56320  0.33368  1.0000
  H   H342      1.0  0.59849  0.01607  0.50325  1.0000
  H   H343      1.0  0.54363  0.94458  0.36388  1.0000
  H   H344      1.0  0.54508  0.01673  0.41182  1.0000
  C   C202      1.0  0.52477  0.97726  0.35671  1.0000
  H   H345      1.0  0.66483  0.00045  0.36048  1.0000
  Fe  Fe32      1.0  0.55685  0.78014  0.87250  1.0000
  H   H346      1.0  0.67586  0.00659  0.83290  1.0000
  S   S60       1.0  0.93673  0.57966  0.97200  1.0000
  C   C203      1.0  0.61364  0.95371  0.79199  1.0000
  H   H347      1.0  0.82827  0.78955  0.89797  1.0000
  C   C204      1.0  0.51585  0.99904  0.89408  1.0000
  C   C205      1.0  0.89490  0.71772  0.89141  1.0000
  H   H348      1.0  0.72147  0.63525  0.95172  1.0000
  S   S61       1.0  0.62383  0.73939  0.86692  1.0000
  H   H349      1.0  0.56965  0.00537  0.76438  1.0000
  S   S62       1.0  0.53672  0.83521  0.82393  1.0000
  H   H350      1.0  0.52142  0.91746  0.71849  1.0000
  H   H351      1.0  0.62880  0.94419  0.82328  1.0000
  H   H352      1.0  0.96951  0.71953  0.90207  1.0000
  H   H353      1.0  0.85738  0.75724  0.96570  1.0000
  H   H354      1.0  0.53294  0.85637  0.71883  1.0000
  C   C206      1.0  0.65949  0.75539  0.94678  1.0000
  C   C207      1.0  0.65566  0.72452  0.91265  1.0000
  C   C208      1.0  0.67896  0.68158  0.91416  1.0000
  C   C209      1.0  0.70503  0.66905  0.95009  1.0000
  H   H355      1.0  0.89475  0.75320  0.90528  1.0000
  H   H356      1.0  0.64226  0.78885  0.94559  1.0000
  H   H357      1.0  0.67616  0.65762  0.88774  1.0000
  H   H358      1.0  0.63992  0.95041  0.76567  1.0000
  N   N16       1.0  0.85056  0.69034  0.90179  1.0000
  C   C210      1.0  0.85466  0.64359  0.87974  1.0000
  H   H359      1.0  0.76967  0.77929  0.88299  1.0000
  C   C211      1.0  0.81005  0.71576  0.88287  1.0000
  H   H360      1.0  0.86306  0.65044  0.95990  1.0000
  C   C212      1.0  0.80985  0.61314  0.87843  1.0000
  H   H361      1.0  0.93807  0.68227  0.93983  1.0000
  C   C213      1.0  0.85668  0.72148  0.97984  1.0000
  H   H362      1.0  0.80584  0.67170  0.95662  1.0000
  H   H363      1.0  0.86730  0.64858  0.84581  1.0000
  H   H364      1.0  0.88103  0.62130  0.89547  1.0000
  C   C214      1.0  0.53722  0.88919  0.69913  1.0000
  H   H365      1.0  0.55384  0.69081  0.92930  1.0000
  H   H366      1.0  0.81525  0.72020  0.84744  1.0000
  H   H367      1.0  0.77722  0.69505  0.88772  1.0000
  H   H368      1.0  0.56717  0.00277  0.82090  1.0000
  H   H369      1.0  0.79025  0.61263  0.90937  1.0000
  H   H370      1.0  0.81900  0.57632  0.87110  1.0000
  H   H371      1.0  0.78688  0.62557  0.85263  1.0000
  C   C215      1.0  0.84282  0.68137  0.94939  1.0000
  H   H372      1.0  0.52367  0.63784  0.91743  1.0000
  H   H373      1.0  0.94859  0.66355  0.88550  1.0000
  H   H374      1.0  0.89859  0.72443  0.85612  1.0000
  S   S63       1.0  0.52971  0.82047  0.92917  1.0000
  C   C216      1.0  0.79876  0.76418  0.90122  1.0000
  C   C217      1.0  0.55339  0.99614  0.92157  1.0000
  H   H375      1.0  0.78594  0.76104  0.93507  1.0000
  H   H376      1.0  0.57999  0.63463  0.93972  1.0000
  H   H377      1.0  0.58570  0.92720  0.78660  1.0000
  C   C218      1.0  0.93998  0.69403  0.90576  1.0000
  H   H378      1.0  0.56609  0.96216  0.93131  1.0000
  C   C219      1.0  0.59183  0.00278  0.79290  1.0000
  H   H379      1.0  0.61789  0.01148  0.70737  1.0000
  H   H380      1.0  0.57490  0.89600  0.69443  1.0000
  C   C220      1.0  0.54710  0.65431  0.94087  1.0000
  C   C221      1.0  0.68655  0.74342  0.98212  1.0000
  C   C222      1.0  0.98155  0.53867  0.97828  1.0000
  H   H381      1.0  0.54339  0.97272  0.66758  1.0000
  C   C223      1.0  0.70905  0.70012  0.98409  1.0000
  H   H382      1.0  0.56875  0.73696  0.98253  1.0000
  C   C224      1.0  0.52307  0.65224  0.98574  1.0000
  H   H383      1.0  0.51937  0.52125  0.98096  1.0000
  H   H384      1.0  0.68413  0.01707  0.75914  1.0000
  S   S64       1.0  0.79870  0.56558  0.98970  1.0000
