data_image0
_chemical_formula_structural       FeS2FeSCFeSFeS3H2FeHSH2CHCHSHFeS2FeS2FeSFeS3FeH2FeHSH2SH3C3H3C6H4C6H5C3H2CHC2HC3HCH4CH4CNC7H3C2H4SHNC4HC3H8NH12FeHCH3CH2C5HCH2CHNHC4HCH4SHCH6CH4CH5C3HSHCH3CH5CH2SH2CSH4CNC2HC2HCH2CHCHCHC2HSH9CHCFeSHCH2CH5FeCH2CHC2H2CHCFeS2FeS2FeSFeS3FeSFeS2CNFeSHCH3CHC3H7C3HC2H3C6H5C4H2CHCHCHC2H4NC2NCH5CH2CHC2HCH2CH2CSHCH2FeH3CH6C3H4C2H3CHSH2CHCH2NH2C2H5C3H5CH3CHNCHCH2C2HSCSHCH3SH3CH2CSH2C2H4CH3CHCH4SCH3C2H4FeS2FeSHS2FeSHFeS2FeSFeS3FeS2FeS2FeSFeS4C2H3SH2SH2NCHCH2CHSH2C7H4C2SH2CHNC2H2C3H2C6H4C2H2CH3CHC6H7CFeHC3H8C3H2NH4SH2C3SCH2NHCH2CH2CHC3H10C2H2CH4CHC2H2C2H4C2HSHCH4CHC2HFeNH3CH3NH6CH3CH2C2H7CHCNCH2C2HC2HCH6CH3FeCHCHC4H5CFeH2C2H3NCH4CHC3H2C2HCH2FeSFeS2FeSNS2FeSFeS2FeSHFeSFeHS3HCHC2FeH3C2HC2SHCH6C6H4C6H6C2H5CHSH3CH5C2H2C3HC3H9CH7C2HCH3CHC3NH2SC3NH5C2H4C2FeHCNC2H3CH2C2HSH3CSH4CH3CSH2CH2C2HFeHCHSHFeHCNHCHCHCHCH6CH3NCH6CH16SH7CHCHSH2C2H3CH2C2H2CHC3H2CFeS2FeSHFeSFeS4HFeCSHNHCH2SCFeS2FeSCFeSFeS3CH4CH2S2CHC2H4C4HCH2FeHC6H4FeC3H2CH2CHC3H3CHC6H3C4HCH2C2HFeH2NH2C2H2CHC2H4CFeNH2SCHC2SCH7C2HCH2SH3CNH3CH2C2NH2CH3CHCH2CHSHCH4CH4CH4CH10CH2CHCH2CH5C2HC2H5C2H3C2H2C2H2CSHC3H2C3HCH2CH3CH2FeS2FeS2FeSFeS3FeSFeS2HNFeSH2CH4SH2SHCH3C3HC3H3C6H4C2HC2SH3CHC5H2C2H2C2HCH3SC2HCH5SCH3SHCH4FeH3CHSHCH2NHC2H2NH3C2H2CHC2HCH3C2H2C2HC2H2NH2CH3CH2CSNC8H12CH7SC2H2CHCHCH2SCFeCH2CH3CH2NH5CHCH6CH6CH2CH4CHNCH4FeSFeS2FeSFeS2FeSCFeS2FeSFeS3FeS2FeS2FeSFeS4C2SCH4SCH5CH2CHCHC3H2C2H4C4HCH2CH4CHCHC6H4C3H2CH4C6H3SCHCH5FeC3NC2H2CH3CHCH2C2H2NC8H20CH3FeCH4FeH9SCH2CH14C2H6SH2CHCH2CHCHCN2C2HCH2CHC2H4NCHCHCHCHC3HFeH3SHNCH2CH4C3H2CHFeSFeS2FeSFeS2FeSFeS2FeSHFeSFeHS3HCHC2HCH2C2SH2C2H2CH2CHC6H4C6H4CSH5CH3CH9CH2CHC2HC2NHC3H3CH8C2NHC2H4SCHNC3H2CFeH5C2H2CHSH2CH4CH2CH2NH3CH4CH8NHSHCSC3HCH3CHC2H3CH5CH2C2H2NCHCSH2CH3CH3CH2CH2C2H4CH2CH2SHCH5CHCHCH4SCHCH2CH2CHFeS2HSHFeSFeSH2NCFeCSC2HCSHSHFeS2FeS2FeSFeS3CHCH3CH2CH2C2H4C3H2CH2CHC6H4C4H2C3NHC3H5C6H3C3HFeSH2C2H4SH6CHSNH2CH3NHC2H2C2HCH3SCH2C2H2C2H2CH2CH3SHCH2CH4CHCH3CHCH2SHC2H7CNHCHSFeCHC2HCHCH5NCH3C2HC3HSH4CH3CH4CHCH2CH4FeS2FeS2FeSFeS3FeSCSC2Fe2SC2SCHC3H2FeHSCHC6HCH3C6H6C3NH3C2HCHCH2C7H5CHC2H3CH2CH8SN2CH4CH4FeCHCH3NH6CH4CHSH2SH2CH4CH5SCH4CHC4H6C2HCH5C2H2NC5HC2H10CH5FeCH7CHFeH5CH2SH3NC7H5SH2C2H5CHC2H4CHC2H4C2HC2SH8Fe2SFeS2FeSCHSFeSCFeS2FeSFeS3FeS2FeS2FeSFeS4H4CSHFeSHCH4C2H3CH2C2HFeC2H4C2HCHCHC3H2C2H3C6H4C4HCHCH2C6H3CNC5HC2H11CS2H6CH8CH3FeH10NCNHCNC3H7CH2NC2H2CHC2H2CSH2CHCH4CH2C2H2FeSCH4CH3C2H4CH2NC8H14CH2C3H3CH3CH2CHC2H2C2HNH2C3H2FeSFeS2FeSFeS2FeSFeS2FeSHFeSFeS4CH4CH3C2FeCNH2CH2SHCHC6H4C6H5SH8C3NC5HCH14C2H7CHNCH2C2SHSCH2SH3C2SHC2H4CH5CH7C2H3SH3CH2FeHCHCSH5CNC8H12C2H2NH3NHCH4CHC4H3CH3CH7C2HSH2C2HFeS2FeSHFeSFeS3C2NHSCH5SHFeS2FeS2FeSFeS3H2C2HSHCS2H2C3HCHC4FeCH4C6H3SCFeC3H4CSC2H6C4HCH3C2HC3H4CHSHFeSCH6CHCHCH3C2H2CH5CH3NC8H12CH7NHC3H2C3H2FeHCH6CH2C2H3CH2CH3CH2SC2FeHCHNH3CH6FeC2H8FeS2FeS2FeSFeS3FeSFeS2CHFeSCH3C4HCH2CHC9H3C6H6C3HSCHCH2C3H3CH3SCH4NHC2H7CH2CSH4NCHC2H2CSC2NH3SC2HNHCHCH2CSCHNC5SH10CHC3H7CH4CH2CHCH3CH11CH3FeHCHCHCHCH3CH2CH3CHCH5C2H6CHCHCNHC2SFeS2FeSFeCSFeSCFeS2FeSFeS3FeS2FeS2FeSFeS5H3CSNHSH2NC3HFeHCH3C3HC3H4CH4C2HCH3C2H3C6H4C2HCHCHC2HC6H3CHNC8H20NHC2H6C2H7CH3CHC2H9CH2CHCHC3H3CH6CH4CHSHCHNHCHNH3NHCH4CSH2CH2FeH4CH4SCH2CHC2H5FeC2HCH5C3H6CH2CHC3HCHNHCH4C4H2C2H4CH2C5H2CFeHC5HC2HSC2H6FeCFeS2FeSHS2FeSFeS2FeS2FeSFeHS3CSNHCHCSHC2H2C2HFeH2C2SC7H4C6H7NC8H20NC5HC2HCHCH5SCH3CH13SH9C2H2CS2H3C2H3C2HSH2CHC3SC2H2CSH5FeH3CHCNHCH11NH4CH3CHCHC2H2CH2FeHCH2CH5CHC2
_chemical_formula_sum              "Fe192 S384 C1344 H2304 N96"
_cell_length_a       57.1303
_cell_length_b       57.3051
_cell_length_c       42.7184
_cell_angle_alpha    90.0221
_cell_angle_beta     89.9943
_cell_angle_gamma    119.985

_space_group_name_H-M_alt    "P 1"
_space_group_IT_number       1

loop_
  _space_group_symop_operation_xyz
  'x, y, z'

loop_
  _atom_site_type_symbol
  _atom_site_label
  _atom_site_symmetry_multiplicity
  _atom_site_fract_x
  _atom_site_fract_y
  _atom_site_fract_z
  _atom_site_occupancy
  Fe  Fe1       1.0  0.35647  0.10975  0.05623  1.0000
  S   S1        1.0  0.36158  0.09463  0.10258  1.0000
  S   S2        1.0  0.34159  0.13928  0.04900  1.0000
  Fe  Fe2       1.0  0.37543  0.07617  0.02024  1.0000
  S   S3        1.0  0.38325  0.05952  0.06418  1.0000
  C   C1        1.0  0.24675  0.02759  0.10727  1.0000
  Fe  Fe3       1.0  0.34307  0.05416  0.07927  1.0000
  S   S4        1.0  0.30948  0.01397  0.09642  1.0000
  Fe  Fe4       1.0  0.40156  0.10198  0.08315  1.0000
  S   S5        1.0  0.43691  0.12675  0.11655  1.0000
  S   S6        1.0  0.33464  0.06872  0.03443  1.0000
  S   S7        1.0  0.39700  0.11912  0.03767  1.0000
  H   H1        1.0  0.27202  0.06451  0.05923  1.0000
  H   H2        1.0  0.18961  0.00934  0.39506  1.0000
  Fe  Fe5       1.0  0.10907  0.21822  0.12566  1.0000
  H   H3        1.0  0.44929  0.21409  0.16551  1.0000
  S   S8        1.0  0.06665  0.18188  0.11892  1.0000
  H   H4        1.0  0.41944  0.20750  0.05305  1.0000
  H   H5        1.0  0.34116  0.18916  0.05298  1.0000
  C   C2        1.0  0.10102  0.15153  0.19119  1.0000
  H   H6        1.0  0.46620  0.10412  0.19310  1.0000
  C   C3        1.0  0.30599  0.03017  0.43199  1.0000
  H   H7        1.0  0.23892  0.02281  0.03244  1.0000
  S   S9        1.0  0.13872  0.20706  0.14524  1.0000
  H   H8        1.0  0.27268  0.03153  0.02354  1.0000
  Fe  Fe6       1.0  0.21330  0.16709  0.38066  1.0000
  S   S10       1.0  0.24305  0.18213  0.34139  1.0000
  S   S11       1.0  0.20994  0.19820  0.41000  1.0000
  Fe  Fe7       1.0  0.19255  0.10718  0.36580  1.0000
  S   S12       1.0  0.22130  0.11886  0.32493  1.0000
  S   S13       1.0  0.16212  0.06169  0.36929  1.0000
  Fe  Fe8       1.0  0.25217  0.15014  0.35689  1.0000
  S   S14       1.0  0.29578  0.16028  0.35390  1.0000
  Fe  Fe9       1.0  0.20952  0.14981  0.31340  1.0000
  S   S15       1.0  0.20392  0.15831  0.26313  1.0000
  S   S16       1.0  0.22461  0.13693  0.39878  1.0000
  S   S17       1.0  0.17861  0.13641  0.35156  1.0000
  Fe  Fe10      1.0  0.45316  0.18398  0.45634  1.0000
  H   H9        1.0  0.28301  0.03792  0.39854  1.0000
  H   H10       1.0  0.27949  0.04671  0.43721  1.0000
  Fe  Fe11      1.0  0.41454  0.12223  0.45222  1.0000
  H   H11       1.0  0.28897  0.07969  0.02388  1.0000
  S   S18       1.0  0.40056  0.08707  0.41756  1.0000
  H   H12       1.0  0.30386  0.15487  0.46792  1.0000
  H   H13       1.0  0.41561  0.21976  0.13685  1.0000
  S   S19       1.0  0.41413  0.15807  0.43086  1.0000
  H   H14       1.0  0.26047  0.17381  0.25044  1.0000
  H   H15       1.0  0.37515  0.05055  0.47116  1.0000
  H   H16       1.0  0.02908  0.24162  0.44985  1.0000
  C   C4        1.0  0.16454  0.03949  0.42685  1.0000
  C   C5        1.0  0.15280  0.03517  0.39711  1.0000
  C   C6        1.0  0.13285  0.00877  0.38884  1.0000
  H   H17       1.0  0.42915  0.16898  0.09493  1.0000
  H   H18       1.0  0.04909  0.14069  0.18433  1.0000
  H   H19       1.0  0.17986  0.05959  0.43366  1.0000
  C   C7        1.0  0.31269  0.16158  0.38890  1.0000
  C   C8        1.0  0.29997  0.15737  0.41797  1.0000
  C   C9        1.0  0.31387  0.15827  0.44550  1.0000
  C   C10       1.0  0.34047  0.16315  0.44413  1.0000
  C   C11       1.0  0.35330  0.16764  0.41506  1.0000
  C   C12       1.0  0.33945  0.16688  0.38753  1.0000
  H   H20       1.0  0.27942  0.15335  0.41934  1.0000
  H   H21       1.0  0.39674  0.14720  0.13811  1.0000
  H   H22       1.0  0.37392  0.17185  0.41373  1.0000
  H   H23       1.0  0.34947  0.17026  0.36511  1.0000
  C   C13       1.0  0.16833  0.21241  0.24097  1.0000
  C   C14       1.0  0.17447  0.19968  0.21706  1.0000
  C   C15       1.0  0.18492  0.18279  0.22427  1.0000
  C   C16       1.0  0.18958  0.17865  0.25543  1.0000
  C   C17       1.0  0.18338  0.19126  0.27948  1.0000
  C   C18       1.0  0.17271  0.20808  0.27223  1.0000
  H   H24       1.0  0.17145  0.20302  0.19290  1.0000
  H   H25       1.0  0.18965  0.17309  0.20554  1.0000
  H   H26       1.0  0.18686  0.18810  0.30363  1.0000
  H   H27       1.0  0.10405  0.18188  0.24058  1.0000
  H   H28       1.0  0.39841  0.21130  0.10082  1.0000
  C   C19       1.0  0.37013  0.03863  0.45000  1.0000
  C   C20       1.0  0.38012  0.05138  0.42119  1.0000
  C   C21       1.0  0.37334  0.03539  0.39397  1.0000
  H   H29       1.0  0.19808  0.07505  0.02526  1.0000
  H   H30       1.0  0.42962  0.17120  0.15082  1.0000
  C   C22       1.0  0.27252  0.10873  0.07884  1.0000
  H   H31       1.0  0.38096  0.04499  0.37155  1.0000
  C   C23       1.0  0.01953  0.20452  0.07025  1.0000
  C   C24       1.0  0.47230  0.14228  0.11026  1.0000
  H   H32       1.0  0.11999  0.16990  0.19844  1.0000
  C   C25       1.0  0.04174  0.20531  0.08567  1.0000
  C   C26       1.0  0.03914  0.18204  0.09957  1.0000
  C   C27       1.0  0.01399  0.15803  0.09795  1.0000
  H   H33       1.0  0.02224  0.09203  0.17953  1.0000
  C   C28       1.0  0.29849  0.22044  0.40830  1.0000
  H   H34       1.0  0.06095  0.22389  0.08662  1.0000
  H   H35       1.0  0.48157  0.16911  0.14958  1.0000
  H   H36       1.0  0.47003  0.11825  0.07045  1.0000
  H   H37       1.0  0.06951  0.16425  0.25196  1.0000
  C   C29       1.0  0.43919  0.21427  0.06502  1.0000
  H   H38       1.0  0.12891  0.13553  0.19378  1.0000
  H   H39       1.0  0.48463  0.23529  0.15928  1.0000
  H   H40       1.0  0.31840  0.02745  0.41398  1.0000
  H   H41       1.0  0.30665  0.09899  0.47041  1.0000
  C   C30       1.0  0.22474  0.00390  0.09553  1.0000
  N   N1        1.0  0.43509  0.20928  0.09985  1.0000
  C   C31       1.0  0.24366  0.10398  0.98271  1.0000
  C   C32       1.0  0.34357  0.15930  0.08131  1.0000
  C   C33       1.0  0.34571  0.15169  0.11177  1.0000
  C   C34       1.0  0.34819  0.16831  0.13715  1.0000
  C   C35       1.0  0.34862  0.19269  0.13227  1.0000
  C   C36       1.0  0.26851  0.06644  0.03408  1.0000
  C   C37       1.0  0.34306  0.18326  0.07648  1.0000
  H   H42       1.0  0.34547  0.13301  0.11586  1.0000
  H   H43       1.0  0.35012  0.16239  0.16064  1.0000
  H   H44       1.0  0.34451  0.21843  0.36354  1.0000
  C   C38       1.0  0.45321  0.20077  0.04799  1.0000
  C   C39       1.0  0.10955  0.13064  0.18223  1.0000
  H   H45       1.0  0.16524  0.02147  0.47104  1.0000
  H   H46       1.0  0.26595  0.24050  0.28976  1.0000
  H   H47       1.0  0.08572  0.20762  0.22144  1.0000
  H   H48       1.0  0.30551  0.06755  0.48014  1.0000
  S   S20       1.0  0.49046  0.22066  0.43743  1.0000
  H   H49       1.0  0.28892  0.00978  0.43739  1.0000
  N   N2        1.0  0.27008  0.16540  0.20402  1.0000
  C   C40       1.0  0.27243  0.16552  0.23931  1.0000
  C   C41       1.0  0.24035  0.15145  0.19622  1.0000
  C   C42       1.0  0.28333  0.19440  0.19351  1.0000
  C   C43       1.0  0.28414  0.15137  0.19022  1.0000
  H   H50       1.0  0.28145  0.13007  0.08631  1.0000
  C   C44       1.0  0.22333  0.12231  0.20849  1.0000
  C   C45       1.0  0.28204  0.19954  0.15835  1.0000
  C   C46       1.0  0.27502  0.13890  0.15720  1.0000
  H   H51       1.0  0.26375  0.14465  0.24856  1.0000
  H   H52       1.0  0.23665  0.15061  0.17072  1.0000
  H   H53       1.0  0.27444  0.20510  0.20626  1.0000
  H   H54       1.0  0.30525  0.20529  0.19926  1.0000
  H   H55       1.0  0.30638  0.16531  0.18944  1.0000
  H   H56       1.0  0.28108  0.13440  0.20568  1.0000
  H   H57       1.0  0.30061  0.17675  0.27827  1.0000
  H   H58       1.0  0.28981  0.04943  0.11586  1.0000
  N   N3        1.0  0.25092  0.07895  0.02971  1.0000
  H   H59       1.0  0.25327  0.03718  0.99477  1.0000
  H   H60       1.0  0.49303  0.08221  0.19484  1.0000
  H   H61       1.0  0.43920  0.17886  0.04469  1.0000
  H   H62       1.0  0.26113  0.19033  0.14924  1.0000
  H   H63       1.0  0.29429  0.19324  0.14437  1.0000
  H   H64       1.0  0.29271  0.14033  0.14470  1.0000
  H   H65       1.0  0.26686  0.14869  0.14197  1.0000
  H   H66       1.0  0.26038  0.11697  0.15879  1.0000
  H   H67       1.0  0.02197  0.22261  0.05929  1.0000
  H   H68       1.0  0.24359  0.04333  0.11665  1.0000
  H   H69       1.0  0.30990  0.20337  0.25085  1.0000
  H   H70       1.0  0.11399  0.13239  0.15672  1.0000
  Fe  Fe12      1.0  0.17031  0.23989  0.11563  1.0000
  H   H71       1.0  0.32254  0.22633  0.31419  1.0000
  C   C47       1.0  0.15615  0.01778  0.44803  1.0000
  H   H72       1.0  0.03650  0.12477  0.22122  1.0000
  H   H73       1.0  0.21280  0.04141  0.03418  1.0000
  H   H74       1.0  0.15546  0.00535  0.99450  1.0000
  C   C48       1.0  0.25402  0.24284  0.10542  1.0000
  H   H75       1.0  0.24684  0.22984  0.45795  1.0000
  H   H76       1.0  0.09432  0.10937  0.18656  1.0000
  C   C49       1.0  0.24674  0.08026  0.99482  1.0000
  C   C50       1.0  0.27292  0.03110  0.10678  1.0000
  C   C51       1.0  0.05186  0.12857  0.20283  1.0000
  C   C52       1.0  0.27711  0.01059  0.09541  1.0000
  C   C53       1.0  0.48330  0.13386  0.08658  1.0000
  H   H77       1.0  0.28528  0.11935  0.03097  1.0000
  C   C54       1.0  0.08318  0.16914  0.23136  1.0000
  H   H78       1.0  0.04510  0.08690  0.20280  1.0000
  H   H79       1.0  0.46955  0.20588  0.11482  1.0000
  C   C55       1.0  0.34573  0.20003  0.10191  1.0000
  H   H80       1.0  0.22003  0.12191  0.23414  1.0000
  N   N4        1.0  0.31543  0.07697  0.41321  1.0000
  H   H81       1.0  0.34703  0.11217  0.43682  1.0000
  C   C56       1.0  0.33283  0.07765  0.38629  1.0000
  C   C57       1.0  0.29474  0.04803  0.41999  1.0000
  C   C58       1.0  0.30075  0.09197  0.40541  1.0000
  C   C59       1.0  0.35368  0.10591  0.37417  1.0000
  H   H82       1.0  0.31784  0.03792  0.45386  1.0000
  C   C60       1.0  0.28471  0.08415  0.37443  1.0000
  H   H83       1.0  0.05555  0.10439  0.16525  1.0000
  H   H84       1.0  0.25437  0.09665  0.09345  1.0000
  H   H85       1.0  0.32025  0.06566  0.36611  1.0000
  H   H86       1.0  0.34473  0.06792  0.39300  1.0000
  S   S21       1.0  0.19252  0.00096  0.09419  1.0000
  H   H87       1.0  0.23079  0.24439  0.26513  1.0000
  C   C61       1.0  0.35692  0.00706  0.39543  1.0000
  H   H88       1.0  0.31508  0.11392  0.40459  1.0000
  H   H89       1.0  0.34433  0.11771  0.36603  1.0000
  H   H90       1.0  0.36926  0.11753  0.39205  1.0000
  H   H91       1.0  0.36456  0.10362  0.35390  1.0000
  H   H92       1.0  0.01948  0.15747  0.01977  1.0000
  H   H93       1.0  0.20298  0.11275  0.19753  1.0000
  C   C62       1.0  0.25053  0.24287  0.43798  1.0000
  H   H94       1.0  0.29805  0.08903  0.35372  1.0000
  H   H95       1.0  0.27436  0.09614  0.37209  1.0000
  H   H96       1.0  0.26885  0.06262  0.37379  1.0000
  H   H97       1.0  0.16795  0.21779  0.29089  1.0000
  C   C63       1.0  0.35384  0.01027  0.45148  1.0000
  H   H98       1.0  0.48563  0.11219  0.15807  1.0000
  H   H99       1.0  0.21904  0.23488  0.16916  1.0000
  H   H100      1.0  0.39923  0.17072  0.09116  1.0000
  H   H101      1.0  0.23246  0.10972  0.20293  1.0000
  H   H102      1.0  0.34575  0.21869  0.09797  1.0000
  C   C64       1.0  0.22436  0.06131  0.04601  1.0000
  C   C65       1.0  0.08268  0.12729  0.24234  1.0000
  C   C66       1.0  0.35919  0.23358  0.37988  1.0000
  H   H103      1.0  0.11061  0.15688  0.27677  1.0000
  S   S22       1.0  0.35292  0.21335  0.16466  1.0000
  H   H104      1.0  0.12741  0.15062  0.24478  1.0000
  C   C67       1.0  0.07806  0.18776  0.20982  1.0000
  H   H105      1.0  0.01175  0.13990  0.10859  1.0000
  H   H106      1.0  0.40217  0.17877  0.15192  1.0000
  H   H107      1.0  0.25434  0.11767  0.04049  1.0000
  C   C68       1.0  0.23652  0.23200  0.41005  1.0000
  H   H108      1.0  0.33709  0.01846  0.00639  1.0000
  H   H109      1.0  0.08013  0.10795  0.23374  1.0000
  H   H110      1.0  0.08876  0.19149  0.18717  1.0000
  H   H111      1.0  0.29136  0.22160  0.15459  1.0000
  H   H112      1.0  0.22785  0.05662  0.07020  1.0000
  C   C69       1.0  0.41853  0.17919  0.10451  1.0000
  H   H113      1.0  0.23117  0.16319  0.20558  1.0000
  H   H114      1.0  0.24673  0.22145  0.10393  1.0000
  S   S23       1.0  0.35691  0.16321  0.47908  1.0000
  H   H115      1.0  0.09426  0.15701  0.16931  1.0000
  H   H116      1.0  0.26297  0.12337  0.98467  1.0000
  C   C70       1.0  0.48989  0.16251  0.13112  1.0000
  S   S24       1.0  0.15546  0.23395  0.23228  1.0000
  H   H117      1.0  0.21361  0.09144  0.06208  1.0000
  H   H118      1.0  0.23584  0.22667  0.21727  1.0000
  H   H119      1.0  0.34717  0.08217  0.44545  1.0000
  H   H120      1.0  0.35796  0.22324  0.40235  1.0000
  C   C71       1.0  0.26581  0.10691  0.04359  1.0000
  N   N5        1.0  0.07995  0.14374  0.21649  1.0000
  C   C72       1.0  0.25742  0.03793  0.02015  1.0000
  C   C73       1.0  0.04372  0.10145  0.18695  1.0000
  H   H121      1.0  0.06616  0.12134  0.25983  1.0000
  C   C74       1.0  0.20489  0.07243  0.04851  1.0000
  C   C75       1.0  0.10966  0.14132  0.26051  1.0000
  H   H122      1.0  0.31521  0.17543  0.24177  1.0000
  C   C76       1.0  0.41900  0.22195  0.11119  1.0000
  H   H123      1.0  0.28805  0.10301  0.08384  1.0000
  H   H124      1.0  0.18650  0.05748  0.06130  1.0000
  C   C77       1.0  0.48715  0.11524  0.18378  1.0000
  H   H125      1.0  0.05617  0.17959  0.20550  1.0000
  C   C78       1.0  0.41159  0.16912  0.13848  1.0000
  H   H126      1.0  0.11146  0.12623  0.27509  1.0000
  C   C79       1.0  0.30134  0.18128  0.25285  1.0000
  H   H127      1.0  0.28005  0.20018  0.40737  1.0000
  C   C80       1.0  0.33333  0.09028  0.44119  1.0000
  C   C81       1.0  0.30587  0.23165  0.37468  1.0000
  H   H128      1.0  0.28607  0.08929  0.42412  1.0000
  S   S25       1.0  0.20092  0.22912  0.09742  1.0000
  H   H129      1.0  0.30586  0.21553  0.36051  1.0000
  H   H130      1.0  0.12361  0.00512  0.36592  1.0000
  H   H131      1.0  0.21978  0.00741  0.39382  1.0000
  H   H132      1.0  0.25758  0.21885  0.25587  1.0000
  H   H133      1.0  0.47799  0.23870  0.10270  1.0000
  H   H134      1.0  0.22747  0.10579  0.99459  1.0000
  H   H135      1.0  0.34645  0.00063  0.47393  1.0000
  H   H136      1.0  0.47170  0.20395  0.06022  1.0000
  H   H137      1.0  0.45178  0.23620  0.06001  1.0000
  C   C82       1.0  0.31853  0.08856  0.47209  1.0000
  H   H138      1.0  0.31454  0.21781  0.41937  1.0000
  C   C83       1.0  0.46436  0.22988  0.15002  1.0000
  Fe  Fe13      1.0  0.39417  0.15911  0.47548  1.0000
  S   S26       1.0  0.45599  0.14834  0.47368  1.0000
  H   H139      1.0  0.45929  0.20952  0.02416  1.0000
  C   C84       1.0  0.46235  0.22074  0.11559  1.0000
  H   H140      1.0  0.01607  0.18460  0.00517  1.0000
  H   H141      1.0  0.16193  0.22260  0.41287  1.0000
  C   C85       1.0  0.33652  0.01209  0.98240  1.0000
  H   H142      1.0  0.28848  0.23323  0.36540  1.0000
  H   H143      1.0  0.29345  0.23298  0.42346  1.0000
  H   H144      1.0  0.19136  0.23780  0.43674  1.0000
  H   H145      1.0  0.22891  0.06128  0.98641  1.0000
  H   H146      1.0  0.45486  0.23863  0.46319  1.0000
  Fe  Fe14      1.0  0.14915  0.23911  0.18095  1.0000
  C   C86       1.0  0.17992  0.24224  0.41899  1.0000
  H   H147      1.0  0.37962  0.24016  0.37021  1.0000
  H   H148      1.0  0.22961  0.24106  0.36315  1.0000
  C   C87       1.0  0.27369  0.23729  0.26728  1.0000
  H   H149      1.0  0.29045  0.23353  0.27309  1.0000
  C   C88       1.0  0.01503  0.16545  0.99824  1.0000
  C   C89       1.0  0.99442  0.18053  0.06856  1.0000
  H   H150      1.0  0.26277  0.24470  0.19103  1.0000
  H   H151      1.0  0.35206  0.99511  0.37430  1.0000
  C   C90       1.0  0.19746  0.99517  0.39260  1.0000
  H   H152      1.0  0.36828  0.03529  0.91258  1.0000
  C   C91       1.0  0.42957  0.23866  0.61980  1.0000
  Fe  Fe15      1.0  0.21729  0.06659  0.80421  1.0000
  S   S27       1.0  0.24249  0.09153  0.84469  1.0000
  S   S28       1.0  0.21193  0.02573  0.79158  1.0000
  Fe  Fe16      1.0  0.18660  0.09838  0.79958  1.0000
  S   S29       1.0  0.20898  0.12427  0.84053  1.0000
  S   S30       1.0  0.15442  0.10186  0.77166  1.0000
  Fe  Fe17      1.0  0.24565  0.12681  0.81775  1.0000
  S   S31       1.0  0.28147  0.16922  0.81851  1.0000
  Fe  Fe18      1.0  0.20357  0.08646  0.86328  1.0000
  S   S32       1.0  0.19286  0.07633  0.91451  1.0000
  S   S33       1.0  0.22349  0.10236  0.77538  1.0000
  S   S34       1.0  0.17814  0.06024  0.82415  1.0000
  Fe  Fe19      1.0  0.43387  0.15133  0.51568  1.0000
  S   S35       1.0  0.44531  0.15174  0.56667  1.0000
  Fe  Fe20      1.0  0.07405  0.21191  0.68604  1.0000
  S   S36       1.0  0.05607  0.18905  0.73077  1.0000
  S   S37       1.0  0.05918  0.19654  0.63690  1.0000
  C   C92       1.0  0.21916  0.01117  0.88085  1.0000
  N   N6        1.0  0.27102  0.03489  0.89033  1.0000
  Fe  Fe21      1.0  0.09934  0.20737  0.74758  1.0000
  S   S38       1.0  0.11990  0.19196  0.78136  1.0000
  H   H153      1.0  0.20436  0.01431  0.86727  1.0000
  C   C93       1.0  0.14656  0.11189  0.88589  1.0000
  H   H154      1.0  0.30417  0.05887  0.83721  1.0000
  H   H155      1.0  0.20746  0.19510  0.79588  1.0000
  H   H156      1.0  0.42522  0.21050  0.67491  1.0000
  C   C94       1.0  0.33605  0.21097  0.73427  1.0000
  H   H157      1.0  0.45824  0.21464  0.63544  1.0000
  C   C95       1.0  0.02498  0.18479  0.62756  1.0000
  C   C96       1.0  0.26289  0.20180  0.72289  1.0000
  C   C97       1.0  0.30070  0.01482  0.87084  1.0000
  H   H158      1.0  0.31397  0.06348  0.89718  1.0000
  H   H159      1.0  0.03025  0.17817  0.57906  1.0000
  H   H160      1.0  0.10177  0.08114  0.82209  1.0000
  H   H161      1.0  0.09552  0.10242  0.84784  1.0000
  H   H162      1.0  0.46340  0.22299  0.81683  1.0000
  H   H163      1.0  0.19508  0.21236  0.75486  1.0000
  H   H164      1.0  0.40422  0.23383  0.85291  1.0000
  C   C98       1.0  0.30159  0.18463  0.78535  1.0000
  C   C99       1.0  0.31748  0.21282  0.78469  1.0000
  C   C100      1.0  0.33449  0.22596  0.75916  1.0000
  H   H165      1.0  0.21944  0.19888  0.69934  1.0000
  C   C101      1.0  0.31999  0.18276  0.73476  1.0000
  C   C102      1.0  0.30268  0.16958  0.76020  1.0000
  H   H166      1.0  0.31666  0.22457  0.80407  1.0000
  H   H167      1.0  0.35727  0.19961  0.79753  1.0000
  H   H168      1.0  0.29054  0.14783  0.76054  1.0000
  C   C103      1.0  0.14502  0.12701  0.77481  1.0000
  C   C104      1.0  0.12887  0.12898  0.75126  1.0000
  C   C105      1.0  0.12118  0.14885  0.75264  1.0000
  C   C106      1.0  0.12921  0.16673  0.77792  1.0000
  C   C107      1.0  0.14518  0.16458  0.80163  1.0000
  C   C108      1.0  0.15321  0.14498  0.80002  1.0000
  H   H169      1.0  0.12237  0.11514  0.73169  1.0000
  H   H170      1.0  0.10883  0.15017  0.73429  1.0000
  H   H171      1.0  0.15147  0.17829  0.82132  1.0000
  H   H172      1.0  0.16568  0.14379  0.81824  1.0000
  H   H173      1.0  0.39004  0.23618  0.76672  1.0000
  C   C109      1.0  0.22194  0.20506  0.72442  1.0000
  C   C110      1.0  0.22283  0.16493  0.74675  1.0000
  C   C111      1.0  0.17535  0.04230  0.92685  1.0000
  C   C112      1.0  0.16370  0.02110  0.90534  1.0000
  H   H174      1.0  0.00496  0.15911  0.88004  1.0000
  H   H175      1.0  0.10722  0.01978  0.81300  1.0000
  C   C113      1.0  0.17230  0.03646  0.95901  1.0000
  H   H176      1.0  0.16590  0.02527  0.88052  1.0000
  C   C114      1.0  0.23636  0.01538  0.79146  1.0000
  H   H177      1.0  0.26579  0.20878  0.78145  1.0000
  C   C115      1.0  0.19385  0.19745  0.73735  1.0000
  H   H178      1.0  0.18064  0.19674  0.71784  1.0000
  C   C116      1.0  0.28206  0.02364  0.78359  1.0000
  C   C117      1.0  0.26367  0.03325  0.78519  1.0000
  H   H179      1.0  0.11573  0.07310  0.92539  1.0000
  H   H180      1.0  0.00089  0.19405  0.96220  1.0000
  H   H181      1.0  0.27044  0.05424  0.78065  1.0000
  H   H182      1.0  0.31037  0.02186  0.84755  1.0000
  N   N7        1.0  0.23808  0.19508  0.74212  1.0000
  C   C118      1.0  0.40549  0.23060  0.77292  1.0000
  C   C119      1.0  0.10721  0.03770  0.82294  1.0000
  N   N8        1.0  0.11279  0.06144  0.87646  1.0000
  C   C120      1.0  0.35407  0.02147  0.92959  1.0000
  H   H183      1.0  0.29303  0.07757  0.90081  1.0000
  H   H184      1.0  0.01701  0.17149  0.93086  1.0000
  H   H185      1.0  0.26751  0.01416  0.84712  1.0000
  H   H186      1.0  0.15375  0.11113  0.90982  1.0000
  H   H187      1.0  0.19758  0.15248  0.70407  1.0000
  C   C121      1.0  0.26607  0.02763  0.92456  1.0000
  H   H188      1.0  0.23600  0.15848  0.75879  1.0000
  H   H189      1.0  0.28874  0.07933  0.84379  1.0000
  C   C122      1.0  0.21170  0.14786  0.71677  1.0000
  H   H190      1.0  0.04855  0.23231  0.57897  1.0000
  C   C123      1.0  0.11470  0.05646  0.91090  1.0000
  C   C124      1.0  0.38535  0.19230  0.56700  1.0000
  H   H191      1.0  0.36328  0.19449  0.85664  1.0000
  C   C125      1.0  0.09133  0.03020  0.92465  1.0000
  H   H192      1.0  0.06837  0.07249  0.83245  1.0000
  H   H193      1.0  0.42988  0.18201  0.67547  1.0000
  C   C126      1.0  0.30307  0.07340  0.85331  1.0000
  H   H194      1.0  0.41605  0.23432  0.64038  1.0000
  H   H195      1.0  0.20528  0.15823  0.76259  1.0000
  C   C127      1.0  0.47324  0.23763  0.57898  1.0000
  S   S39       1.0  0.11723  0.22737  0.70141  1.0000
  H   H196      1.0  0.31519  0.02714  0.88920  1.0000
  C   C128      1.0  0.36288  0.18062  0.83831  1.0000
  H   H197      1.0  0.38322  0.19806  0.73874  1.0000
  H   H198      1.0  0.41571  0.22463  0.72569  1.0000
  Fe  Fe22      1.0  0.05814  0.22767  0.74625  1.0000
  H   H199      1.0  0.32106  0.17105  0.71550  1.0000
  H   H200      1.0  0.41899  0.20482  0.83927  1.0000
  H   H201      1.0  0.23593  0.21165  0.82127  1.0000
  C   C129      1.0  0.42170  0.19257  0.66127  1.0000
  H   H202      1.0  0.48215  0.24037  0.55522  1.0000
  H   H203      1.0  0.32331  0.09188  0.85339  1.0000
  H   H204      1.0  0.12437  0.05547  0.81196  1.0000
  H   H205      1.0  0.12957  0.11595  0.88732  1.0000
  H   H206      1.0  0.30307  0.03741  0.77815  1.0000
  H   H207      1.0  0.12689  0.03391  0.86417  1.0000
  C   C130      1.0  0.39670  0.19278  0.60001  1.0000
  C   C131      1.0  0.45045  0.23091  0.80788  1.0000
  C   C132      1.0  0.15783  0.00963  0.96965  1.0000
  H   H208      1.0  0.00359  0.13619  0.93512  1.0000
  H   H209      1.0  0.19994  0.12625  0.72345  1.0000
  H   H210      1.0  0.27380  0.19204  0.73300  1.0000
  H   H211      1.0  0.13372  0.05621  0.91595  1.0000
  C   C133      1.0  0.28385  0.23207  0.71924  1.0000
  C   C134      1.0  0.01610  0.17705  0.59666  1.0000
  H   H212      1.0  0.36302  0.17910  0.56730  1.0000
  H   H213      1.0  0.37087  0.17864  0.78972  1.0000
  H   H214      1.0  0.41606  0.19109  0.80166  1.0000
  C   C135      1.0  0.22753  0.19763  0.80108  1.0000
  H   H215      1.0  0.08781  0.03618  0.81588  1.0000
  S   S40       1.0  0.02320  0.22789  0.77121  1.0000
  H   H216      1.0  0.14017  0.09087  0.84231  1.0000
  H   H217      1.0  0.39251  0.17172  0.60348  1.0000
  C   C136      1.0  0.44254  0.21799  0.57641  1.0000
  H   H218      1.0  0.39969  0.17855  0.65866  1.0000
  C   C137      1.0  0.03432  0.22576  0.53219  1.0000
  H   H219      1.0  0.08644  0.07622  0.89151  1.0000
  H   H220      1.0  0.45469  0.23447  0.78257  1.0000
  N   N9        1.0  0.42627  0.21295  0.60600  1.0000
  H   H221      1.0  0.37489  0.17132  0.84605  1.0000
  H   H222      1.0  0.18302  0.17710  0.74750  1.0000
  C   C138      1.0  0.13920  0.08592  0.86748  1.0000
  C   C139      1.0  0.27296  0.01347  0.87185  1.0000
  H   H223      1.0  0.23320  0.22743  0.72326  1.0000
  H   H224      1.0  0.48351  0.22948  0.59362  1.0000
  H   H225      1.0  0.34153  0.16413  0.83616  1.0000
  H   H226      1.0  0.25731  0.19370  0.69869  1.0000
  H   H227      1.0  0.43587  0.18227  0.61954  1.0000
  C   C140      1.0  0.10968  0.03724  0.85878  1.0000
  C   C141      1.0  0.37244  0.19445  0.80617  1.0000
  C   C142      1.0  0.08925  0.08123  0.84175  1.0000
  H   H228      1.0  0.28203  0.01972  0.96694  1.0000
  H   H229      1.0  0.39311  0.18338  0.54964  1.0000
  H   H230      1.0  0.30801  0.04298  0.94187  1.0000
  H   H231      1.0  0.47009  0.16762  0.62731  1.0000
  H   H232      1.0  0.03290  0.23608  0.51103  1.0000
  C   C143      1.0  0.08873  0.06522  0.87130  1.0000
  H   H233      1.0  0.36100  0.23092  0.83392  1.0000
  H   H234      1.0  0.01316  0.18894  0.67415  1.0000
  H   H235      1.0  0.38350  0.19536  0.61722  1.0000
  C   C144      1.0  0.00654  0.18318  0.65022  1.0000
  H   H236      1.0  0.41433  0.20026  0.75191  1.0000
  N   N10       1.0  0.40043  0.21872  0.80536  1.0000
  C   C145      1.0  0.29567  0.06250  0.88706  1.0000
  H   H237      1.0  0.22802  0.14990  0.70099  1.0000
  C   C146      1.0  0.40440  0.21204  0.74606  1.0000
  H   H238      1.0  0.22523  0.17815  0.80905  1.0000
  H   H239      1.0  0.15612  0.08185  0.87098  1.0000
  C   C147      1.0  0.47865  0.17545  0.57806  1.0000
  C   C148      1.0  0.42053  0.21001  0.81395  1.0000
  H   H240      1.0  0.06974  0.04533  0.87055  1.0000
  S   S41       1.0  0.35822  0.22696  0.70269  1.0000
  C   C149      1.0  0.48536  0.17922  0.61000  1.0000
  S   S42       1.0  0.37915  0.06334  0.97121  1.0000
  H   H241      1.0  0.16357  0.12936  0.87399  1.0000
  C   C150      1.0  0.24743  0.20916  0.77337  1.0000
  H   H242      1.0  0.18088  0.05275  0.97575  1.0000
  H   H243      1.0  0.46784  0.23342  0.71584  1.0000
  H   H244      1.0  0.43981  0.19861  0.56724  1.0000
  S   S43       1.0  0.43306  0.18798  0.49925  1.0000
  H   H245      1.0  0.24571  0.05331  0.89048  1.0000
  H   H246      1.0  0.01429  0.20854  0.53844  1.0000
  H   H247      1.0  0.04708  0.21691  0.52574  1.0000
  C   C151      1.0  0.43668  0.20064  0.62955  1.0000
  H   H248      1.0  0.29268  0.24187  0.74198  1.0000
  H   H249      1.0  0.38970  0.21231  0.55862  1.0000
  C   C152      1.0  0.40333  0.23998  0.82842  1.0000
  S   S44       1.0  0.39269  0.12231  0.49595  1.0000
  H   H250      1.0  0.33374  0.09912  0.49076  1.0000
  H   H251      1.0  0.25355  0.23084  0.77128  1.0000
  C   C153      1.0  0.99783  0.15176  0.93013  1.0000
  C   C154      1.0  0.24717  0.03687  0.87828  1.0000
  H   H252      1.0  0.24965  0.04215  0.85298  1.0000
  H   H253      1.0  0.23853  0.10093  0.95741  1.0000
  H   H254      1.0  0.27544  0.24323  0.70688  1.0000
  H   H255      1.0  0.30096  0.23406  0.70479  1.0000
  C   C155      1.0  0.35493  0.03009  0.96054  1.0000
  H   H256      1.0  0.09294  0.01240  0.91756  1.0000
  H   H257      1.0  0.43533  0.22606  0.55743  1.0000
  H   H258      1.0  0.49371  0.18755  0.53119  1.0000
  C   C156      1.0  0.28791  0.02444  0.94197  1.0000
  H   H259      1.0  0.09112  0.01858  0.86618  1.0000
  C   C157      1.0  0.00638  0.24151  0.58460  1.0000
  H   H260      1.0  0.26320  0.04293  0.93748  1.0000
  H   H261      1.0  0.09280  0.03113  0.95061  1.0000
  H   H262      1.0  0.00667  0.22499  0.59798  1.0000
  H   H263      1.0  0.07121  0.02720  0.91827  1.0000
  S   S45       1.0  0.09934  0.24397  0.76731  1.0000
  C   C158      1.0  0.27345  0.99633  0.78919  1.0000
  H   H264      1.0  0.21166  0.00707  0.90532  1.0000
  H   H265      1.0  0.24714  0.00811  0.92788  1.0000
  H   H266      1.0  0.28937  0.00716  0.93275  1.0000
  C   C159      1.0  0.04755  0.24506  0.55998  1.0000
  C   C160      1.0  0.33493  0.99508  0.92051  1.0000
  H   H267      1.0  0.26423  0.08194  0.98131  1.0000
  H   H268      1.0  0.03118  0.16948  0.98109  1.0000
  H   H269      1.0  0.24101  0.27031  0.17091  1.0000
  H   H270      1.0  0.32412  0.27490  0.41337  1.0000
  Fe  Fe23      1.0  0.09478  0.42150  0.04320  1.0000
  S   S46       1.0  0.09913  0.40240  0.99918  1.0000
  S   S47       1.0  0.05986  0.39736  0.07681  1.0000
  Fe  Fe24      1.0  0.14052  0.41442  0.01737  1.0000
  S   S48       1.0  0.15707  0.38594  0.01265  1.0000
  H   H271      1.0  0.42407  0.47534  0.27190  1.0000
  S   S49       1.0  0.11758  0.24840  0.16390  1.0000
  S   S50       1.0  0.13556  0.43146  0.06248  1.0000
  Fe  Fe25      1.0  0.36770  0.25747  0.15626  1.0000
  S   S51       1.0  0.37596  0.27969  0.11076  1.0000
  H   H272      1.0  0.24696  0.33251  0.44288  1.0000
  Fe  Fe26      1.0  0.38402  0.30793  0.19515  1.0000
  S   S52       1.0  0.39503  0.33452  0.15255  1.0000
  S   S53       1.0  0.38206  0.31888  0.24589  1.0000
  Fe  Fe27      1.0  0.35597  0.30084  0.13311  1.0000
  S   S54       1.0  0.32635  0.31234  0.11326  1.0000
  Fe  Fe28      1.0  0.41463  0.31137  0.13385  1.0000
  S   S55       1.0  0.45189  0.32296  0.10278  1.0000
  S   S56       1.0  0.34436  0.27568  0.17649  1.0000
  S   S57       1.0  0.40689  0.28756  0.17850  1.0000
  Fe  Fe29      1.0  0.29997  0.37563  0.32589  1.0000
  S   S58       1.0  0.32949  0.38424  0.36463  1.0000
  S   S59       1.0  0.30741  0.36912  0.27553  1.0000
  Fe  Fe30      1.0  0.25911  0.37818  0.36963  1.0000
  S   S60       1.0  0.28559  0.38671  0.41209  1.0000
  S   S61       1.0  0.21689  0.37219  0.36657  1.0000
  Fe  Fe31      1.0  0.31954  0.41586  0.38078  1.0000
  S   S62       1.0  0.35670  0.45678  0.39222  1.0000
  Fe  Fe32      1.0  0.29314  0.35462  0.39193  1.0000
  S   S63       1.0  0.29488  0.32278  0.42143  1.0000
  S   S64       1.0  0.29242  0.40920  0.33944  1.0000
  S   S65       1.0  0.26423  0.34401  0.35206  1.0000
  S   S66       1.0  0.15603  0.32027  0.13314  1.0000
  C   C161      1.0  0.24320  0.26540  0.25635  1.0000
  C   C162      1.0  0.25499  0.28472  0.28466  1.0000
  H   H273      1.0  0.32347  0.45034  0.28228  1.0000
  H   H274      1.0  0.42630  0.25483  0.07887  1.0000
  H   H275      1.0  0.37000  0.31170  0.39160  1.0000
  S   S67       1.0  0.09672  0.44914  0.43972  1.0000
  H   H276      1.0  0.34548  0.32122  0.40105  1.0000
  H   H277      1.0  0.42142  0.26075  0.11863  1.0000
  S   S68       1.0  0.09402  0.38019  0.44686  1.0000
  H   H278      1.0  0.01296  0.36271  0.11258  1.0000
  H   H279      1.0  0.21388  0.25365  0.19890  1.0000
  N   N11       1.0  0.25384  0.44201  0.99933  1.0000
  C   C163      1.0  0.28314  0.49186  0.01793  1.0000
  H   H280      1.0  0.05951  0.44741  0.16638  1.0000
  C   C164      1.0  0.40153  0.45950  0.32463  1.0000
  H   H281      1.0  0.28848  0.28687  0.17284  1.0000
  H   H282      1.0  0.24134  0.33133  0.17657  1.0000
  C   C165      1.0  0.47407  0.25614  0.45766  1.0000
  H   H283      1.0  0.14116  0.29788  0.25782  1.0000
  S   S69       1.0  0.01633  0.32000  0.46159  1.0000
  H   H284      1.0  0.23120  0.39436  0.06029  1.0000
  H   H285      1.0  0.15981  0.33728  0.01948  1.0000
  C   C166      1.0  0.00687  0.27604  0.04725  1.0000
  C   C167      1.0  0.20093  0.37537  0.40044  1.0000
  C   C168      1.0  0.21274  0.37898  0.43000  1.0000
  C   C169      1.0  0.19883  0.37977  0.45679  1.0000
  C   C170      1.0  0.17320  0.37734  0.45423  1.0000
  C   C171      1.0  0.16156  0.37419  0.42460  1.0000
  C   C172      1.0  0.17536  0.37309  0.39782  1.0000
  H   H286      1.0  0.23242  0.38080  0.43233  1.0000
  H   H287      1.0  0.16958  0.31231  0.28466  1.0000
  H   H288      1.0  0.14177  0.37215  0.42238  1.0000
  H   H289      1.0  0.16608  0.37027  0.37502  1.0000
  C   C173      1.0  0.27254  0.28798  0.41576  1.0000
  C   C174      1.0  0.25868  0.27728  0.38754  1.0000
  S   S70       1.0  0.11057  0.46232  0.02099  1.0000
  H   H290      1.0  0.27575  0.28969  0.29095  1.0000
  H   H291      1.0  0.49336  0.33908  0.05616  1.0000
  C   C175      1.0  0.26884  0.27054  0.44058  1.0000
  H   H292      1.0  0.26158  0.29055  0.36812  1.0000
  N   N12       1.0  0.19248  0.29062  0.43487  1.0000
  C   C176      1.0  0.29152  0.28874  0.10983  1.0000
  C   C177      1.0  0.28187  0.26099  0.10916  1.0000
  H   H293      1.0  0.22192  0.47553  0.01637  1.0000
  H   H294      1.0  0.16454  0.28762  0.38010  1.0000
  C   C178      1.0  0.24522  0.27998  0.10488  1.0000
  C   C179      1.0  0.27309  0.29813  0.10786  1.0000
  C   C180      1.0  0.02460  0.27646  0.45745  1.0000
  H   H295      1.0  0.23125  0.28746  0.10293  1.0000
  H   H296      1.0  0.28045  0.31957  0.10840  1.0000
  C   C181      1.0  0.36215  0.33378  0.25412  1.0000
  C   C182      1.0  0.35338  0.33354  0.28490  1.0000
  C   C183      1.0  0.33679  0.34454  0.29188  1.0000
  C   C184      1.0  0.32913  0.35614  0.26808  1.0000
  C   C185      1.0  0.33843  0.35697  0.23749  1.0000
  C   C186      1.0  0.35482  0.34577  0.23050  1.0000
  H   H297      1.0  0.35934  0.32465  0.30328  1.0000
  H   H298      1.0  0.32978  0.34384  0.31556  1.0000
  H   H299      1.0  0.33270  0.36601  0.21896  1.0000
  H   H300      1.0  0.36169  0.34631  0.20674  1.0000
  C   C187      1.0  0.02814  0.39575  0.07988  1.0000
  C   C188      1.0  0.02254  0.41392  0.06441  1.0000
  H   H301      1.0  0.22371  0.30790  0.20687  1.0000
  H   H302      1.0  0.03225  0.42654  0.39382  1.0000
  C   C189      1.0  0.20498  0.30327  0.40375  1.0000
  H   H303      1.0  0.33249  0.42772  0.26518  1.0000
  H   H304      1.0  0.03734  0.42874  0.04870  1.0000
  H   H305      1.0  0.00813  0.36371  0.44178  1.0000
  C   C190      1.0  0.15731  0.30674  0.43481  1.0000
  H   H306      1.0  0.01768  0.29770  0.05369  1.0000
  C   C191      1.0  0.15558  0.36697  0.04604  1.0000
  C   C192      1.0  0.15336  0.37535  0.07608  1.0000
  C   C193      1.0  0.15347  0.36076  0.10246  1.0000
  C   C194      1.0  0.15536  0.33741  0.09908  1.0000
  C   C195      1.0  0.15748  0.32888  0.06905  1.0000
  C   C196      1.0  0.15787  0.34380  0.04262  1.0000
  H   H307      1.0  0.15202  0.39332  0.07911  1.0000
  H   H308      1.0  0.15196  0.36757  0.12560  1.0000
  H   H309      1.0  0.15916  0.31101  0.06620  1.0000
  H   H310      1.0  0.31984  0.26859  0.32761  1.0000
  H   H311      1.0  0.16152  0.25342  0.45558  1.0000
  H   H312      1.0  0.07033  0.37291  0.38282  1.0000
  H   H313      1.0  0.35077  0.31677  0.36108  1.0000
  C   C197      1.0  0.45344  0.34942  0.44123  1.0000
  Fe  Fe33      1.0  0.15170  0.47038  0.03616  1.0000
  H   H314      1.0  0.29997  0.27998  0.25926  1.0000
  C   C198      1.0  0.47808  0.28212  0.46296  1.0000
  C   C199      1.0  0.16005  0.29824  0.26480  1.0000
  C   C200      1.0  0.48578  0.35047  0.10153  1.0000
  H   H315      1.0  0.25407  0.31794  0.47572  1.0000
  H   H316      1.0  0.03948  0.39805  0.33433  1.0000
  H   H317      1.0  0.05060  0.42441  0.13406  1.0000
  H   H318      1.0  0.41519  0.43024  0.26931  1.0000
  H   H319      1.0  0.13955  0.28644  0.43132  1.0000
  H   H320      1.0  0.36208  0.41005  0.30679  1.0000
  H   H321      1.0  0.37490  0.27643  0.37798  1.0000
  H   H322      1.0  0.30839  0.27821  0.37917  1.0000
  C   C201      1.0  0.22742  0.40410  0.03993  1.0000
  C   C202      1.0  0.06523  0.43430  0.15337  1.0000
  C   C203      1.0  0.28450  0.26228  0.24587  1.0000
  H   H323      1.0  0.34275  0.25504  0.29057  1.0000
  H   H324      1.0  0.46190  0.28443  0.47273  1.0000
  N   N13       1.0  0.26332  0.26763  0.23200  1.0000
  H   H325      1.0  0.00809  0.38815  0.31530  1.0000
  H   H326      1.0  0.20558  0.28095  0.47834  1.0000
  H   H327      1.0  0.15400  0.27766  0.27330  1.0000
  H   H328      1.0  0.42583  0.49177  0.35731  1.0000
  S   S71       1.0  0.13987  0.24846  0.09197  1.0000
  H   H329      1.0  0.44383  0.36062  0.43190  1.0000
  H   H330      1.0  0.28812  0.31075  0.23751  1.0000
  C   C204      1.0  0.36115  0.45565  0.30072  1.0000
  C   C205      1.0  0.18187  0.36835  0.20177  1.0000
  C   C206      1.0  0.33664  0.26608  0.33712  1.0000
  S   S72       1.0  0.16021  0.45434  0.99256  1.0000
  C   C207      1.0  0.29740  0.30120  0.19245  1.0000
  H   H331      1.0  0.38930  0.44554  0.34390  1.0000
  H   H332      1.0  0.42202  0.32196  0.47180  1.0000
  N   N14       1.0  0.01542  0.38322  0.39620  1.0000
  H   H333      1.0  0.04150  0.36083  0.35833  1.0000
  C   C208      1.0  0.39831  0.41577  0.28423  1.0000
  H   H334      1.0  0.16456  0.37200  0.19987  1.0000
  H   H335      1.0  0.25525  0.30394  0.28003  1.0000
  C   C209      1.0  0.27698  0.29573  0.21886  1.0000
  H   H336      1.0  0.19230  0.25023  0.39756  1.0000
  H   H337      1.0  0.05203  0.39197  0.42081  1.0000
  C   C210      1.0  0.00659  0.28556  0.46435  1.0000
  H   H338      1.0  0.19290  0.31225  0.35911  1.0000
  C   C211      1.0  0.02047  0.41538  0.44148  1.0000
  C   C212      1.0  0.21104  0.35342  0.25181  1.0000
  C   C213      1.0  0.24090  0.24924  0.38458  1.0000
  H   H339      1.0  0.07086  0.49058  0.06405  1.0000
  H   H340      1.0  0.05797  0.40741  0.38382  1.0000
  H   H341      1.0  0.36746  0.47683  0.30690  1.0000
  H   H342      1.0  0.21123  0.42470  0.98968  1.0000
  H   H343      1.0  0.38976  0.39563  0.27305  1.0000
  H   H344      1.0  0.22394  0.28093  0.44481  1.0000
  H   H345      1.0  0.11088  0.49389  0.39859  1.0000
  H   H346      1.0  0.00291  0.40097  0.45571  1.0000
  H   H347      1.0  0.99982  0.35539  0.35700  1.0000
  H   H348      1.0  0.24794  0.36221  0.27671  1.0000
  C   C214      1.0  0.99778  0.41314  0.06970  1.0000
  C   C215      1.0  0.32720  0.27906  0.38781  1.0000
  H   H349      1.0  0.24873  0.34293  0.21584  1.0000
  H   H350      1.0  0.23035  0.32837  0.26347  1.0000
  C   C216      1.0  0.01531  0.24861  0.45632  1.0000
  H   H351      1.0  0.24247  0.27500  0.30574  1.0000
  H   H352      1.0  0.16370  0.31801  0.41245  1.0000
  H   H353      1.0  0.40373  0.49079  0.27069  1.0000
  H   H354      1.0  0.02125  0.41578  0.34208  1.0000
  C   C217      1.0  0.39508  0.46087  0.23476  1.0000
  H   H355      1.0  0.21816  0.38862  0.02140  1.0000
  C   C218      1.0  0.22087  0.45631  0.02316  1.0000
  C   C219      1.0  0.37584  0.42307  0.28787  1.0000
  H   H356      1.0  0.29598  0.25363  0.11044  1.0000
  H   H357      1.0  0.30469  0.32168  0.18272  1.0000
  C   C220      1.0  0.21020  0.33731  0.19744  1.0000
  C   C221      1.0  0.01591  0.40874  0.40626  1.0000
  H   H358      1.0  0.20794  0.38222  0.47964  1.0000
  H   H359      1.0  0.27945  0.27859  0.46243  1.0000
  H   H360      1.0  0.06293  0.41794  0.16927  1.0000
  H   H361      1.0  0.02320  0.43575  0.44553  1.0000
  C   C222      1.0  0.25427  0.42918  0.03007  1.0000
  C   C223      1.0  0.17205  0.34067  0.21735  1.0000
  H   H362      1.0  0.09673  0.43607  0.12392  1.0000
  S   S73       1.0  0.18232  0.27150  0.15261  1.0000
  H   H363      1.0  0.18771  0.27922  0.36101  1.0000
  C   C224      1.0  0.17071  0.26142  0.43219  1.0000
  H   H364      1.0  0.27010  0.42320  0.02956  1.0000
  H   H365      1.0  0.15717  0.32514  0.20100  1.0000
  H   H366      1.0  0.18892  0.36874  0.17744  1.0000
  H   H367      1.0  0.45310  0.26403  0.10700  1.0000
  C   C225      1.0  0.35585  0.25843  0.38585  1.0000
  H   H368      1.0  0.28114  0.48666  0.04311  1.0000
  C   C226      1.0  0.09450  0.44970  0.14080  1.0000
  C   C227      1.0  0.11797  0.48444  0.44525  1.0000
  H   H369      1.0  0.31571  0.46962  0.41449  1.0000
  Fe  Fe34      1.0  0.14992  0.27808  0.13168  1.0000
  N   N15       1.0  0.38534  0.45233  0.29463  1.0000
  H   H370      1.0  0.19827  0.35753  0.26809  1.0000
  H   H371      1.0  0.08091  0.45547  0.08375  1.0000
  H   H372      1.0  0.19679  0.32765  0.45389  1.0000
  C   C228      1.0  0.04407  0.38846  0.39648  1.0000
  H   H373      1.0  0.37357  0.44602  0.23077  1.0000
  H   H374      1.0  0.22110  0.29849  0.39760  1.0000
  H   H375      1.0  0.16730  0.29167  0.21694  1.0000
  N   N16       1.0  0.33172  0.25829  0.37127  1.0000
  H   H376      1.0  0.20223  0.48000  0.08001  1.0000
  H   H377      1.0  0.26045  0.44353  0.04988  1.0000
  H   H378      1.0  0.41957  0.45709  0.32193  1.0000
  H   H379      1.0  0.22561  0.37337  0.24153  1.0000
  H   H380      1.0  0.31528  0.30061  0.20130  1.0000
  H   H381      1.0  0.22109  0.35863  0.18943  1.0000
  C   C229      1.0  0.34995  0.30872  0.38491  1.0000
  H   H382      1.0  0.19666  0.32550  0.17774  1.0000
  H   H383      1.0  0.34989  0.46322  0.25414  1.0000
  H   H384      1.0  0.39984  0.47836  0.21943  1.0000
  C   C230      1.0  0.15382  0.49178  0.13162  1.0000
  H   H385      1.0  0.48514  0.36712  0.14642  1.0000
  H   H386      1.0  0.15359  0.25870  0.41750  1.0000
  C   C231      1.0  0.22740  0.34464  0.27284  1.0000
  C   C232      1.0  0.18598  0.29465  0.37497  1.0000
  H   H387      1.0  0.15045  0.31792  0.45000  1.0000
  H   H388      1.0  0.10786  0.45178  0.16067  1.0000
  H   H389      1.0  0.35542  0.28588  0.33417  1.0000
  H   H390      1.0  0.00508  0.26277  0.09494  1.0000
  H   H391      1.0  0.23316  0.46001  0.04443  1.0000
  H   H392      1.0  0.19350  0.29787  0.24294  1.0000
  H   H393      1.0  0.19787  0.38514  0.21555  1.0000
  C   C233      1.0  0.43096  0.25211  0.10339  1.0000
  H   H394      1.0  0.29739  0.46609  0.00030  1.0000
  C   C234      1.0  0.08267  0.47156  0.09988  1.0000
  N   N17       1.0  0.19372  0.33412  0.22640  1.0000
  C   C235      1.0  0.00314  0.37555  0.36400  1.0000
  H   H395      1.0  0.24861  0.49050  0.09456  1.0000
  H   H396      1.0  0.26195  0.30105  0.21009  1.0000
  C   C236      1.0  0.00866  0.37663  0.10025  1.0000
  C   C237      1.0  0.17937  0.30503  0.23670  1.0000
  H   H397      1.0  0.21814  0.33886  0.29650  1.0000
  C   C238      1.0  0.23208  0.32923  0.20005  1.0000
  C   C239      1.0  0.40287  0.47097  0.26891  1.0000
  H   H398      1.0  0.21532  0.32567  0.40538  1.0000
  C   C240      1.0  0.23563  0.25229  0.10315  1.0000
  H   H399      1.0  0.39638  0.49217  0.34528  1.0000
  H   H400      1.0  0.29639  0.25953  0.22701  1.0000
  H   H401      1.0  0.16013  0.34023  0.23818  1.0000
  H   H402      1.0  0.36336  0.41588  0.26644  1.0000
  H   H403      1.0  0.03894  0.41582  0.45004  1.0000
  H   H404      1.0  0.21235  0.40963  0.04777  1.0000
  C   C241      1.0  0.35854  0.48626  0.40873  1.0000
  H   H405      1.0  0.40621  0.41418  0.30739  1.0000
  H   H406      1.0  0.34965  0.44333  0.32133  1.0000
  H   H407      1.0  0.40779  0.45265  0.22587  1.0000
  Fe  Fe35      1.0  0.09361  0.41516  0.47069  1.0000
  C   C242      1.0  0.34092  0.44865  0.27367  1.0000
  H   H408      1.0  0.04538  0.29080  0.45166  1.0000
  C   C243      1.0  0.44332  0.33802  0.47437  1.0000
  H   H409      1.0  0.99701  0.40855  0.39951  1.0000
  C   C244      1.0  0.24847  0.24693  0.20679  1.0000
  C   C245      1.0  0.18106  0.30616  0.45105  1.0000
  C   C246      1.0  0.41264  0.48858  0.33675  1.0000
  C   C247      1.0  0.04835  0.36587  0.38291  1.0000
  H   H410      1.0  0.19956  0.44220  0.02989  1.0000
  H   H411      1.0  0.03861  0.34742  0.39753  1.0000
  H   H412      1.0  0.22789  0.26962  0.24587  1.0000
  H   H413      1.0  0.02260  0.27106  0.04024  1.0000
  H   H414      1.0  0.35550  0.26056  0.41177  1.0000
  C   C248      1.0  0.01920  0.39576  0.33774  1.0000
  Fe  Fe36      1.0  0.05762  0.35348  0.47635  1.0000
  H   H415      1.0  0.46240  0.24810  0.15219  1.0000
  H   H416      1.0  0.12876  0.47302  0.09141  1.0000
  C   C249      1.0  0.22909  0.44472  0.99527  1.0000
  C   C250      1.0  0.99877  0.36021  0.41812  1.0000
  H   H417      1.0  0.09590  0.47798  0.19501  1.0000
  H   H418      1.0  0.06204  0.46402  0.10959  1.0000
  H   H419      1.0  0.41022  0.37222  0.44969  1.0000
  N   N18       1.0  0.10280  0.47651  0.12563  1.0000
  C   C251      1.0  0.21431  0.29163  0.45582  1.0000
  H   H420      1.0  0.45090  0.39257  0.47351  1.0000
  H   H421      1.0  0.99837  0.34154  0.41007  1.0000
  H   H422      1.0  0.17429  0.29826  0.47520  1.0000
  H   H423      1.0  0.47570  0.36238  0.44015  1.0000
  C   C252      1.0  0.27961  0.46880  0.99626  1.0000
  H   H424      1.0  0.39805  0.34137  0.47087  1.0000
  C   C253      1.0  0.33547  0.48719  0.41768  1.0000
  C   C254      1.0  0.23782  0.31999  0.46399  1.0000
  C   C255      1.0  0.22966  0.25210  0.18558  1.0000
  H   H425      1.0  0.45383  0.32686  0.48144  1.0000
  H   H426      1.0  0.44835  0.33236  0.42503  1.0000
  C   C256      1.0  0.13007  0.48698  0.11031  1.0000
  C   C257      1.0  0.40831  0.36347  0.47340  1.0000
  H   H427      1.0  0.14974  0.47409  0.14600  1.0000
  C   C258      1.0  0.34023  0.24698  0.31477  1.0000
  H   H428      1.0  0.35897  0.24645  0.31993  1.0000
  H   H429      1.0  0.23152  0.33066  0.48068  1.0000
  Fe  Fe37      1.0  0.30326  0.44802  0.86738  1.0000
  S   S74       1.0  0.31872  0.45719  0.91717  1.0000
  Fe  Fe38      1.0  0.25584  0.41012  0.82630  1.0000
  S   S75       1.0  0.27404  0.43467  0.78272  1.0000
  S   S76       1.0  0.21696  0.37063  0.83161  1.0000
  Fe  Fe39      1.0  0.31227  0.43621  0.79971  1.0000
  S   S77       1.0  0.34082  0.43204  0.76571  1.0000
  N   N19       1.0  0.08113  0.46818  0.57005  1.0000
  S   S78       1.0  0.29336  0.40990  0.84162  1.0000
  S   S79       1.0  0.26398  0.44563  0.85614  1.0000
  Fe  Fe40      1.0  0.08117  0.38714  0.53483  1.0000
  S   S80       1.0  0.07331  0.38858  0.58662  1.0000
  Fe  Fe41      1.0  0.39613  0.32711  0.72753  1.0000
  S   S81       1.0  0.37837  0.30282  0.68334  1.0000
  S   S82       1.0  0.37289  0.33994  0.76074  1.0000
  Fe  Fe42      1.0  0.44260  0.31432  0.72773  1.0000
  S   S83       1.0  0.42758  0.28901  0.68473  1.0000
  H   H430      1.0  0.39317  0.33814  0.52849  1.0000
  Fe  Fe43      1.0  0.42160  0.32211  0.66618  1.0000
  S   S84       1.0  0.43543  0.33103  0.61555  1.0000
  Fe  Fe44      1.0  0.38633  0.27206  0.70577  1.0000
  H   H431      1.0  0.47633  0.38155  0.64318  1.0000
  S   S85       1.0  0.43895  0.34892  0.70848  1.0000
  S   S86       1.0  0.40191  0.29481  0.75060  1.0000
  S   S87       1.0  0.14819  0.30589  0.71358  1.0000
  H   H432      1.0  0.06394  0.42724  0.55334  1.0000
  C   C259      1.0  0.48544  0.37644  0.62414  1.0000
  H   H433      1.0  0.04894  0.30078  0.82552  1.0000
  C   C260      1.0  0.01050  0.36774  0.64631  1.0000
  C   C261      1.0  0.48116  0.25227  0.72744  1.0000
  Fe  Fe45      1.0  0.11843  0.44413  0.97849  1.0000
  H   H434      1.0  0.45511  0.26885  0.71979  1.0000
  H   H435      1.0  0.07223  0.25926  0.61862  1.0000
  H   H436      1.0  0.43182  0.47391  0.80647  1.0000
  C   C262      1.0  0.04045  0.37775  0.60125  1.0000
  C   C263      1.0  0.03608  0.37519  0.63373  1.0000
  H   H437      1.0  0.25224  0.41687  0.92351  1.0000
  C   C264      1.0  0.47025  0.35223  0.60788  1.0000
  C   C265      1.0  0.01898  0.37277  0.58137  1.0000
  S   S88       1.0  0.07369  0.24921  0.70079  1.0000
  H   H438      1.0  0.05257  0.37901  0.64929  1.0000
  C   C266      1.0  0.07325  0.44806  0.54373  1.0000
  H   H439      1.0  0.47106  0.32691  0.57106  1.0000
  H   H440      1.0  0.04794  0.41545  0.83482  1.0000
  H   H441      1.0  0.28635  0.35661  0.79491  1.0000
  H   H442      1.0  0.22962  0.34364  0.74547  1.0000
  H   H443      1.0  0.03769  0.31431  0.56772  1.0000
  H   H444      1.0  0.06263  0.45053  0.49515  1.0000
  C   C267      1.0  0.34982  0.40649  0.76485  1.0000
  C   C268      1.0  0.36395  0.40471  0.73882  1.0000
  C   C269      1.0  0.37139  0.38465  0.73712  1.0000
  C   C270      1.0  0.36495  0.36626  0.76164  1.0000
  C   C271      1.0  0.35109  0.36828  0.78783  1.0000
  C   C272      1.0  0.34350  0.38819  0.78944  1.0000
  H   H445      1.0  0.36910  0.41885  0.71973  1.0000
  H   H446      1.0  0.38209  0.38341  0.71686  1.0000
  H   H447      1.0  0.34617  0.35427  0.80703  1.0000
  H   H448      1.0  0.33287  0.38940  0.80973  1.0000
  C   C273      1.0  0.19885  0.35296  0.79823  1.0000
  C   C274      1.0  0.18088  0.32517  0.80057  1.0000
  C   C275      1.0  0.16549  0.31051  0.77462  1.0000
  C   C276      1.0  0.16762  0.32364  0.74631  1.0000
  C   C277      1.0  0.18555  0.35148  0.74398  1.0000
  C   C278      1.0  0.20123  0.36614  0.76987  1.0000
  H   H449      1.0  0.17887  0.31492  0.82254  1.0000
  H   H450      1.0  0.15209  0.28905  0.77655  1.0000
  H   H451      1.0  0.18726  0.36173  0.72209  1.0000
  H   H452      1.0  0.21483  0.38762  0.76798  1.0000
  H   H453      1.0  0.43895  0.35781  0.54908  1.0000
  H   H454      1.0  0.34351  0.40081  0.87207  1.0000
  C   C279      1.0  0.28841  0.31073  0.77100  1.0000
  C   C280      1.0  0.22384  0.31215  0.71291  1.0000
  H   H455      1.0  0.25818  0.29769  0.73532  1.0000
  H   H456      1.0  0.30511  0.32200  0.75411  1.0000
  H   H457      1.0  0.28644  0.29056  0.77383  1.0000
  H   H458      1.0  0.29417  0.32082  0.79412  1.0000
  H   H459      1.0  0.11767  0.44759  0.56774  1.0000
  C   C281      1.0  0.05755  0.26582  0.62495  1.0000
  H   H460      1.0  0.03064  0.43453  0.80545  1.0000
  S   S89       1.0  0.11991  0.41702  0.51082  1.0000
  H   H461      1.0  0.16406  0.46598  0.83083  1.0000
  H   H462      1.0  0.01223  0.42232  0.86557  1.0000
  H   H463      1.0  0.22638  0.31750  0.81171  1.0000
  C   C282      1.0  0.42358  0.25631  0.59785  1.0000
  H   H464      1.0  0.04075  0.38872  0.86204  1.0000
  H   H465      1.0  0.06713  0.28092  0.64398  1.0000
  H   H466      1.0  0.43689  0.26315  0.57699  1.0000
  H   H467      1.0  0.00012  0.34900  0.87023  1.0000
  H   H468      1.0  0.04854  0.47764  0.56739  1.0000
  C   C283      1.0  0.43632  0.37663  0.48967  1.0000
  C   C284      1.0  0.99526  0.25435  0.78229  1.0000
  H   H469      1.0  0.28252  0.34171  0.71284  1.0000
  H   H470      1.0  0.00740  0.36589  0.67139  1.0000
  C   C285      1.0  0.08888  0.33788  0.83109  1.0000
  C   C286      1.0  0.01064  0.40221  0.86321  1.0000
  C   C287      1.0  0.09317  0.45980  0.59627  1.0000
  H   H471      1.0  0.48556  0.36252  0.51293  1.0000
  C   C288      1.0  0.05784  0.32292  0.82750  1.0000
  C   C289      1.0  0.48617  0.39868  0.52888  1.0000
  C   C290      1.0  0.18786  0.45474  0.91529  1.0000
  H   H472      1.0  0.38384  0.47425  0.90222  1.0000
  H   H473      1.0  0.00073  0.25243  0.60186  1.0000
  H   H474      1.0  0.00785  0.25790  0.68151  1.0000
  H   H475      1.0  0.15610  0.46751  0.87112  1.0000
  H   H476      1.0  0.09538  0.35962  0.83384  1.0000
  H   H477      1.0  0.13929  0.36408  0.75187  1.0000
  H   H478      1.0  0.34918  0.42929  0.89459  1.0000
  H   H479      1.0  0.03464  0.42764  0.51850  1.0000
  H   H480      1.0  0.22843  0.42618  0.93660  1.0000
  C   C291      1.0  0.09447  0.30454  0.79919  1.0000
  H   H481      1.0  0.34645  0.24770  0.75879  1.0000
  H   H482      1.0  0.04215  0.29036  0.60726  1.0000
  H   H483      1.0  0.05402  0.29043  0.53513  1.0000
  H   H484      1.0  0.04884  0.32668  0.84860  1.0000
  H   H485      1.0  0.00013  0.33018  0.83656  1.0000
  H   H486      1.0  0.05154  0.33046  0.80713  1.0000
  H   H487      1.0  0.19072  0.44777  0.93849  1.0000
  C   C292      1.0  0.14746  0.37864  0.81890  1.0000
  C   C293      1.0  0.01385  0.41779  0.79245  1.0000
  H   H488      1.0  0.25966  0.36290  0.78723  1.0000
  C   C294      1.0  0.11792  0.34873  0.74724  1.0000
  H   H489      1.0  0.42479  0.25018  0.77137  1.0000
  H   H490      1.0  0.29816  0.39066  0.71086  1.0000
  H   H491      1.0  0.13941  0.38884  0.80413  1.0000
  C   C295      1.0  0.26468  0.34646  0.78817  1.0000
  H   H492      1.0  0.07839  0.33253  0.76669  1.0000
  C   C296      1.0  0.24844  0.32826  0.81589  1.0000
  C   C297      1.0  0.39971  0.48152  0.82368  1.0000
  C   C298      1.0  0.13359  0.34795  0.81314  1.0000
  N   N20       1.0  0.10408  0.33400  0.80468  1.0000
  H   H493      1.0  0.03907  0.43420  0.61608  1.0000
  H   H494      1.0  0.23164  0.45766  0.97466  1.0000
  S   S90       1.0  0.05506  0.38828  0.49663  1.0000
  C   C299      1.0  0.48234  0.34593  0.58316  1.0000
  C   C300      1.0  0.02257  0.29673  0.55400  1.0000
  C   C301      1.0  0.05338  0.44766  0.51875  1.0000
  N   N21       1.0  0.39366  0.46754  0.85505  1.0000
  H   H495      1.0  0.02201  0.37457  0.55633  1.0000
  H   H496      1.0  0.09154  0.45100  0.53101  1.0000
  H   H497      1.0  0.25210  0.34110  0.83689  1.0000
  H   H498      1.0  0.24475  0.29206  0.77357  1.0000
  H   H499      1.0  0.13680  0.33935  0.83497  1.0000
  C   C302      1.0  0.09405  0.28819  0.82812  1.0000
  C   C303      1.0  0.49034  0.29611  0.74612  1.0000
  H   H500      1.0  0.14570  0.38296  0.84388  1.0000
  H   H501      1.0  0.11470  0.29474  0.83687  1.0000
  H   H502      1.0  0.16923  0.38804  0.81272  1.0000
  H   H503      1.0  0.01465  0.37251  0.81420  1.0000
  C   C304      1.0  0.47706  0.37534  0.50510  1.0000
  C   C305      1.0  0.02801  0.29832  0.74421  1.0000
  Fe  Fe46      1.0  0.11816  0.38050  0.48855  1.0000
  H   H504      1.0  0.09385  0.33206  0.85394  1.0000
  C   C306      1.0  0.05156  0.27915  0.59698  1.0000
  N   N22       1.0  0.26009  0.33285  0.75667  1.0000
  C   C307      1.0  0.38289  0.48025  0.87764  1.0000
  C   C308      1.0  0.27995  0.37700  0.72479  1.0000
  H   H505      1.0  0.39829  0.45006  0.79223  1.0000
  H   H506      1.0  0.09735  0.47296  0.61719  1.0000
  H   H507      1.0  0.11652  0.32938  0.74062  1.0000
  C   C309      1.0  0.05735  0.46927  0.58385  1.0000
  H   H508      1.0  0.14541  0.34410  0.79543  1.0000
  H   H509      1.0  0.42271  0.45341  0.85537  1.0000
  C   C310      1.0  0.09939  0.34550  0.77513  1.0000
  C   C311      1.0  0.28176  0.35204  0.73453  1.0000
  H   H510      1.0  0.00900  0.42726  0.77268  1.0000
  S   S91       1.0  0.08168  0.35087  0.51614  1.0000
  H   H511      1.0  0.41583  0.48331  0.77711  1.0000
  H   H512      1.0  0.26208  0.37150  0.70978  1.0000
  H   H513      1.0  0.42286  0.25899  0.82477  1.0000
  C   C312      1.0  0.01650  0.25453  0.76558  1.0000
  S   S92       1.0  0.32550  0.47450  0.82678  1.0000
  H   H514      1.0  0.10091  0.36536  0.77938  1.0000
  H   H515      1.0  0.20037  0.45101  0.89862  1.0000
  H   H516      1.0  0.28215  0.47700  0.97220  1.0000
  H   H517      1.0  0.21321  0.28986  0.71524  1.0000
  C   C313      1.0  0.47386  0.27226  0.72978  1.0000
  H   H518      1.0  0.11141  0.35573  0.72649  1.0000
  H   H519      1.0  0.30210  0.35981  0.74508  1.0000
  H   H520      1.0  0.06402  0.48343  0.60411  1.0000
  C   C314      1.0  0.19430  0.48434  0.91808  1.0000
  S   S93       1.0  0.11267  0.45369  0.92854  1.0000
  H   H521      1.0  0.08120  0.28859  0.84726  1.0000
  H   H522      1.0  0.21659  0.31167  0.76184  1.0000
  C   C315      1.0  0.23236  0.32579  0.74535  1.0000
  H   H523      1.0  0.24085  0.31854  0.69640  1.0000
  H   H524      1.0  0.25497  0.31358  0.82200  1.0000
  C   C316      1.0  0.03961  0.40725  0.85818  1.0000
  C   C317      1.0  0.26145  0.30732  0.75877  1.0000
  H   H525      1.0  0.24356  0.48004  0.90908  1.0000
  Fe  Fe47      1.0  0.11496  0.26269  0.72048  1.0000
  H   H526      1.0  0.00459  0.39300  0.88694  1.0000
  C   C318      1.0  0.24945  0.43036  0.93990  1.0000
  H   H527      1.0  0.44247  0.33037  0.53574  1.0000
  S   S94       1.0  0.15593  0.37687  0.48876  1.0000
  H   H528      1.0  0.27971  0.38874  0.74530  1.0000
  Fe  Fe48      1.0  0.28548  0.47063  0.81412  1.0000
  H   H529      1.0  0.12431  0.45021  0.60858  1.0000
  C   C319      1.0  0.03338  0.27771  0.54508  1.0000
  N   N23       1.0  0.44698  0.35834  0.49921  1.0000
  H   H530      1.0  0.00331  0.28631  0.56712  1.0000
  C   C320      1.0  0.41211  0.47132  0.79886  1.0000
  H   H531      1.0  0.17444  0.48324  0.92161  1.0000
  C   C321      1.0  0.35933  0.42135  0.87935  1.0000
  H   H532      1.0  0.02036  0.40435  0.78175  1.0000
  C   C322      1.0  0.11957  0.45972  0.58875  1.0000
  H   H533      1.0  0.07381  0.29402  0.78900  1.0000
  C   C323      1.0  0.12610  0.48831  0.92037  1.0000
  H   H534      1.0  0.16614  0.44136  0.90953  1.0000
  H   H535      1.0  0.12916  0.48207  0.49269  1.0000
  H   H536      1.0  0.41291  0.45798  0.89253  1.0000
  H   H537      1.0  0.05331  0.42223  0.87571  1.0000
  H   H538      1.0  0.10735  0.30207  0.78145  1.0000
  H   H539      1.0  0.35781  0.48661  0.52273  1.0000
  C   C324      1.0  0.41775  0.46709  0.86874  1.0000
  H   H540      1.0  0.01659  0.44492  0.60242  1.0000
  H   H541      1.0  0.27401  0.42426  0.97366  1.0000
  H   H542      1.0  0.36111  0.47270  0.87309  1.0000
  N   N24       1.0  0.03403  0.26038  0.57129  1.0000
  C   C325      1.0  0.00754  0.29862  0.76201  1.0000
  H   H543      1.0  0.07145  0.29487  0.58741  1.0000
  H   H544      1.0  0.42743  0.27477  0.61071  1.0000
  H   H545      1.0  0.38093  0.47977  0.81345  1.0000
  H   H546      1.0  0.34169  0.48359  0.97568  1.0000
  H   H547      1.0  0.04739  0.46309  0.52138  1.0000
  H   H548      1.0  0.20985  0.31786  0.70168  1.0000
  C   C326      1.0  0.03368  0.44206  0.59522  1.0000
  H   H549      1.0  0.39447  0.36818  0.48676  1.0000
  H   H550      1.0  0.04881  0.27665  0.73283  1.0000
  H   H551      1.0  0.38615  0.26419  0.84464  1.0000
  H   H552      1.0  0.20306  0.47222  0.85652  1.0000
  H   H553      1.0  0.08509  0.26670  0.82125  1.0000
  H   H554      1.0  0.13705  0.48041  0.58630  1.0000
  H   H555      1.0  0.48423  0.30108  0.63204  1.0000
  H   H556      1.0  0.23950  0.48290  0.77251  1.0000
  H   H557      1.0  0.37497  0.48504  0.57090  1.0000
  H   H558      1.0  0.37445  0.41894  0.89305  1.0000
  H   H559      1.0  0.35464  0.43800  0.83626  1.0000
  H   H560      1.0  0.26391  0.45122  0.93252  1.0000
  H   H561      1.0  0.43516  0.38772  0.51051  1.0000
  H   H562      1.0  0.39721  0.31533  0.55281  1.0000
  H   H563      1.0  0.45685  0.25033  0.81988  1.0000
  H   H564      1.0  0.37991  0.25588  0.80427  1.0000
  S   S95       1.0  0.00627  0.32865  0.76527  1.0000
  H   H565      1.0  0.07868  0.43906  0.60439  1.0000
  H   H566      1.0  0.48054  0.41373  0.52138  1.0000
  H   H567      1.0  0.04095  0.31549  0.72974  1.0000
  H   H568      1.0  0.47801  0.25780  0.58750  1.0000
  H   H569      1.0  0.11612  0.48186  0.87129  1.0000
  H   H570      1.0  0.40208  0.24597  0.59078  1.0000
  H   H571      1.0  0.24523  0.48516  0.86666  1.0000
  C   C327      1.0  0.40317  0.32586  0.52984  1.0000
  H   H572      1.0  0.01875  0.30499  0.53229  1.0000
  C   C328      1.0  0.37170  0.43870  0.84971  1.0000
  H   H573      1.0  0.02114  0.26561  0.52497  1.0000
  S   S96       1.0  0.48097  0.32092  0.75096  1.0000
  H   H574      1.0  0.47880  0.39173  0.55293  1.0000
  H   H575      1.0  0.02596  0.42657  0.57655  1.0000
  C   C329      1.0  0.19978  0.48952  0.85959  1.0000
  C   C330      1.0  0.43417  0.34361  0.52925  1.0000
  H   H576      1.0  0.03905  0.24853  0.63478  1.0000
  H   H577      1.0  0.37920  0.42766  0.83523  1.0000
  H   H578      1.0  0.45045  0.25143  0.62895  1.0000
  C   C331      1.0  0.03247  0.27631  0.74592  1.0000
  H   H579      1.0  0.39520  0.30991  0.51173  1.0000
  H   H580      1.0  0.06891  0.25937  0.55324  1.0000
  C   C332      1.0  0.44393  0.49442  0.87272  1.0000
  C   C333      1.0  0.25434  0.42402  0.97366  1.0000
  H   H581      1.0  0.37016  0.49330  0.48365  1.0000
  H   H582      1.0  0.20548  0.49263  0.94041  1.0000
  C   C334      1.0  0.38114  0.24785  0.82737  1.0000
  H   H583      1.0  0.23877  0.40263  0.97751  1.0000
  C   C335      1.0  0.99422  0.36389  0.82467  1.0000
  C   C336      1.0  0.16984  0.47928  0.85172  1.0000
  C   C337      1.0  0.33266  0.49110  0.92904  1.0000
  H   H584      1.0  0.46156  0.49122  0.87139  1.0000
  H   H585      1.0  0.48808  0.38512  0.48321  1.0000
  C   C338      1.0  0.25020  0.49502  0.88991  1.0000
  Fe  Fe49      1.0  0.36382  0.63245  0.04514  1.0000
  S   S97       1.0  0.36281  0.61408  0.09182  1.0000
  S   S98       1.0  0.36016  0.66933  0.03544  1.0000
  Fe  Fe50      1.0  0.37272  0.59138  0.00963  1.0000
  S   S99       1.0  0.37345  0.57033  0.05366  1.0000
  H   H586      1.0  0.02533  0.64218  0.07211  1.0000
  Fe  Fe51      1.0  0.33758  0.57424  0.06765  1.0000
  S   S100      1.0  0.30059  0.53734  0.08663  1.0000
  Fe  Fe52      1.0  0.39898  0.61211  0.07406  1.0000
  S   S101      1.0  0.43209  0.62376  0.11088  1.0000
  S   S102      1.0  0.33550  0.59283  0.02260  1.0000
  S   S103      1.0  0.40133  0.63292  0.02853  1.0000
  S   S104      1.0  0.18239  0.51260  0.05116  1.0000
  H   H587      1.0  0.27941  0.58514  0.47648  1.0000
  Fe  Fe53      1.0  0.10990  0.72399  0.16391  1.0000
  C   C339      1.0  0.43759  0.67951  0.16450  1.0000
  S   S105      1.0  0.06346  0.70213  0.16444  1.0000
  H   H588      1.0  0.10613  0.50231  0.06395  1.0000
  N   N25       1.0  0.44112  0.71693  0.12756  1.0000
  H   H589      1.0  0.09831  0.66186  0.33135  1.0000
  C   C340      1.0  0.02124  0.65164  0.09162  1.0000
  H   H590      1.0  0.29170  0.60930  0.44598  1.0000
  H   H591      1.0  0.24923  0.60944  0.43468  1.0000
  S   S106      1.0  0.13650  0.70754  0.18010  1.0000
  C   C341      1.0  0.13104  0.49535  0.47369  1.0000
  Fe  Fe54      1.0  0.20340  0.67282  0.42013  1.0000
  S   S107      1.0  0.22382  0.67714  0.37412  1.0000
  S   S108      1.0  0.20369  0.70845  0.44356  1.0000
  Fe  Fe55      1.0  0.18375  0.61170  0.42497  1.0000
  S   S109      1.0  0.20217  0.61208  0.37834  1.0000
  C   C342      1.0  0.20709  0.53050  0.44680  1.0000
  Fe  Fe56      1.0  0.23811  0.65048  0.39499  1.0000
  S   S110      1.0  0.28039  0.65782  0.38637  1.0000
  Fe  Fe57      1.0  0.18596  0.63880  0.36214  1.0000
  S   S111      1.0  0.16647  0.63526  0.31492  1.0000
  S   S112      1.0  0.22084  0.64922  0.44232  1.0000
  S   S113      1.0  0.16446  0.63544  0.40748  1.0000
  C   C343      1.0  0.24561  0.50551  0.08275  1.0000
  H   H592      1.0  0.09186  0.62723  0.23476  1.0000
  H   H593      1.0  0.44970  0.72319  0.47013  1.0000
  H   H594      1.0  0.31217  0.72908  0.10963  1.0000
  H   H595      1.0  0.41933  0.73780  0.44382  1.0000
  C   C344      1.0  0.38406  0.50941  0.41316  1.0000
  H   H596      1.0  0.04088  0.68521  0.23180  1.0000
  H   H597      1.0  0.13101  0.49633  0.18433  1.0000
  S   S114      1.0  0.39809  0.64194  0.44499  1.0000
  S   S115      1.0  0.36499  0.56263  0.45412  1.0000
  C   C345      1.0  0.25157  0.68892  0.07064  1.0000
  H   H598      1.0  0.42882  0.68460  0.18469  1.0000
  C   C346      1.0  0.13660  0.53028  0.42445  1.0000
  C   C347      1.0  0.14910  0.54120  0.45313  1.0000
  H   H599      1.0  0.29018  0.55459  0.44118  1.0000
  H   H600      1.0  0.04817  0.62412  0.23580  1.0000
  H   H601      1.0  0.03084  0.63863  0.27685  1.0000
  H   H602      1.0  0.13857  0.54356  0.40537  1.0000
  C   C348      1.0  0.30078  0.65928  0.41803  1.0000
  C   C349      1.0  0.32420  0.65792  0.41205  1.0000
  C   C350      1.0  0.34074  0.65870  0.43682  1.0000
  C   C351      1.0  0.40318  0.71888  0.43360  1.0000
  H   H603      1.0  0.11153  0.73215  0.26813  1.0000
  C   C352      1.0  0.29422  0.66185  0.44888  1.0000
  H   H604      1.0  0.32928  0.65573  0.38823  1.0000
  H   H605      1.0  0.11154  0.69554  0.24737  1.0000
  Fe  Fe58      1.0  0.44066  0.66541  0.46358  1.0000
  H   H606      1.0  0.27623  0.66287  0.45380  1.0000
  C   C353      1.0  0.16633  0.71056  0.27855  1.0000
  C   C354      1.0  0.17394  0.70958  0.30952  1.0000
  C   C355      1.0  0.17415  0.68664  0.32086  1.0000
  C   C356      1.0  0.16680  0.66450  0.30121  1.0000
  C   C357      1.0  0.15944  0.66558  0.27012  1.0000
  C   C358      1.0  0.15944  0.68862  0.25875  1.0000
  H   H607      1.0  0.17991  0.72663  0.32479  1.0000
  H   H608      1.0  0.17983  0.68603  0.34487  1.0000
  H   H609      1.0  0.15402  0.64864  0.25471  1.0000
  H   H610      1.0  0.15433  0.68944  0.23462  1.0000
  Fe  Fe59      1.0  0.16774  0.73797  0.14732  1.0000
  C   C359      1.0  0.38653  0.53315  0.42641  1.0000
  C   C360      1.0  0.36344  0.53400  0.43553  1.0000
  C   C361      1.0  0.43309  0.70371  0.06837  1.0000
  H   H611      1.0  0.29757  0.71102  0.02902  1.0000
  H   H612      1.0  0.11670  0.51778  0.13951  1.0000
  C   C362      1.0  0.33441  0.66165  0.46765  1.0000
  H   H613      1.0  0.01947  0.64946  0.22573  1.0000
  H   H614      1.0  0.32040  0.71675  0.41131  1.0000
  C   C363      1.0  0.46722  0.64749  0.10855  1.0000
  H   H615      1.0  0.43019  0.70611  0.41705  1.0000
  C   C364      1.0  0.04270  0.66926  0.11142  1.0000
  C   C365      1.0  0.03769  0.68121  0.13721  1.0000
  C   C366      1.0  0.01103  0.67562  0.14253  1.0000
  H   H616      1.0  0.22162  0.54156  0.38050  1.0000
  H   H617      1.0  0.44613  0.74297  0.08805  1.0000
  H   H618      1.0  0.06301  0.67319  0.10705  1.0000
  C   C367      1.0  0.01356  0.60115  0.98797  1.0000
  H   H619      1.0  0.46766  0.65622  0.05951  1.0000
  C   C368      1.0  0.21528  0.51904  0.05991  1.0000
  C   C369      1.0  0.23763  0.54446  0.05336  1.0000
  C   C370      1.0  0.26397  0.55022  0.06095  1.0000
  C   C371      1.0  0.26802  0.53078  0.07585  1.0000
  C   C372      1.0  0.09052  0.71500  0.26660  1.0000
  C   C373      1.0  0.31114  0.66329  0.47358  1.0000
  H   H620      1.0  0.23455  0.55974  0.04243  1.0000
  H   H621      1.0  0.28105  0.56988  0.05597  1.0000
  H   H622      1.0  0.40578  0.71262  0.15183  1.0000
  C   C374      1.0  0.36091  0.68819  0.06832  1.0000
  C   C375      1.0  0.35459  0.67659  0.09811  1.0000
  C   C376      1.0  0.35499  0.69186  0.12400  1.0000
  C   C377      1.0  0.36192  0.71888  0.12038  1.0000
  H   H623      1.0  0.43618  0.72084  0.33112  1.0000
  C   C378      1.0  0.36773  0.71519  0.06460  1.0000
  H   H624      1.0  0.34888  0.65571  0.10117  1.0000
  H   H625      1.0  0.34977  0.68264  0.14695  1.0000
  C   C379      1.0  0.47955  0.66075  0.08068  1.0000
  C   C380      1.0  0.30011  0.57688  0.44044  1.0000
  H   H626      1.0  0.37273  0.72430  0.04160  1.0000
  Fe  Fe60      1.0  0.15434  0.74138  0.21483  1.0000
  H   H627      1.0  0.28268  0.70797  0.44035  1.0000
  H   H628      1.0  0.35835  0.65701  0.43206  1.0000
  N   N26       1.0  0.25332  0.57380  0.43556  1.0000
  H   H629      1.0  0.47375  0.64336  0.15745  1.0000
  H   H630      1.0  0.43506  0.72534  0.17564  1.0000
  C   C381      1.0  0.28249  0.73682  0.06355  1.0000
  C   C382      1.0  0.29004  0.71464  0.10816  1.0000
  H   H631      1.0  0.11382  0.51382  0.19518  1.0000
  H   H632      1.0  0.42950  0.71125  0.04594  1.0000
  C   C383      1.0  0.43021  0.68719  0.13293  1.0000
  H   H633      1.0  0.40628  0.55069  0.42974  1.0000
  C   C384      1.0  0.40500  0.74211  0.33240  1.0000
  C   C385      1.0  0.04422  0.65971  0.26867  1.0000
  H   H634      1.0  0.47961  0.70390  0.10850  1.0000
  H   H635      1.0  0.40772  0.67596  0.13083  1.0000
  H   H636      1.0  0.24529  0.68767  0.04569  1.0000
  H   H637      1.0  0.05870  0.65171  0.20966  1.0000
  C   C386      1.0  0.08850  0.49619  0.07960  1.0000
  Fe  Fe61      1.0  0.39597  0.60579  0.46908  1.0000
  N   N27       1.0  0.07106  0.66343  0.25798  1.0000
  H   H638      1.0  0.21822  0.57933  0.43709  1.0000
  H   H639      1.0  0.45976  0.68860  0.16730  1.0000
  S   S116      1.0  0.16800  0.57656  0.45985  1.0000
  C   C387      1.0  0.23824  0.54450  0.44531  1.0000
  H   H640      1.0  0.10231  0.65596  0.27594  1.0000
  C   C388      1.0  0.09052  0.69191  0.24763  1.0000
  C   C389      1.0  0.25734  0.57652  0.40055  1.0000
  S   S117      1.0  0.19743  0.72852  0.12393  1.0000
  C   C390      1.0  0.21936  0.49953  0.07451  1.0000
  H   H641      1.0  0.20038  0.53818  0.46664  1.0000
  H   H642      1.0  0.40863  0.69078  0.34647  1.0000
  H   H643      1.0  0.21059  0.67334  0.08798  1.0000
  H   H644      1.0  0.14010  0.71668  0.40269  1.0000
  H   H645      1.0  0.09147  0.51360  0.09391  1.0000
  H   H646      1.0  0.22819  0.70884  0.08319  1.0000
  H   H647      1.0  0.31672  0.71596  0.47215  1.0000
  C   C391      1.0  0.41369  0.70861  0.40680  1.0000
  C   C392      1.0  0.12089  0.50208  0.42069  1.0000
  H   H648      1.0  0.07369  0.67181  0.32529  1.0000
  C   C393      1.0  0.28548  0.68947  0.12638  1.0000
  H   H649      1.0  0.30393  0.50923  0.01491  1.0000
  H   H650      1.0  0.10813  0.69205  0.31033  1.0000
  S   S118      1.0  0.47657  0.69834  0.43776  1.0000
  H   H651      1.0  0.42508  0.50393  0.31903  1.0000
  H   H652      1.0  0.28289  0.69234  0.15162  1.0000
  H   H653      1.0  0.08618  0.69491  0.22301  1.0000
  C   C394      1.0  0.43314  0.72161  0.09542  1.0000
  N   N28       1.0  0.42305  0.72541  0.37736  1.0000
  H   H654      1.0  0.38547  0.72073  0.42676  1.0000
  H   H655      1.0  0.24125  0.72244  0.24017  1.0000
  H   H656      1.0  0.35081  0.73061  0.45801  1.0000
  C   C395      1.0  0.08891  0.64104  0.21914  1.0000
  H   H657      1.0  0.39717  0.68783  0.40119  1.0000
  H   H658      1.0  0.07911  0.72307  0.25393  1.0000
  C   C396      1.0  0.23157  0.56386  0.38038  1.0000
  C   C397      1.0  0.47131  0.73338  0.13201  1.0000
  N   N29       1.0  0.28062  0.71087  0.07457  1.0000
  H   H659      1.0  0.39701  0.74286  0.38146  1.0000
  H   H660      1.0  0.24466  0.54181  0.46904  1.0000
  C   C398      1.0  0.29877  0.70545  0.05374  1.0000
  H   H661      1.0  0.14842  0.72523  0.36255  1.0000
  H   H662      1.0  0.39628  0.70394  0.45295  1.0000
  H   H663      1.0  0.08422  0.63177  0.19545  1.0000
  C   C399      1.0  0.29339  0.67627  0.05230  1.0000
  H   H664      1.0  0.02610  0.59484  0.00147  1.0000
  C   C400      1.0  0.14620  0.52355  0.47770  1.0000
  H   H665      1.0  0.19866  0.50860  0.45099  1.0000
  H   H666      1.0  0.23566  0.69357  0.11609  1.0000
  C   C401      1.0  0.06527  0.64467  0.23045  1.0000
  H   H667      1.0  0.32026  0.71837  0.06065  1.0000
  S   S119      1.0  0.36200  0.73713  0.15358  1.0000
  H   H668      1.0  0.26702  0.67065  0.11983  1.0000
  C   C402      1.0  0.08319  0.65479  0.28376  1.0000
  H   H669      1.0  0.26986  0.74223  0.07821  1.0000
  H   H670      1.0  0.02273  0.62317  0.99180  1.0000
  H   H671      1.0  0.31992  0.51122  0.43801  1.0000
  H   H672      1.0  0.06926  0.63329  0.29004  1.0000
  C   C403      1.0  0.48680  0.73216  0.44723  1.0000
  H   H673      1.0  0.24728  0.73494  0.14837  1.0000
  H   H674      1.0  0.27418  0.66270  0.04002  1.0000
  H   H675      1.0  0.29363  0.66797  0.07555  1.0000
  H   H676      1.0  0.30967  0.67600  0.03834  1.0000
  C   C404      1.0  0.48879  0.72577  0.11180  1.0000
  H   H677      1.0  0.45233  0.70366  0.06606  1.0000
  H   H678      1.0  0.36183  0.53118  0.99305  1.0000
  H   H679      1.0  0.08321  0.71012  0.29092  1.0000
  H   H680      1.0  0.24337  0.53223  0.42950  1.0000
  C   C405      1.0  0.14555  0.73296  0.38518  1.0000
  H   H681      1.0  0.08277  0.49508  0.14985  1.0000
  H   H682      1.0  0.23728  0.57035  0.35570  1.0000
  H   H683      1.0  0.40207  0.50895  0.40641  1.0000
  H   H684      1.0  0.42898  0.65730  0.16504  1.0000
  H   H685      1.0  0.30867  0.58433  0.41681  1.0000
  H   H686      1.0  0.26929  0.49937  0.01150  1.0000
  H   H687      1.0  0.10801  0.66042  0.21743  1.0000
  H   H688      1.0  0.28117  0.72464  0.12220  1.0000
  H   H689      1.0  0.27439  0.73456  0.03931  1.0000
  H   H690      1.0  0.24863  0.66870  0.07584  1.0000
  C   C406      1.0  0.33795  0.51089  0.43098  1.0000
  H   H691      1.0  0.30321  0.68659  0.12416  1.0000
  H   H692      1.0  0.26958  0.59822  0.39390  1.0000
  C   C407      1.0  0.36845  0.73059  0.09063  1.0000
  H   H693      1.0  0.41615  0.68269  0.07098  1.0000
  C   C408      1.0  0.02832  0.66562  0.24368  1.0000
  H   H694      1.0  0.26893  0.56688  0.39226  1.0000
  H   H695      1.0  0.43701  0.67809  0.11477  1.0000
  C   C409      1.0  0.09097  0.67136  0.31421  1.0000
  H   H696      1.0  0.21704  0.57034  0.38729  1.0000
  H   H697      1.0  0.04620  0.67217  0.28936  1.0000
  H   H698      1.0  0.00682  0.68460  0.16244  1.0000
  H   H699      1.0  0.38114  0.71024  0.36496  1.0000
  H   H700      1.0  0.21876  0.73458  0.25146  1.0000
  C   C410      1.0  0.28100  0.58729  0.45055  1.0000
  C   C411      1.0  0.10311  0.49694  0.14826  1.0000
  H   H701      1.0  0.25502  0.72013  0.47381  1.0000
  C   C412      1.0  0.42811  0.72625  0.15159  1.0000
  C   C413      1.0  0.23070  0.69172  0.09081  1.0000
  H   H702      1.0  0.31764  0.58496  0.45674  1.0000
  H   H703      1.0  0.40039  0.72660  0.31412  1.0000
  H   H704      1.0  0.47714  0.73372  0.15695  1.0000
  H   H705      1.0  0.43902  0.68314  0.38009  1.0000
  H   H706      1.0  0.19772  0.53245  0.42507  1.0000
  C   C414      1.0  0.23936  0.58907  0.44559  1.0000
  C   C415      1.0  0.40066  0.72974  0.36546  1.0000
  H   H707      1.0  0.28374  0.71475  0.37601  1.0000
  H   H708      1.0  0.41223  0.71822  0.09590  1.0000
  H   H709      1.0  0.13679  0.50665  0.09858  1.0000
  C   C416      1.0  0.44803  0.69970  0.36263  1.0000
  C   C417      1.0  0.48308  0.65359  0.13581  1.0000
  H   H710      1.0  0.22938  0.73129  0.38309  1.0000
  H   H711      1.0  0.45304  0.69146  0.34176  1.0000
  C   C418      1.0  0.24028  0.74031  0.24847  1.0000
  C   C419      1.0  0.33623  0.73493  0.47026  1.0000
  H   H712      1.0  0.31236  0.71741  0.35615  1.0000
  H   H713      1.0  0.46729  0.71640  0.37191  1.0000
  C   C420      1.0  0.42798  0.70912  0.35312  1.0000
  S   S120      1.0  0.16551  0.73939  0.26547  1.0000
  H   H714      1.0  0.12834  0.73663  0.38301  1.0000
  C   C421      1.0  0.46927  0.73886  0.46248  1.0000
  C   C422      1.0  0.30557  0.72841  0.37174  1.0000
  C   C423      1.0  0.32204  0.73577  0.40237  1.0000
  H   H715      1.0  0.27011  0.72621  0.42054  1.0000
  H   H716      1.0  0.01118  0.66631  0.25504  1.0000
  C   C424      1.0  0.28546  0.72855  0.43823  1.0000
  C   C425      1.0  0.27659  0.73521  0.46950  1.0000
  C   C426      1.0  0.11155  0.49591  0.18239  1.0000
  H   H717      1.0  0.16055  0.51002  0.14623  1.0000
  C   C427      1.0  0.22557  0.74169  0.43055  1.0000
  H   H718      1.0  0.17141  0.49600  0.11666  1.0000
  H   H719      1.0  0.28282  0.62428  0.98902  1.0000
  C   C428      1.0  0.99458  0.64607  0.09693  1.0000
  H   H720      1.0  0.49324  0.73585  0.08861  1.0000
  H   H721      1.0  0.28814  0.59594  0.98634  1.0000
  H   H722      1.0  0.33162  0.63223  0.98187  1.0000
  C   C429      1.0  0.23864  0.59322  0.48120  1.0000
  H   H723      1.0  0.34874  0.55308  0.90129  1.0000
  H   H724      1.0  0.32244  0.65369  0.96407  1.0000
  Fe  Fe62      1.0  0.19842  0.57714  0.79253  1.0000
  S   S121      1.0  0.21793  0.59332  0.83888  1.0000
  S   S122      1.0  0.19990  0.54182  0.77057  1.0000
  Fe  Fe63      1.0  0.17824  0.61830  0.78698  1.0000
  S   S123      1.0  0.19594  0.63639  0.83393  1.0000
  S   S124      1.0  0.16569  0.64021  0.75173  1.0000
  Fe  Fe64      1.0  0.23226  0.63426  0.81822  1.0000
  S   S125      1.0  0.27502  0.66803  0.82732  1.0000
  Fe  Fe65      1.0  0.17968  0.59343  0.84991  1.0000
  S   S126      1.0  0.16327  0.57843  0.89842  1.0000
  S   S127      1.0  0.21571  0.61803  0.77064  1.0000
  S   S128      1.0  0.15898  0.57519  0.80420  1.0000
  Fe  Fe66      1.0  0.42668  0.63975  0.52706  1.0000
  S   S129      1.0  0.44168  0.63874  0.57585  1.0000
  Fe  Fe67      1.0  0.05905  0.72425  0.66432  1.0000
  S   S130      1.0  0.03243  0.69656  0.70189  1.0000
  S   S131      1.0  0.05073  0.71737  0.61218  1.0000
  H   H725      1.0  0.00049  0.60094  0.61503  1.0000
  N   N30       1.0  0.39064  0.54215  0.54350  1.0000
  Fe  Fe68      1.0  0.07061  0.70438  0.72614  1.0000
  S   S132      1.0  0.07130  0.66925  0.75043  1.0000
  H   H726      1.0  0.07371  0.60480  0.67523  1.0000
  H   H727      1.0  0.05329  0.66140  0.67938  1.0000
  C   C430      1.0  0.14903  0.53516  0.93702  1.0000
  H   H728      1.0  0.25586  0.57845  0.70650  1.0000
  H   H729      1.0  0.40803  0.52306  0.51533  1.0000
  H   H730      1.0  0.29093  0.64598  0.88187  1.0000
  H   H731      1.0  0.03904  0.66884  0.64662  1.0000
  S   S133      1.0  0.42932  0.67736  0.50840  1.0000
  H   H732      1.0  0.28903  0.74246  0.74863  1.0000
  H   H733      1.0  0.34659  0.52292  0.54345  1.0000
  S   S134      1.0  0.35525  0.66374  0.49916  1.0000
  H   H734      1.0  0.02764  0.70561  0.55037  1.0000
  C   C431      1.0  0.07733  0.67081  0.63797  1.0000
  H   H735      1.0  0.46926  0.65062  0.63501  1.0000
  H   H736      1.0  0.12016  0.49545  0.54950  1.0000
  H   H737      1.0  0.09009  0.49929  0.51159  1.0000
  C   C432      1.0  0.34256  0.49859  0.95963  1.0000
  C   C433      1.0  0.29285  0.68827  0.79505  1.0000
  C   C434      1.0  0.32031  0.70766  0.79813  1.0000
  H   H738      1.0  0.32497  0.66841  0.89300  1.0000
  C   C435      1.0  0.32291  0.71779  0.74262  1.0000
  C   C436      1.0  0.29542  0.69871  0.73968  1.0000
  C   C437      1.0  0.28035  0.68437  0.76589  1.0000
  H   H739      1.0  0.33011  0.71087  0.82067  1.0000
  H   H740      1.0  0.42851  0.70784  0.56759  1.0000
  H   H741      1.0  0.25910  0.67013  0.76337  1.0000
  C   C438      1.0  0.13939  0.64821  0.75237  1.0000
  C   C439      1.0  0.13873  0.66500  0.72875  1.0000
  C   C440      1.0  0.11825  0.67190  0.72804  1.0000
  C   C441      1.0  0.09805  0.66193  0.75091  1.0000
  C   C442      1.0  0.09860  0.64504  0.77445  1.0000
  C   C443      1.0  0.11929  0.63839  0.77538  1.0000
  H   H742      1.0  0.15413  0.67261  0.71077  1.0000
  H   H743      1.0  0.11796  0.68470  0.70964  1.0000
  H   H744      1.0  0.08293  0.63702  0.79212  1.0000
  H   H745      1.0  0.11945  0.62537  0.79362  1.0000
  C   C444      1.0  0.26232  0.51817  0.80101  1.0000
  C   C445      1.0  0.36477  0.54319  0.54461  1.0000
  H   H746      1.0  0.04417  0.65486  0.58670  1.0000
  C   C446      1.0  0.14873  0.54363  0.90627  1.0000
  C   C447      1.0  0.13699  0.52430  0.88254  1.0000
  S   S135      1.0  0.09710  0.72932  0.68656  1.0000
  H   H747      1.0  0.21266  0.53932  0.87065  1.0000
  H   H748      1.0  0.09326  0.67442  0.65534  1.0000
  H   H749      1.0  0.13654  0.53060  0.85879  1.0000
  C   C448      1.0  0.22353  0.53254  0.78344  1.0000
  H   H750      1.0  0.27459  0.60591  0.95393  1.0000
  C   C449      1.0  0.35566  0.65024  0.92483  1.0000
  C   C450      1.0  0.39165  0.52819  0.51393  1.0000
  C   C451      1.0  0.26402  0.54200  0.81220  1.0000
  C   C452      1.0  0.24437  0.54882  0.80408  1.0000
  C   C453      1.0  0.37833  0.65329  0.94720  1.0000
  H   H751      1.0  0.41832  0.52182  0.87916  1.0000
  H   H752      1.0  0.24552  0.56679  0.81356  1.0000
  C   C454      1.0  0.35655  0.54536  0.94843  1.0000
  C   C455      1.0  0.48377  0.66341  0.61760  1.0000
  H   H753      1.0  0.30704  0.55791  0.93248  1.0000
  H   H754      1.0  0.31739  0.62230  0.88243  1.0000
  C   C456      1.0  0.33441  0.51078  0.90826  1.0000
  C   C457      1.0  0.34672  0.53786  0.91779  1.0000
  H   H755      1.0  0.28567  0.69515  0.71706  1.0000
  C   C458      1.0  0.30602  0.65036  0.90068  1.0000
  H   H756      1.0  0.36315  0.55368  0.52344  1.0000
  H   H757      1.0  0.01824  0.62620  0.56734  1.0000
  H   H758      1.0  0.04608  0.60161  0.69799  1.0000
  S   S136      1.0  0.28850  0.51161  0.81060  1.0000
  C   C459      1.0  0.04916  0.65742  0.65386  1.0000
  C   C460      1.0  0.37167  0.50092  0.58135  1.0000
  H   H759      1.0  0.36206  0.64849  0.90068  1.0000
  C   C461      1.0  0.13814  0.50767  0.94397  1.0000
  H   H760      1.0  0.11185  0.53033  0.53012  1.0000
  H   H761      1.0  0.20652  0.72002  0.80705  1.0000
  H   H762      1.0  0.45692  0.59700  0.53670  1.0000
  H   H763      1.0  0.39781  0.67072  0.93948  1.0000
  H   H764      1.0  0.35656  0.73726  0.77440  1.0000
  S   S137      1.0  0.34087  0.73496  0.70894  1.0000
  C   C462      1.0  0.10245  0.49595  0.55959  1.0000
  H   H765      1.0  0.99881  0.59393  0.67396  1.0000
  H   H766      1.0  0.44430  0.50351  0.89582  1.0000
  H   H767      1.0  0.18201  0.51907  0.89098  1.0000
  S   S138      1.0  0.99858  0.73018  0.74123  1.0000
  H   H768      1.0  0.28059  0.55516  0.82736  1.0000
  C   C463      1.0  0.11940  0.72531  0.79605  1.0000
  H   H769      1.0  0.41531  0.58165  0.56455  1.0000
  H   H770      1.0  0.29704  0.57247  0.90217  1.0000
  H   H771      1.0  0.25847  0.60961  0.48968  1.0000
  H   H772      1.0  0.07742  0.51281  0.54161  1.0000
  Fe  Fe69      1.0  0.38676  0.65144  0.49150  1.0000
  H   H773      1.0  0.15803  0.54996  0.95550  1.0000
  H   H774      1.0  0.37610  0.57896  0.57435  1.0000
  H   H775      1.0  0.40981  0.58231  0.52372  1.0000
  C   C464      1.0  0.32927  0.60162  0.93308  1.0000
  H   H776      1.0  0.37135  0.49879  0.60723  1.0000
  S   S139      1.0  0.44017  0.62846  0.48302  1.0000
  H   H777      1.0  0.18848  0.70391  0.77116  1.0000
  C   C465      1.0  0.24083  0.50119  0.78148  1.0000
  H   H778      1.0  0.28892  0.60804  0.90709  1.0000
  H   H779      1.0  0.46504  0.73320  0.53160  1.0000
  N   N31       1.0  0.32761  0.62712  0.93165  1.0000
  H   H780      1.0  0.33712  0.59988  0.95621  1.0000
  C   C466      1.0  0.21458  0.54492  0.92077  1.0000
  C   C467      1.0  0.43590  0.72806  0.57839  1.0000
  H   H781      1.0  0.30608  0.66550  0.49741  1.0000
  H   H782      1.0  0.16212  0.71198  0.83047  1.0000
  N   N32       1.0  0.46638  0.74316  0.58083  1.0000
  H   H783      1.0  0.32680  0.50528  0.88465  1.0000
  H   H784      1.0  0.44368  0.56790  0.51233  1.0000
  H   H785      1.0  0.15195  0.72168  0.74874  1.0000
  C   C468      1.0  0.16994  0.74006  0.75774  1.0000
  C   C469      1.0  0.01016  0.61640  0.67452  1.0000
  H   H786      1.0  0.13895  0.50151  0.96767  1.0000
  H   H787      1.0  0.24167  0.59752  0.69089  1.0000
  C   C470      1.0  0.42332  0.74207  0.55948  1.0000
  H   H788      1.0  0.15587  0.53180  0.49994  1.0000
  C   C471      1.0  0.36566  0.50218  0.50433  1.0000
  C   C472      1.0  0.30309  0.57464  0.92717  1.0000
  H   H789      1.0  0.44738  0.50903  0.85394  1.0000
  C   C473      1.0  0.35403  0.52555  0.96949  1.0000
  H   H790      1.0  0.44839  0.56551  0.55409  1.0000
  H   H791      1.0  0.00343  0.63334  0.61777  1.0000
  H   H792      1.0  0.41293  0.52714  0.56938  1.0000
  C   C474      1.0  0.30959  0.62559  0.90496  1.0000
  C   C475      1.0  0.36110  0.55710  0.57362  1.0000
  H   H793      1.0  0.10555  0.73172  0.80607  1.0000
  H   H794      1.0  0.99962  0.68624  0.64521  1.0000
  C   C476      1.0  0.16485  0.71352  0.80455  1.0000
  C   C477      1.0  0.28946  0.61330  0.97319  1.0000
  H   H795      1.0  0.20685  0.53354  0.94295  1.0000
  C   C478      1.0  0.41362  0.57094  0.54221  1.0000
  C   C479      1.0  0.31875  0.63270  0.96268  1.0000
  H   H796      1.0  0.23792  0.58983  0.73144  1.0000
  H   H797      1.0  0.14567  0.69704  0.79462  1.0000
  N   N33       1.0  0.03066  0.62767  0.64825  1.0000
  H   H798      1.0  0.06051  0.61826  0.62925  1.0000
  H   H799      1.0  0.34305  0.74102  0.49478  1.0000
  C   C480      1.0  0.01695  0.69765  0.59919  1.0000
  H   H800      1.0  0.20721  0.55956  0.91965  1.0000
  H   H801      1.0  0.03113  0.59030  0.64349  1.0000
  H   H802      1.0  0.01505  0.59693  0.96295  1.0000
  C   C481      1.0  0.22172  0.50859  0.77237  1.0000
  H   H803      1.0  0.11718  0.72504  0.77026  1.0000
  H   H804      1.0  0.28812  0.73393  0.48964  1.0000
  C   C482      1.0  0.44206  0.57504  0.53594  1.0000
  S   S140      1.0  0.07383  0.73965  0.75334  1.0000
  N   N34       1.0  0.29629  0.62225  0.74351  1.0000
  C   C483      1.0  0.28076  0.61833  0.77348  1.0000
  C   C484      1.0  0.27868  0.62216  0.71709  1.0000
  C   C485      1.0  0.32210  0.64922  0.74549  1.0000
  C   C486      1.0  0.30235  0.59955  0.74090  1.0000
  C   C487      1.0  0.29613  0.62082  0.80422  1.0000
  C   C488      1.0  0.25218  0.59532  0.71159  1.0000
  C   C489      1.0  0.33545  0.66340  0.71445  1.0000
  C   C490      1.0  0.31567  0.59778  0.71031  1.0000
  H   H805      1.0  0.27363  0.63313  0.77504  1.0000
  H   H806      1.0  0.26217  0.59829  0.77399  1.0000
  H   H807      1.0  0.28938  0.62740  0.69433  1.0000
  H   H808      1.0  0.27325  0.63814  0.72099  1.0000
  H   H809      1.0  0.31857  0.66407  0.75840  1.0000
  H   H810      1.0  0.33773  0.64753  0.75929  1.0000
  H   H811      1.0  0.31637  0.60098  0.75983  1.0000
  H   H812      1.0  0.28403  0.57956  0.74534  1.0000
  H   H813      1.0  0.31407  0.64115  0.80720  1.0000
  H   H814      1.0  0.28250  0.61785  0.82425  1.0000
  H   H815      1.0  0.30200  0.60516  0.80625  1.0000
  H   H816      1.0  0.18713  0.73813  0.74864  1.0000
  C   C491      1.0  0.39470  0.52922  0.57218  1.0000
  H   H817      1.0  0.47342  0.70461  0.64008  1.0000
  H   H818      1.0  0.32333  0.67106  0.70253  1.0000
  H   H819      1.0  0.33909  0.65051  0.69828  1.0000
  H   H820      1.0  0.35537  0.68142  0.71967  1.0000
  H   H821      1.0  0.33802  0.61047  0.71169  1.0000
  H   H822      1.0  0.30826  0.60314  0.68918  1.0000
  H   H823      1.0  0.31040  0.57650  0.70651  1.0000
  S   S141      1.0  0.37319  0.57977  0.95896  1.0000
  C   C492      1.0  0.20400  0.52636  0.89180  1.0000
  C   C493      1.0  0.33531  0.72256  0.77198  1.0000
  H   H824      1.0  0.39964  0.54250  0.59311  1.0000
  H   H825      1.0  0.08238  0.69110  0.62940  1.0000
  C   C494      1.0  0.18656  0.70587  0.79672  1.0000
  H   H826      1.0  0.47173  0.73448  0.64595  1.0000
  C   C495      1.0  0.04547  0.61202  0.64831  1.0000
  H   H827      1.0  0.07341  0.63450  0.68730  1.0000
  C   C496      1.0  0.99568  0.68404  0.62037  1.0000
  H   H828      1.0  0.21199  0.50368  0.84069  1.0000
  H   H829      1.0  0.37506  0.65761  0.97159  1.0000
  S   S142      1.0  0.38264  0.61472  0.51501  1.0000
  C   C497      1.0  0.01135  0.69514  0.56696  1.0000
  Fe  Fe70      1.0  0.03800  0.73400  0.72519  1.0000
  C   C498      1.0  0.46470  0.71665  0.63053  1.0000
  H   H830      1.0  0.34089  0.55544  0.57241  1.0000
  H   H831      1.0  0.24050  0.73083  0.75775  1.0000
  C   C499      1.0  0.47569  0.66163  0.58621  1.0000
  H   H832      1.0  0.34408  0.60221  0.91560  1.0000
  H   H833      1.0  0.36184  0.54737  0.59572  1.0000
  H   H834      1.0  0.38857  0.51762  0.89767  1.0000
  C   C500      1.0  0.01537  0.62282  0.61787  1.0000
  H   H835      1.0  0.11022  0.50987  0.58007  1.0000
  H   H836      1.0  0.39009  0.51814  0.85603  1.0000
  N   N35       1.0  0.20919  0.50295  0.89110  1.0000
  H   H837      1.0  0.39678  0.54202  0.49349  1.0000
  H   H838      1.0  0.24645  0.52367  0.91767  1.0000
  H   H839      1.0  0.07927  0.66013  0.61755  1.0000
  H   H840      1.0  0.46638  0.70551  0.58266  1.0000
  H   H841      1.0  0.29812  0.65497  0.92208  1.0000
  C   C501      1.0  0.09436  0.50985  0.53440  1.0000
  H   H842      1.0  0.28619  0.57177  0.94228  1.0000
  C   C502      1.0  0.06042  0.61354  0.67906  1.0000
  H   H843      1.0  0.18021  0.68568  0.80685  1.0000
  H   H844      1.0  0.38111  0.63547  0.94685  1.0000
  H   H845      1.0  0.35613  0.66988  0.92566  1.0000
  H   H846      1.0  0.42640  0.72415  0.60198  1.0000
  H   H847      1.0  0.23694  0.55702  0.92113  1.0000
  H   H848      1.0  0.11223  0.70461  0.80479  1.0000
  C   C503      1.0  0.03225  0.63252  0.58767  1.0000
  H   H849      1.0  0.04534  0.62360  0.58417  1.0000
  H   H850      1.0  0.25015  0.53108  0.87684  1.0000
  H   H851      1.0  0.40100  0.72873  0.55916  1.0000
  H   H852      1.0  0.44245  0.70370  0.63209  1.0000
  H   H853      1.0  0.23290  0.57457  0.49462  1.0000
  H   H854      1.0  0.48871  0.67718  0.53967  1.0000
  C   C504      1.0  0.47432  0.72450  0.59641  1.0000
  H   H855      1.0  0.02037  0.62199  0.69779  1.0000
  H   H856      1.0  0.99765  0.64715  0.67108  1.0000
  C   C505      1.0  0.39610  0.51123  0.87727  1.0000
  H   H857      1.0  0.34961  0.50649  0.49678  1.0000
  H   H858      1.0  0.27265  0.50671  0.89106  1.0000
  H   H859      1.0  0.41374  0.50350  0.82565  1.0000
  H   H860      1.0  0.22357  0.59957  0.48636  1.0000
  C   C506      1.0  0.12541  0.49670  0.88967  1.0000
  H   H861      1.0  0.16656  0.49624  0.84540  1.0000
  N   N36       1.0  0.17028  0.74075  0.79304  1.0000
  C   C507      1.0  0.23931  0.51453  0.89415  1.0000
  H   H862      1.0  0.20558  0.49581  0.75649  1.0000
  H   H863      1.0  0.14895  0.74483  0.83262  1.0000
  H   H864      1.0  0.35124  0.49694  0.57521  1.0000
  H   H865      1.0  0.25361  0.74484  0.72034  1.0000
  Fe  Fe71      1.0  0.15972  0.96326  0.07105  1.0000
  S   S143      1.0  0.16877  0.94984  0.02569  1.0000
  Fe  Fe72      1.0  0.10057  0.91646  0.07309  1.0000
  S   S144      1.0  0.10563  0.90025  0.02715  1.0000
  S   S145      1.0  0.06542  0.89119  0.10678  1.0000
  Fe  Fe73      1.0  0.14566  0.90826  0.04581  1.0000
  S   S146      1.0  0.15815  0.87699  0.03785  1.0000
  Fe  Fe74      1.0  0.12846  0.94352  0.01088  1.0000
  S   S147      1.0  0.18680  0.77069  0.18301  1.0000
  S   S148      1.0  0.13986  0.92215  0.09264  1.0000
  Fe  Fe75      1.0  0.37345  0.78095  0.14921  1.0000
  S   S149      1.0  0.37762  0.80266  0.10425  1.0000
  C   C508      1.0  0.10424  0.87216  0.17895  1.0000
  Fe  Fe76      1.0  0.38476  0.83016  0.18851  1.0000
  S   S150      1.0  0.39102  0.85584  0.14597  1.0000
  S   S151      1.0  0.38303  0.84138  0.23916  1.0000
  Fe  Fe77      1.0  0.35375  0.81898  0.12815  1.0000
  S   S152      1.0  0.31884  0.82193  0.10714  1.0000
  Fe  Fe78      1.0  0.41487  0.83724  0.12628  1.0000
  S   S153      1.0  0.45111  0.85383  0.09253  1.0000
  S   S154      1.0  0.34669  0.79451  0.17138  1.0000
  S   S155      1.0  0.41145  0.81426  0.17053  1.0000
  Fe  Fe79      1.0  0.30126  0.89520  0.32906  1.0000
  S   S156      1.0  0.32655  0.89975  0.37154  1.0000
  S   S157      1.0  0.31273  0.89507  0.27800  1.0000
  Fe  Fe80      1.0  0.25186  0.88336  0.36875  1.0000
  S   S158      1.0  0.27321  0.88587  0.41365  1.0000
  S   S159      1.0  0.20831  0.87361  0.36423  1.0000
  Fe  Fe81      1.0  0.30830  0.92336  0.39274  1.0000
  S   S160      1.0  0.32643  0.95858  0.42781  1.0000
  Fe  Fe82      1.0  0.28928  0.86236  0.38844  1.0000
  S   S161      1.0  0.29246  0.82649  0.40551  1.0000
  S   S162      1.0  0.28573  0.92163  0.34871  1.0000
  S   S163      1.0  0.26520  0.85696  0.34512  1.0000
  S   S164      1.0  0.16938  0.82641  0.16459  1.0000
  C   C509      1.0  0.28869  0.79648  0.26126  1.0000
  C   C510      1.0  0.25417  0.76335  0.22435  1.0000
  S   S165      1.0  0.01604  0.83254  0.42583  1.0000
  C   C511      1.0  0.18339  0.94342  0.47850  1.0000
  H   H866      1.0  0.49349  0.87165  0.04696  1.0000
  H   H867      1.0  0.07184  0.77577  0.14413  1.0000
  H   H868      1.0  0.05478  0.83913  0.12917  1.0000
  H   H869      1.0  0.23191  0.93390  0.41135  1.0000
  S   S166      1.0  0.09650  0.88784  0.43788  1.0000
  C   C512      1.0  0.10557  0.86192  0.14592  1.0000
  H   H870      1.0  0.13044  0.76471  0.42304  1.0000
  H   H871      1.0  0.06976  0.84008  0.08075  1.0000
  H   H872      1.0  0.19154  0.86788  0.47769  1.0000
  H   H873      1.0  0.45481  0.77068  0.14981  1.0000
  H   H874      1.0  0.16649  0.81490  0.38313  1.0000
  C   C513      1.0  0.02590  0.79046  0.43510  1.0000
  H   H875      1.0  0.46216  0.77099  0.47655  1.0000
  H   H876      1.0  0.11473  0.83024  0.10655  1.0000
  C   C514      1.0  0.05876  0.82546  0.14383  1.0000
  H   H877      1.0  0.42233  0.75933  0.16643  1.0000
  C   C515      1.0  0.00684  0.79814  0.42779  1.0000
  H   H878      1.0  0.15551  0.82647  0.05091  1.0000
  C   C516      1.0  0.18566  0.97423  0.41923  1.0000
  C   C517      1.0  0.18906  0.86967  0.39811  1.0000
  C   C518      1.0  0.19952  0.87106  0.42806  1.0000
  H   H879      1.0  0.08452  0.87101  0.18318  1.0000
  H   H880      1.0  0.25819  0.97078  0.07536  1.0000
  C   C519      1.0  0.14650  0.86109  0.42141  1.0000
  C   C520      1.0  0.16246  0.86455  0.39487  1.0000
  H   H881      1.0  0.22002  0.87520  0.43087  1.0000
  H   H882      1.0  0.47868  0.75492  0.12666  1.0000
  H   H883      1.0  0.12608  0.85733  0.41869  1.0000
  H   H884      1.0  0.15422  0.86342  0.37175  1.0000
  C   C521      1.0  0.26345  0.79510  0.41320  1.0000
  C   C522      1.0  0.25279  0.78934  0.44350  1.0000
  C   C523      1.0  0.23351  0.76289  0.45190  1.0000
  C   C524      1.0  0.48650  0.87710  0.09532  1.0000
  H   H885      1.0  0.42503  0.75801  0.12515  1.0000
  C   C525      1.0  0.25441  0.77413  0.39121  1.0000
  H   H886      1.0  0.12706  0.86820  0.14124  1.0000
  H   H887      1.0  0.30087  0.81831  0.26694  1.0000
  C   C526      1.0  0.28513  0.79686  0.11496  1.0000
  H   H888      1.0  0.42587  0.75904  0.32887  1.0000
  H   H889      1.0  0.15974  0.79357  0.43898  1.0000
  H   H890      1.0  0.08093  0.80436  0.10190  1.0000
  H   H891      1.0  0.15249  0.94117  0.37292  1.0000
  C   C527      1.0  0.26398  0.79987  0.10280  1.0000
  H   H892      1.0  0.35448  0.77178  0.44488  1.0000
  C   C528      1.0  0.15745  0.79283  0.38681  1.0000
  H   H893      1.0  0.26857  0.81775  0.08956  1.0000
  C   C529      1.0  0.36345  0.85637  0.24952  1.0000
  C   C530      1.0  0.35795  0.85806  0.28125  1.0000
  C   C531      1.0  0.34238  0.86978  0.29029  1.0000
  C   C532      1.0  0.33256  0.88036  0.26766  1.0000
  C   C533      1.0  0.33821  0.87884  0.23595  1.0000
  C   C534      1.0  0.35327  0.86658  0.22685  1.0000
  H   H894      1.0  0.36579  0.85029  0.29895  1.0000
  H   H895      1.0  0.33825  0.87087  0.31479  1.0000
  H   H896      1.0  0.33092  0.88718  0.21833  1.0000
  H   H897      1.0  0.35746  0.86552  0.20235  1.0000
  C   C535      1.0  0.03042  0.88094  0.10690  1.0000
  C   C536      1.0  0.01808  0.88674  0.08221  1.0000
  C   C537      1.0  0.27897  0.77367  0.13211  1.0000
  H   H898      1.0  0.19276  0.92197  0.38957  1.0000
  H   H899      1.0  0.18141  0.79791  0.29889  1.0000
  C   C538      1.0  0.01442  0.86595  0.13252  1.0000
  H   H900      1.0  0.03007  0.89824  0.06237  1.0000
  H   H901      1.0  0.39089  0.74991  0.32866  1.0000
  H   H902      1.0  0.43996  0.78415  0.37465  1.0000
  H   H903      1.0  0.02376  0.86147  0.15185  1.0000
  C   C539      1.0  0.16392  0.86391  0.07241  1.0000
  C   C540      1.0  0.17081  0.87872  0.10025  1.0000
  C   C541      1.0  0.17321  0.86721  0.12819  1.0000
  C   C542      1.0  0.16853  0.84078  0.12854  1.0000
  C   C543      1.0  0.16272  0.82630  0.10051  1.0000
  C   C544      1.0  0.16059  0.83794  0.07244  1.0000
  H   H904      1.0  0.17423  0.89904  0.10029  1.0000
  H   H905      1.0  0.17804  0.87863  0.14974  1.0000
  H   H906      1.0  0.15948  0.80604  0.10047  1.0000
  S   S167      1.0  0.12027  0.95949  0.05535  1.0000
  C   C545      1.0  0.14475  0.78652  0.41987  1.0000
  H   H907      1.0  0.25778  0.95975  0.43446  1.0000
  C   C546      1.0  0.17826  0.93283  0.44454  1.0000
  H   H908      1.0  0.22843  0.78991  0.23677  1.0000
  H   H909      1.0  0.01675  0.79464  0.13934  1.0000
  H   H910      1.0  0.13294  0.79699  0.42291  1.0000
  H   H911      1.0  0.21134  0.82524  0.37663  1.0000
  H   H912      1.0  0.08315  0.81409  0.18644  1.0000
  Fe  Fe83      1.0  0.10615  0.87117  0.48036  1.0000
  C   C547      1.0  0.25191  0.75312  0.13577  1.0000
  C   C548      1.0  0.09485  0.81725  0.16446  1.0000
  C   C549      1.0  0.23084  0.75584  0.12280  1.0000
  N   N37       1.0  0.26726  0.79156  0.23733  1.0000
  C   C550      1.0  0.22407  0.96667  0.42572  1.0000
  C   C551      1.0  0.25536  0.82405  0.26561  1.0000
  H   H913      1.0  0.22575  0.75865  0.47558  1.0000
  H   H914      1.0  0.10056  0.87382  0.12958  1.0000
  C   C552      1.0  0.17795  0.77975  0.34464  1.0000
  H   H915      1.0  0.18200  0.91564  0.44350  1.0000
  H   H916      1.0  0.09217  0.83349  0.05811  1.0000
  H   H917      1.0  0.19195  0.77213  0.33869  1.0000
  C   C553      1.0  0.08990  0.84173  0.08074  1.0000
  H   H918      1.0  0.17413  0.81475  0.32940  1.0000
  C   C554      1.0  0.33380  0.75757  0.45362  1.0000
  H   H919      1.0  0.34669  0.78789  0.38049  1.0000
  H   H920      1.0  0.26012  0.80522  0.46086  1.0000
  C   C555      1.0  0.12449  0.98705  0.41000  1.0000
  C   C556      1.0  0.24576  0.79546  0.25284  1.0000
  H   H921      1.0  0.30971  0.77939  0.05443  1.0000
  H   H922      1.0  0.26296  0.77832  0.36790  1.0000
  N   N38       1.0  0.25988  0.89667  0.15552  1.0000
  C   C557      1.0  0.25213  0.91819  0.15916  1.0000
  C   C558      1.0  0.24811  0.87778  0.18303  1.0000
  C   C559      1.0  0.24775  0.88181  0.12512  1.0000
  C   C560      1.0  0.29032  0.91043  0.15477  1.0000
  C   C561      1.0  0.25978  0.93824  0.13166  1.0000
  C   C562      1.0  0.25837  0.89021  0.21575  1.0000
  C   C563      1.0  0.23998  0.85183  0.12321  1.0000
  C   C564      1.0  0.30271  0.89196  0.15501  1.0000
  H   H923      1.0  0.22989  0.90881  0.16277  1.0000
  H   H924      1.0  0.26180  0.93083  0.18020  1.0000
  H   H925      1.0  0.25205  0.86079  0.18125  1.0000
  H   H926      1.0  0.22566  0.86834  0.18314  1.0000
  H   H927      1.0  0.22856  0.88162  0.11970  1.0000
  H   H928      1.0  0.26139  0.89241  0.10501  1.0000
  H   H929      1.0  0.29849  0.92325  0.13354  1.0000
  H   H930      1.0  0.29917  0.92450  0.17495  1.0000
  H   H931      1.0  0.25201  0.95217  0.13675  1.0000
  H   H932      1.0  0.28198  0.95107  0.12888  1.0000
  H   H933      1.0  0.25059  0.92819  0.10916  1.0000
  H   H934      1.0  0.25226  0.90518  0.22202  1.0000
  H   H935      1.0  0.24907  0.87400  0.23361  1.0000
  H   H936      1.0  0.28057  0.89925  0.21820  1.0000
  H   H937      1.0  0.25659  0.84817  0.12953  1.0000
  H   H938      1.0  0.23389  0.84458  0.09882  1.0000
  H   H939      1.0  0.22223  0.83909  0.13821  1.0000
  H   H940      1.0  0.29657  0.87864  0.17580  1.0000
  H   H941      1.0  0.32508  0.90468  0.15611  1.0000
  H   H942      1.0  0.29807  0.87999  0.13324  1.0000
  C   C565      1.0  0.44732  0.77625  0.39360  1.0000
  H   H943      1.0  0.46793  0.79274  0.39982  1.0000
  H   H944      1.0  0.48667  0.88714  0.14386  1.0000
  H   H945      1.0  0.03768  0.78174  0.15209  1.0000
  Fe  Fe84      1.0  0.05310  0.86180  0.45354  1.0000
  C   C566      1.0  0.23692  0.77955  0.10693  1.0000
  H   H946      1.0  0.11987  0.89383  0.18063  1.0000
  H   H947      1.0  0.09358  0.77962  0.17601  1.0000
  H   H948      1.0  0.24838  0.81968  0.19669  1.0000
  H   H949      1.0  0.24874  0.79304  0.17459  1.0000
  Fe  Fe85      1.0  0.15693  0.78230  0.16621  1.0000
  H   H950      1.0  0.17056  0.75977  0.42139  1.0000
  H   H951      1.0  0.10591  0.86321  0.08100  1.0000
  H   H952      1.0  0.16326  0.96464  0.41830  1.0000
  H   H953      1.0  0.29505  0.77119  0.14169  1.0000
  H   H954      1.0  0.99872  0.80292  0.03948  1.0000
  H   H955      1.0  0.46181  0.75819  0.36116  1.0000
  H   H956      1.0  0.32003  0.79783  0.22992  1.0000
  H   H957      1.0  0.03788  0.79112  0.11128  1.0000
  H   H958      1.0  0.15619  0.92394  0.44070  1.0000
  S   S168      1.0  0.13975  0.75160  0.12759  1.0000
  C   C567      1.0  0.01803  0.76302  0.43723  1.0000
  H   H959      1.0  0.29444  0.80629  0.19748  1.0000
  H   H960      1.0  0.33573  0.81110  0.39031  1.0000
  C   C568      1.0  0.31303  0.77301  0.41474  1.0000
  H   H961      1.0  0.23362  0.82696  0.42646  1.0000
  H   H962      1.0  0.23674  0.78146  0.27305  1.0000
  H   H963      1.0  0.04685  0.80566  0.43840  1.0000
  H   H964      1.0  0.20202  0.95236  0.36984  1.0000
  H   H965      1.0  0.26421  0.83973  0.24722  1.0000
  H   H966      1.0  0.27969  0.78680  0.28407  1.0000
  H   H967      1.0  0.34374  0.74873  0.39622  1.0000
  H   H968      1.0  0.46206  0.74858  0.40012  1.0000
  H   H969      1.0  0.10851  0.86153  0.19781  1.0000
  H   H970      1.0  0.03302  0.75724  0.44217  1.0000
  H   H971      1.0  0.14459  0.90976  0.39186  1.0000
  H   H972      1.0  0.20769  0.81932  0.32501  1.0000
  H   H973      1.0  0.15774  0.91675  0.35315  1.0000
  H   H974      1.0  0.43466  0.77250  0.41453  1.0000
  C   C569      1.0  0.18836  0.93877  0.38843  1.0000
  C   C570      1.0  0.22894  0.98340  0.08407  1.0000
  H   H975      1.0  0.23802  0.75997  0.20735  1.0000
  H   H976      1.0  0.99959  0.83280  0.05486  1.0000
  H   H977      1.0  0.11653  0.82950  0.17151  1.0000
  H   H978      1.0  0.20166  0.82434  0.43134  1.0000
  H   H979      1.0  0.26853  0.76003  0.20998  1.0000
  H   H980      1.0  0.32552  0.75963  0.04869  1.0000
  S   S169      1.0  0.12665  0.96491  0.46765  1.0000
  H   H981      1.0  0.22079  0.78177  0.09675  1.0000
  H   H982      1.0  0.23777  0.82481  0.27547  1.0000
  C   C571      1.0  0.13595  0.99145  0.43989  1.0000
  H   H983      1.0  0.32471  0.79378  0.27027  1.0000
  C   C572      1.0  0.15905  0.92612  0.37634  1.0000
  H   H984      1.0  0.27024  0.82937  0.28484  1.0000
  H   H985      1.0  0.21210  0.96497  0.07522  1.0000
  C   C573      1.0  0.18577  0.80456  0.32371  1.0000
  H   H986      1.0  0.18867  0.75409  0.39186  1.0000
  C   C574      1.0  0.09157  0.78973  0.15487  1.0000
  H   H987      1.0  0.10791  0.79249  0.13854  1.0000
  C   C575      1.0  0.44924  0.75152  0.38280  1.0000
  N   N39       1.0  0.08771  0.83207  0.14033  1.0000
  N   N40       1.0  0.19410  0.95316  0.41949  1.0000
  C   C576      1.0  0.21160  0.81310  0.42328  1.0000
  C   C577      1.0  0.28060  0.81113  0.21072  1.0000
  H   H988      1.0  0.30343  0.97186  0.99048  1.0000
  C   C578      1.0  0.17183  0.75833  0.39562  1.0000
  H   H989      1.0  0.22125  0.80049  0.38011  1.0000
  H   H990      1.0  0.23567  0.97969  0.40564  1.0000
  C   C579      1.0  0.23570  0.74742  0.39992  1.0000
  H   H991      1.0  0.27384  0.82713  0.16786  1.0000
  C   C580      1.0  0.20608  0.80594  0.38835  1.0000
  C   C581      1.0  0.03688  0.79645  0.13599  1.0000
  H   H992      1.0  0.10904  0.96699  0.40324  1.0000
  H   H993      1.0  0.20612  0.79551  0.43850  1.0000
  H   H994      1.0  0.02025  0.82103  0.07155  1.0000
  H   H995      1.0  0.05466  0.82909  0.16828  1.0000
  N   N41       1.0  0.17792  0.78420  0.37953  1.0000
  C   C582      1.0  0.30913  0.78768  0.25165  1.0000
  H   H996      1.0  0.22736  0.93547  0.45301  1.0000
  C   C583      1.0  0.26146  0.81256  0.18637  1.0000
  H   H997      1.0  0.29702  0.76698  0.39674  1.0000
  C   C584      1.0  0.15688  0.86211  0.45135  1.0000
  H   H998      1.0  0.14011  0.78349  0.37019  1.0000
  C   C585      1.0  0.25504  0.98668  0.08422  1.0000
  H   H999      1.0  0.29374  0.83191  0.21962  1.0000
  C   C586      1.0  0.18332  0.86684  0.45458  1.0000
  C   C587      1.0  0.09354  0.82602  0.10780  1.0000
  C   C588      1.0  0.23551  0.94760  0.43139  1.0000
  H   H1000     1.0  0.15761  0.76405  0.33640  1.0000
  Fe  Fe86      1.0  0.09747  0.91914  0.47093  1.0000
  H   H1001     1.0  0.30748  0.78287  0.43348  1.0000
  H   H1002     1.0  0.35570  0.80550  0.41785  1.0000
  H   H1003     1.0  0.30864  0.74649  0.35880  1.0000
  S   S170      1.0  0.12595  0.75602  0.20145  1.0000
  H   H1004     1.0  0.31912  0.76757  0.08782  1.0000
  N   N42       1.0  0.31362  0.74871  0.42728  1.0000
  C   C589      1.0  0.33953  0.79532  0.40013  1.0000
  H   H1005     1.0  0.29947  0.76552  0.24899  1.0000
  H   H1006     1.0  0.19153  0.98594  0.44145  1.0000
  C   C590      1.0  0.31101  0.76196  0.06373  1.0000
  H   H1007     1.0  0.33024  0.76969  0.47142  1.0000
  H   H1008     1.0  0.19110  0.98583  0.36914  1.0000
  H   H1009     1.0  0.37677  0.98152  0.99180  1.0000
  H   H1010     1.0  0.37401  0.75144  0.08760  1.0000
  C   C591      1.0  0.00008  0.81421  0.06101  1.0000
  C   C592      1.0  0.47632  0.76599  0.46602  1.0000
  C   C593      1.0  0.43319  0.75525  0.14754  1.0000
  H   H1011     1.0  0.27824  0.75531  0.46912  1.0000
  H   H1012     1.0  0.22974  0.98049  0.44618  1.0000
  C   C594      1.0  0.34715  0.99426  0.42427  1.0000
  H   H1013     1.0  0.25002  0.74523  0.27174  1.0000
  Fe  Fe87      1.0  0.28795  0.93117  0.88107  1.0000
  S   S171      1.0  0.29256  0.94369  0.93195  1.0000
  Fe  Fe88      1.0  0.24571  0.89071  0.83518  1.0000
  S   S172      1.0  0.27490  0.90502  0.79469  1.0000
  S   S173      1.0  0.20269  0.85578  0.83787  1.0000
  Fe  Fe89      1.0  0.30516  0.90530  0.82901  1.0000
  S   S174      1.0  0.33045  0.88437  0.82887  1.0000
  Fe  Fe90      1.0  0.28740  0.94660  0.81382  1.0000
  S   S175      1.0  0.27490  0.88852  0.86831  1.0000
  S   S176      1.0  0.25602  0.93203  0.85163  1.0000
  Fe  Fe91      1.0  0.06478  0.87627  0.52208  1.0000
  S   S177      1.0  0.04644  0.86176  0.57047  1.0000
  Fe  Fe92      1.0  0.40965  0.83212  0.72106  1.0000
  S   S178      1.0  0.38988  0.80432  0.68039  1.0000
  S   S179      1.0  0.39932  0.86583  0.72378  1.0000
  Fe  Fe93      1.0  0.43982  0.80222  0.73803  1.0000
  S   S180      1.0  0.42128  0.77189  0.69935  1.0000
  H   H1014     1.0  0.22225  0.95930  0.94073  1.0000
  Fe  Fe94      1.0  0.42998  0.80792  0.67030  1.0000
  S   S181      1.0  0.44323  0.81174  0.61979  1.0000
  Fe  Fe95      1.0  0.38285  0.77100  0.71315  1.0000
  H   H1015     1.0  0.10805  0.76563  0.57487  1.0000
  S   S182      1.0  0.45083  0.83858  0.70810  1.0000
  S   S183      1.0  0.40040  0.79842  0.75467  1.0000
  S   S184      1.0  0.13814  0.80323  0.71228  1.0000
  H   H1016     1.0  0.25007  0.76529  0.75030  1.0000
  C   C595      1.0  0.00114  0.78488  0.51507  1.0000
  H   H1017     1.0  0.16052  0.77302  0.75230  1.0000
  C   C596      1.0  0.08485  0.92343  0.72028  1.0000
  C   C597      1.0  0.18256  0.89256  0.90383  1.0000
  H   H1018     1.0  0.44620  0.88494  0.57914  1.0000
  C   C598      1.0  0.40543  0.86145  0.61810  1.0000
  H   H1019     1.0  0.44222  0.92360  0.67316  1.0000
  H   H1020     1.0  0.15179  0.76564  0.80098  1.0000
  C   C599      1.0  0.01511  0.85856  0.58133  1.0000
  C   C600      1.0  0.46130  0.88635  0.59663  1.0000
  S   S185      1.0  0.10910  0.90309  0.51287  1.0000
  H   H1021     1.0  0.19585  0.84225  0.95627  1.0000
  H   H1022     1.0  0.32034  0.82731  0.76137  1.0000
  C   C601      1.0  0.41555  0.94781  0.94225  1.0000
  C   C602      1.0  0.28404  0.75763  0.75783  1.0000
  H   H1023     1.0  0.02001  0.78968  0.52763  1.0000
  H   H1024     1.0  0.47017  0.82626  0.56072  1.0000
  C   C603      1.0  0.08780  0.78524  0.52226  1.0000
  H   H1025     1.0  0.22025  0.94620  0.90138  1.0000
  H   H1026     1.0  0.03789  0.91605  0.70119  1.0000
  C   C604      1.0  0.34137  0.91719  0.91433  1.0000
  H   H1027     1.0  0.10311  0.92790  0.73411  1.0000
  C   C605      1.0  0.34926  0.87945  0.79899  1.0000
  C   C606      1.0  0.35198  0.88998  0.76882  1.0000
  C   C607      1.0  0.36736  0.88562  0.74610  1.0000
  C   C608      1.0  0.37984  0.87039  0.75310  1.0000
  C   C609      1.0  0.37696  0.85973  0.78323  1.0000
  C   C610      1.0  0.36182  0.86431  0.80601  1.0000
  H   H1028     1.0  0.34253  0.90176  0.76308  1.0000
  H   H1029     1.0  0.36962  0.89417  0.72296  1.0000
  H   H1030     1.0  0.38681  0.84837  0.78915  1.0000
  H   H1031     1.0  0.35999  0.85620  0.82932  1.0000
  C   C611      1.0  0.18463  0.84193  0.80285  1.0000
  C   C612      1.0  0.15801  0.82021  0.80433  1.0000
  C   C613      1.0  0.14337  0.80833  0.77676  1.0000
  C   C614      1.0  0.15529  0.81815  0.74752  1.0000
  C   C615      1.0  0.18184  0.83991  0.74609  1.0000
  C   C616      1.0  0.19649  0.85175  0.77363  1.0000
  H   H1032     1.0  0.14870  0.81257  0.82688  1.0000
  H   H1033     1.0  0.12289  0.79164  0.77812  1.0000
  H   H1034     1.0  0.19119  0.84763  0.72356  1.0000
  H   H1035     1.0  0.21693  0.86850  0.77220  1.0000
  C   C617      1.0  0.25554  0.74959  0.74573  1.0000
  S   S186      1.0  0.32029  0.94816  0.84455  1.0000
  H   H1036     1.0  0.06738  0.76123  0.56311  1.0000
  H   H1037     1.0  0.38677  0.91650  0.91150  1.0000
  H   H1038     1.0  0.43227  0.85379  0.64572  1.0000
  H   H1039     1.0  0.07507  0.76776  0.50688  1.0000
  H   H1040     1.0  0.04478  0.81188  0.59973  1.0000
  C   C618      1.0  0.14874  0.99431  0.91595  1.0000
  H   H1041     1.0  0.01967  0.88622  0.72397  1.0000
  H   H1042     1.0  0.06790  0.77476  0.61552  1.0000
  H   H1043     1.0  0.42424  0.96785  0.93118  1.0000
  C   C619      1.0  0.42984  0.87149  0.64041  1.0000
  H   H1044     1.0  0.46217  0.76430  0.62107  1.0000
  H   H1045     1.0  0.16371  0.85021  0.88888  1.0000
  H   H1046     1.0  0.40352  0.98216  0.96960  1.0000
  H   H1047     1.0  0.18267  0.91717  0.97792  1.0000
  H   H1048     1.0  0.20483  0.95246  0.48557  1.0000
  H   H1049     1.0  0.00150  0.83786  0.50607  1.0000
  H   H1050     1.0  0.06346  0.84411  0.69253  1.0000
  H   H1051     1.0  0.02809  0.78449  0.76554  1.0000
  H   H1052     1.0  0.01586  0.82036  0.76802  1.0000
  C   C620      1.0  0.02735  0.89368  0.69987  1.0000
  H   H1053     1.0  0.28731  0.81018  0.74554  1.0000
  H   H1054     1.0  0.49303  0.90560  0.69788  1.0000
  C   C621      1.0  0.37906  0.96178  0.90293  1.0000
  H   H1055     1.0  0.02181  0.84576  0.71160  1.0000
  C   C622      1.0  0.33587  0.78716  0.79627  1.0000
  C   C623      1.0  0.47742  0.90699  0.68377  1.0000
  H   H1056     1.0  0.33447  0.98873  0.89660  1.0000
  C   C624      1.0  0.14427  0.89281  0.95540  1.0000
  C   C625      1.0  0.33288  0.78954  0.76077  1.0000
  N   N43       1.0  0.04651  0.88421  0.68932  1.0000
  H   H1057     1.0  0.01513  0.88563  0.54641  1.0000
  C   C626      1.0  0.06813  0.89282  0.71408  1.0000
  C   C627      1.0  0.03059  0.85385  0.68818  1.0000
  C   C628      1.0  0.05760  0.89605  0.65748  1.0000
  H   H1058     1.0  0.47290  0.76473  0.81281  1.0000
  H   H1059     1.0  0.10175  0.91949  0.65127  1.0000
  H   H1060     1.0  0.08271  0.88600  0.70877  1.0000
  C   C629      1.0  0.08490  0.89854  0.64785  1.0000
  H   H1061     1.0  0.49186  0.84065  0.65802  1.0000
  H   H1062     1.0  0.33445  0.88342  0.94557  1.0000
  H   H1063     1.0  0.44772  0.92180  0.60124  1.0000
  H   H1064     1.0  0.13790  0.87383  0.96836  1.0000
  H   H1065     1.0  0.47009  0.78225  0.58618  1.0000
  H   H1066     1.0  0.01313  0.84661  0.67204  1.0000
  H   H1067     1.0  0.04266  0.88433  0.63891  1.0000
  H   H1068     1.0  0.06069  0.91683  0.65591  1.0000
  C   C630      1.0  0.38638  0.95468  0.87089  1.0000
  C   C631      1.0  0.00431  0.87253  0.56585  1.0000
  N   N44       1.0  0.30616  0.78564  0.74936  1.0000
  H   H1069     1.0  0.09179  0.93539  0.69843  1.0000
  C   C632      1.0  0.32394  0.89407  0.93725  1.0000
  C   C633      1.0  0.30753  0.78719  0.71402  1.0000
  H   H1070     1.0  0.32700  0.81342  0.67408  1.0000
  H   H1071     1.0  0.21408  0.76239  0.79057  1.0000
  H   H1072     1.0  0.05159  0.84333  0.65260  1.0000
  H   H1073     1.0  0.08452  0.89485  0.62225  1.0000
  S   S187      1.0  0.13770  0.85864  0.48506  1.0000
  C   C634      1.0  0.15747  0.86482  0.89656  1.0000
  H   H1074     1.0  0.19282  0.78035  0.73643  1.0000
  N   N45       1.0  0.08784  0.80315  0.57787  1.0000
  C   C635      1.0  0.32967  0.81401  0.69988  1.0000
  C   C636      1.0  0.09121  0.82933  0.56558  1.0000
  C   C637      1.0  0.10269  0.85305  0.58895  1.0000
  H   H1075     1.0  0.19915  0.79859  0.78559  1.0000
  H   H1076     1.0  0.41582  0.91165  0.64433  1.0000
  C   C638      1.0  0.07174  0.79489  0.60784  1.0000
  Fe  Fe96      1.0  0.09821  0.76420  0.71212  1.0000
  H   H1077     1.0  0.20230  0.85904  0.91923  1.0000
  H   H1078     1.0  0.10502  0.87121  0.57673  1.0000
  H   H1079     1.0  0.12295  0.85819  0.59774  1.0000
  H   H1080     1.0  0.20660  0.97406  0.80114  1.0000
  H   H1081     1.0  0.34970  0.80976  0.75425  1.0000
  C   C639      1.0  0.24622  0.97862  0.79594  1.0000
  C   C640      1.0  0.11625  0.78121  0.59345  1.0000
  H   H1082     1.0  0.07167  0.82653  0.55670  1.0000
  H   H1083     1.0  0.33535  0.80362  0.80929  1.0000
  C   C641      1.0  0.47773  0.74996  0.54797  1.0000
  H   H1084     1.0  0.42878  0.93985  0.93443  1.0000
  S   S188      1.0  0.12597  0.95457  0.96049  1.0000
  H   H1085     1.0  0.16132  0.75771  0.71736  1.0000
  H   H1086     1.0  0.10555  0.77246  0.61579  1.0000
  C   C642      1.0  0.38622  0.92799  0.93228  1.0000
  H   H1087     1.0  0.38650  0.84908  0.63154  1.0000
  H   H1088     1.0  0.35610  0.78957  0.80087  1.0000
  H   H1089     1.0  0.39754  0.97998  0.91119  1.0000
  H   H1090     1.0  0.33745  0.77487  0.74917  1.0000
  C   C643      1.0  0.45529  0.92043  0.62483  1.0000
  H   H1091     1.0  0.00891  0.83052  0.61829  1.0000
  H   H1092     1.0  0.25079  0.95964  0.92356  1.0000
  C   C644      1.0  0.22774  0.98806  0.79668  1.0000
  H   H1093     1.0  0.41713  0.95013  0.96812  1.0000
  H   H1094     1.0  0.17621  0.95794  0.48249  1.0000
  N   N46       1.0  0.19058  0.89903  0.93783  1.0000
  H   H1095     1.0  0.13763  0.78661  0.59715  1.0000
  H   H1096     1.0  0.14671  0.86702  0.87611  1.0000
  H   H1097     1.0  0.13943  0.97803  0.89915  1.0000
  C   C645      1.0  0.14571  0.98844  0.94812  1.0000
  H   H1098     1.0  0.05341  0.78006  0.54761  1.0000
  H   H1099     1.0  0.13484  0.88889  0.93190  1.0000
  H   H1100     1.0  0.09091  0.80348  0.50962  1.0000
  H   H1101     1.0  0.22491  0.80475  0.81325  1.0000
  C   C646      1.0  0.47775  0.83163  0.61039  1.0000
  H   H1102     1.0  0.19945  0.89302  0.89020  1.0000
  H   H1103     1.0  0.25781  0.99305  0.88025  1.0000
  H   H1104     1.0  0.47611  0.93815  0.62608  1.0000
  H   H1105     1.0  0.08886  0.84923  0.60891  1.0000
  H   H1106     1.0  0.02973  0.77632  0.59060  1.0000
  H   H1107     1.0  0.07325  0.93040  0.73450  1.0000
  H   H1108     1.0  0.23925  0.95750  0.79980  1.0000
  H   H1109     1.0  0.12922  0.81633  0.56403  1.0000
  N   N47       1.0  0.36791  0.93950  0.92697  1.0000
  H   H1110     1.0  0.16547  0.85868  0.95713  1.0000
  S   S189      1.0  0.47044  0.80214  0.77138  1.0000
  H   H1111     1.0  0.34458  0.90746  0.89351  1.0000
  C   C647      1.0  0.20356  0.86221  0.94492  1.0000
  S   S190      1.0  0.06262  0.76141  0.68616  1.0000
  C   C648      1.0  0.01063  0.78214  0.75289  1.0000
  C   C649      1.0  0.22027  0.91993  0.93940  1.0000
  C   C650      1.0  0.07298  0.78148  0.55369  1.0000
  H   H1112     1.0  0.08987  0.88429  0.65926  1.0000
  C   C651      1.0  0.19767  0.76183  0.80517  1.0000
  H   H1113     1.0  0.20099  0.75663  0.82931  1.0000
  H   H1114     1.0  0.10507  0.83648  0.54505  1.0000
  H   H1115     1.0  0.29077  0.78926  0.80998  1.0000
  C   C652      1.0  0.47859  0.89835  0.64994  1.0000
  H   H1116     1.0  0.47716  0.76791  0.53888  1.0000
  C   C653      1.0  0.00090  0.84173  0.60656  1.0000
  C   C654      1.0  0.11546  0.80690  0.58439  1.0000
  H   H1117     1.0  0.17154  0.92614  0.49449  1.0000
  H   H1118     1.0  0.99519  0.81048  0.54698  1.0000
  H   H1119     1.0  0.22764  0.92338  0.96411  1.0000
  C   C655      1.0  0.00240  0.88553  0.67890  1.0000
  H   H1120     1.0  0.00769  0.89041  0.65387  1.0000
  H   H1121     1.0  0.34247  0.94866  0.95618  1.0000
  H   H1122     1.0  0.17910  0.90832  0.89316  1.0000
  H   H1123     1.0  0.12532  0.82121  0.60410  1.0000
  H   H1124     1.0  0.32871  0.83171  0.70868  1.0000
  C   C656      1.0  0.28880  0.80370  0.79472  1.0000
  H   H1125     1.0  0.23263  0.91283  0.92680  1.0000
  H   H1126     1.0  0.19151  0.79333  0.82687  1.0000
  C   C657      1.0  0.00355  0.80233  0.75446  1.0000
  C   C658      1.0  0.31653  0.97711  0.94236  1.0000
  H   H1127     1.0  0.42739  0.76132  0.57039  1.0000
  H   H1128     1.0  0.05897  0.88296  0.73687  1.0000
  N   N48       1.0  0.45604  0.89454  0.62833  1.0000
  C   C659      1.0  0.48929  0.90509  0.58204  1.0000
  H   H1129     1.0  0.32102  0.76716  0.80575  1.0000
  C   C660      1.0  0.20326  0.79109  0.80753  1.0000
  S   S191      1.0  0.29718  0.98507  0.78824  1.0000
  H   H1130     1.0  0.45783  0.89393  0.69546  1.0000
  H   H1131     1.0  0.35011  0.81701  0.70393  1.0000
  C   C661      1.0  0.48265  0.76438  0.79123  1.0000
  H   H1132     1.0  0.03448  0.78743  0.63019  1.0000
  H   H1133     1.0  0.21882  0.99325  0.87055  1.0000
  H   H1134     1.0  0.48896  0.89972  0.55697  1.0000
  C   C662      1.0  0.31747  0.98567  0.97334  1.0000
  H   H1135     1.0  0.26721  0.79809  0.79318  1.0000
  H   H1136     1.0  0.29896  0.82338  0.80719  1.0000
  H   H1137     1.0  0.40416  0.87823  0.60691  1.0000
  C   C663      1.0  0.04369  0.79270  0.60648  1.0000
  H   H1138     1.0  0.44138  0.94623  0.64519  1.0000
  H   H1139     1.0  0.08335  0.80877  0.62736  1.0000
  C   C664      1.0  0.30121  0.80755  0.76158  1.0000
  H   H1140     1.0  0.30548  0.87893  0.92475  1.0000
  H   H1141     1.0  0.38179  0.99339  0.95264  1.0000
  C   C665      1.0  0.17515  0.91084  0.95353  1.0000
  C   C666      1.0  0.04575  0.83932  0.67763  1.0000
  H   H1142     1.0  0.32846  0.92546  0.90612  1.0000
  H   H1143     1.0  0.03183  0.81723  0.67976  1.0000
  H   H1144     1.0  0.42383  0.87646  0.66297  1.0000
  H   H1145     1.0  0.40631  0.84823  0.59966  1.0000
  C   C667      1.0  0.18683  0.87498  0.95634  1.0000
  H   H1146     1.0  0.13605  0.90386  0.96853  1.0000
  H   H1147     1.0  0.48253  0.92836  0.68472  1.0000
  C   C668      1.0  0.43770  0.92542  0.64842  1.0000
  H   H1148     1.0  0.14250  0.85589  0.91560  1.0000
  H   H1149     1.0  0.10741  0.78593  0.52508  1.0000
  S   S192      1.0  0.05279  0.89443  0.48306  1.0000
  H   H1150     1.0  0.17829  0.92926  0.94117  1.0000
  C   C669      1.0  0.17154  0.76438  0.74044  1.0000
  H   H1151     1.0  0.37794  0.91245  0.95101  1.0000
  H   H1152     1.0  0.00726  0.79828  0.49444  1.0000
  H   H1153     1.0  0.28824  0.78415  0.70399  1.0000
  H   H1154     1.0  0.36849  0.93870  0.85850  1.0000
  H   H1155     1.0  0.40209  0.94881  0.87297  1.0000
  C   C670      1.0  0.36220  0.94925  0.95742  1.0000
  H   H1156     1.0  0.36435  0.96882  0.89865  1.0000
  C   C671      1.0  0.47466  0.76842  0.59953  1.0000
  H   H1157     1.0  0.22511  0.87469  0.95182  1.0000
  C   C672      1.0  0.22842  0.94775  0.92530  1.0000
  H   H1158     1.0  0.31691  0.90110  0.95747  1.0000
  H   H1159     1.0  0.45876  0.86583  0.59763  1.0000
  H   H1160     1.0  0.47962  0.87945  0.65112  1.0000
  H   H1161     1.0  0.31048  0.77078  0.70414  1.0000
  S   S193      1.0  0.06315  0.84296  0.49315  1.0000
  C   C673      1.0  0.48291  0.77976  0.76571  1.0000
  H   H1162     1.0  0.28224  0.75411  0.78338  1.0000
  C   C674      1.0  0.48539  0.83553  0.57878  1.0000
  H   H1163     1.0  0.39477  0.97278  0.85560  1.0000
  H   H1164     1.0  0.29739  0.99408  0.87319  1.0000
  C   C675      1.0  0.38256  0.97820  0.96806  1.0000
  H   H1165     1.0  0.36008  0.93554  0.97705  1.0000
  H   H1166     1.0  0.43000  0.74547  0.53470  1.0000
  C   C676      1.0  0.14849  0.74534  0.80654  1.0000
  H   H1167     1.0  0.19219  0.88060  0.98141  1.0000
  Fe  Fe97      1.0  0.87457  0.15726  0.02602  1.0000
  S   S194      1.0  0.88819  0.14374  0.06808  1.0000
  S   S195      1.0  0.86048  0.18780  0.02520  1.0000
  H   H1168     1.0  0.97259  0.13863  0.08139  1.0000
  S   S196      1.0  0.90168  0.10722  0.01914  1.0000
  H   H1169     1.0  0.52598  0.15198  0.23171  1.0000
  Fe  Fe98      1.0  0.86528  0.10254  0.04553  1.0000
  S   S197      1.0  0.83552  0.06146  0.06489  1.0000
  Fe  Fe99      1.0  0.92329  0.14986  0.03780  1.0000
  S   S198      1.0  0.96773  0.18079  0.04745  1.0000
  H   H1170     1.0  0.66129  0.22685  0.39264  1.0000
  H   H1171     1.0  0.57524  0.13854  0.14155  1.0000
  N   N49       1.0  0.53302  0.11676  0.18831  1.0000
  C   C677      1.0  0.75929  0.11199  0.03504  1.0000
  Fe  Fe100     1.0  0.59889  0.20485  0.13556  1.0000
  C   C678      1.0  0.98823  0.22973  0.46314  1.0000
  S   S199      1.0  0.56425  0.17581  0.10383  1.0000
  C   C679      1.0  0.59123  0.05494  0.37345  1.0000
  C   C680      1.0  0.61814  0.07577  0.32674  1.0000
  H   H1172     1.0  0.73502  0.06914  0.03283  1.0000
  C   C681      1.0  0.84089  0.99713  0.41460  1.0000
  S   S200      1.0  0.61689  0.19840  0.25166  1.0000
  H   H1173     1.0  0.75280  0.03934  0.45829  1.0000
  S   S201      1.0  0.62317  0.18961  0.16105  1.0000
  H   H1174     1.0  0.82788  0.10195  0.39831  1.0000
  Fe  Fe101     1.0  0.70244  0.16564  0.40958  1.0000
  S   S202      1.0  0.72670  0.16879  0.36705  1.0000
  S   S203      1.0  0.70323  0.20200  0.43183  1.0000
  Fe  Fe102     1.0  0.67418  0.10351  0.41068  1.0000
  S   S204      1.0  0.69601  0.10257  0.36741  1.0000
  S   S205      1.0  0.64251  0.06666  0.43747  1.0000
  Fe  Fe103     1.0  0.73267  0.13682  0.39013  1.0000
  S   S206      1.0  0.77332  0.13889  0.38732  1.0000
  Fe  Fe104     1.0  0.68785  0.13466  0.34867  1.0000
  S   S207      1.0  0.67576  0.13513  0.29819  1.0000
  S   S208      1.0  0.71133  0.13622  0.43451  1.0000
  S   S209      1.0  0.66302  0.13295  0.39005  1.0000
  C   C682      1.0  0.82161  0.21950  0.46281  1.0000
  H   H1175     1.0  0.56948  0.10535  0.15131  1.0000
  C   C683      1.0  0.98667  0.14455  0.98614  1.0000
  H   H1176     1.0  0.81546  0.03917  0.43707  1.0000
  H   H1177     1.0  0.76474  0.13056  0.02158  1.0000
  H   H1178     1.0  0.56956  0.11710  0.20312  1.0000
  C   C684      1.0  0.77362  0.20400  0.44978  1.0000
  H   H1179     1.0  0.89254  0.99679  0.28318  1.0000
  H   H1180     1.0  0.78404  0.19395  0.39210  1.0000
  C   C685      1.0  0.56064  0.11669  0.14028  1.0000
  H   H1181     1.0  0.56159  0.02738  0.32858  1.0000
  H   H1182     1.0  0.77384  0.16788  0.11631  1.0000
  C   C686      1.0  0.65423  0.02689  0.41933  1.0000
  C   C687      1.0  0.63894  0.03399  0.43855  1.0000
  H   H1183     1.0  0.49506  0.13684  0.18900  1.0000
  H   H1184     1.0  0.70579  0.03101  0.00882  1.0000
  H   H1185     1.0  0.93088  0.23151  0.01619  1.0000
  H   H1186     1.0  0.66935  0.04179  0.40396  1.0000
  C   C688      1.0  0.79277  0.14279  0.42102  1.0000
  C   C689      1.0  0.81939  0.14799  0.41754  1.0000
  C   C690      1.0  0.83527  0.15057  0.44392  1.0000
  H   H1187     1.0  0.52510  0.12001  0.13935  1.0000
  H   H1188     1.0  0.54609  0.11040  0.23351  1.0000
  C   C691      1.0  0.78219  0.14053  0.45108  1.0000
  H   H1189     1.0  0.82773  0.14988  0.39431  1.0000
  H   H1190     1.0  0.85571  0.15444  0.44100  1.0000
  C   C692      1.0  0.79812  0.14338  0.47744  1.0000
  H   H1191     1.0  0.55732  0.15292  0.24179  1.0000
  C   C693      1.0  0.63377  0.18127  0.26442  1.0000
  C   C694      1.0  0.63220  0.17388  0.29606  1.0000
  C   C695      1.0  0.64568  0.16050  0.30696  1.0000
  C   C696      1.0  0.66028  0.15378  0.28608  1.0000
  C   C697      1.0  0.66163  0.16097  0.25443  1.0000
  C   C698      1.0  0.64875  0.17496  0.24370  1.0000
  H   H1192     1.0  0.62057  0.17859  0.31222  1.0000
  H   H1193     1.0  0.64431  0.15490  0.33135  1.0000
  H   H1194     1.0  0.67278  0.15577  0.23809  1.0000
  H   H1195     1.0  0.65023  0.18059  0.21931  1.0000
  C   C699      1.0  0.85311  0.02492  0.40829  1.0000
  C   C700      1.0  0.86559  0.04422  0.43232  1.0000
  C   C701      1.0  0.81010  0.23365  0.41414  1.0000
  C   C702      1.0  0.62339  0.04172  0.35586  1.0000
  H   H1196     1.0  0.77788  0.11244  0.04344  1.0000
  H   H1197     1.0  0.56009  0.01262  0.38386  1.0000
  C   C703      1.0  0.80064  0.20402  0.08759  1.0000
  C   C704      1.0  0.77601  0.07824  0.99523  1.0000
  C   C705      1.0  0.58537  0.02731  0.29009  1.0000
  N   N50       1.0  0.75257  0.08204  0.98652  1.0000
  H   H1198     1.0  0.87504  0.06550  0.42705  1.0000
  C   C706      1.0  0.51814  0.17377  0.12882  1.0000
  C   C707      1.0  0.52910  0.16462  0.10584  1.0000
  C   C708      1.0  0.51153  0.14490  0.08451  1.0000
  H   H1199     1.0  0.79262  0.09714  0.00530  1.0000
  H   H1200     1.0  0.58968  0.02597  0.40881  1.0000
  H   H1201     1.0  0.53139  0.18909  0.14522  1.0000
  H   H1202     1.0  0.51978  0.13773  0.06658  1.0000
  H   H1203     1.0  0.65365  0.24295  0.36177  1.0000
  C   C709      1.0  0.74571  0.03560  0.07445  1.0000
  C   C710      1.0  0.76580  0.06212  0.08152  1.0000
  C   C711      1.0  0.79332  0.07057  0.07716  1.0000
  C   C712      1.0  0.80104  0.05225  0.06676  1.0000
  C   C713      1.0  0.54748  0.10628  0.20833  1.0000
  C   C714      1.0  0.53296  0.10956  0.15431  1.0000
  H   H1204     1.0  0.76004  0.07612  0.09070  1.0000
  H   H1205     1.0  0.80861  0.09093  0.08311  1.0000
  H   H1206     1.0  0.60721  0.07194  0.38738  1.0000
  C   C715      1.0  0.86817  0.20893  0.05809  1.0000
  C   C716      1.0  0.87169  0.20063  0.08761  1.0000
  C   C717      1.0  0.87742  0.21764  0.11362  1.0000
  H   H1207     1.0  0.75022  0.22608  0.39034  1.0000
  Fe  Fe105     1.0  0.62273  0.21393  0.20169  1.0000
  S   S210      1.0  0.97704  0.19491  0.46044  1.0000
  H   H1208     1.0  0.86955  0.18093  0.09054  1.0000
  H   H1209     1.0  0.73590  0.20146  0.12604  1.0000
  C   C718      1.0  0.87061  0.23441  0.05470  1.0000
  C   C719      1.0  0.97049  0.23893  0.47114  1.0000
  H   H1210     1.0  0.55778  0.18062  0.22264  1.0000
  H   H1211     1.0  0.96902  0.21347  0.11394  1.0000
  H   H1212     1.0  0.53750  0.06903  0.18190  1.0000
  H   H1213     1.0  0.81173  0.21713  0.36885  1.0000
  S   S211      1.0  0.84913  0.11588  0.00602  1.0000
  H   H1214     1.0  0.65007  0.05326  0.31409  1.0000
  H   H1215     1.0  0.97181  0.14199  0.00470  1.0000
  H   H1216     1.0  0.98516  0.23710  0.06832  1.0000
  H   H1217     1.0  0.73445  0.21727  0.29821  1.0000
  H   H1218     1.0  0.50322  0.10647  0.22511  1.0000
  H   H1219     1.0  0.53981  0.15599  0.17396  1.0000
  C   C720      1.0  0.61934  0.01427  0.45836  1.0000
  H   H1220     1.0  0.61078  0.10292  0.29802  1.0000
  S   S212      1.0  0.91024  0.16524  0.99666  1.0000
  N   N51       1.0  0.79223  0.22233  0.10313  1.0000
  H   H1221     1.0  0.60736  0.01952  0.47328  1.0000
  H   H1222     1.0  0.76578  0.16486  0.07495  1.0000
  C   C721      1.0  0.99172  0.15725  0.08256  1.0000
  H   H1223     1.0  0.76554  0.23782  0.09137  1.0000
  H   H1224     1.0  0.93966  0.20203  0.08923  1.0000
  H   H1225     1.0  0.80190  0.20695  0.06179  1.0000
  N   N52       1.0  0.60328  0.04966  0.34466  1.0000
  H   H1226     1.0  0.57658  0.00724  0.33484  1.0000
  C   C722      1.0  0.54755  0.14703  0.19124  1.0000
  C   C723      1.0  0.93708  0.22855  0.03984  1.0000
  H   H1227     1.0  0.81877  0.20051  0.45223  1.0000
  H   H1228     1.0  0.73782  0.17649  0.10189  1.0000
  C   C724      1.0  0.78234  0.17346  0.09248  1.0000
  C   C725      1.0  0.88009  0.24319  0.11025  1.0000
  H   H1229     1.0  0.76162  0.13620  0.45406  1.0000
  C   C726      1.0  0.81383  0.22133  0.15601  1.0000
  H   H1230     1.0  0.63853  0.05762  0.37152  1.0000
  H   H1231     1.0  0.62612  0.01719  0.31806  1.0000
  H   H1232     1.0  0.84453  0.09520  0.42930  1.0000
  S   S213      1.0  0.71146  0.02613  0.08044  1.0000
  C   C727      1.0  0.63929  0.03628  0.33063  1.0000
  H   H1233     1.0  0.72168  0.08626  0.01126  1.0000
  H   H1234     1.0  0.86805  0.24098  0.03185  1.0000
  C   C728      1.0  0.85375  0.00812  0.46928  1.0000
  C   C729      1.0  0.80013  0.07664  0.43465  1.0000
  H   H1235     1.0  0.93243  0.23864  0.11667  1.0000
  H   H1236     1.0  0.78338  0.23244  0.14868  1.0000
  C   C730      1.0  0.82595  0.08610  0.41482  1.0000
  C   C731      1.0  0.75335  0.01751  0.06296  1.0000
  H   H1237     1.0  0.85308  0.03161  0.38461  1.0000
  H   H1238     1.0  0.66823  0.21022  0.34303  1.0000
  C   C732      1.0  0.60122  0.08906  0.31812  1.0000
  H   H1239     1.0  0.71568  0.24334  0.27912  1.0000
  H   H1240     1.0  0.58022  0.07419  0.31134  1.0000
  C   C733      1.0  0.78895  0.21811  0.13809  1.0000
  H   H1241     1.0  0.57640  0.06130  0.36692  1.0000
  H   H1242     1.0  0.77204  0.19791  0.14430  1.0000
  H   H1243     1.0  0.78023  0.02419  0.43012  1.0000
  S   S214      1.0  0.59569  0.22667  0.17761  1.0000
  H   H1244     1.0  0.73806  0.99701  0.05763  1.0000
  C   C734      1.0  0.86597  0.03590  0.46300  1.0000
  H   H1245     1.0  0.82163  0.20947  0.09403  1.0000
  H   H1246     1.0  0.63591  0.09088  0.34037  1.0000
  C   C735      1.0  0.76654  0.21898  0.08871  1.0000
  H   H1247     1.0  0.82127  0.20817  0.14671  1.0000
  H   H1248     1.0  0.82495  0.06961  0.40023  1.0000
  H   H1249     1.0  0.56554  0.03643  0.41406  1.0000
  H   H1250     1.0  0.65507  0.03350  0.34241  1.0000
  C   C736      1.0  0.78096  0.02572  0.05962  1.0000
  H   H1251     1.0  0.62695  0.07338  0.30466  1.0000
  C   C737      1.0  0.73946  0.19652  0.10199  1.0000
  H   H1252     1.0  0.87981  0.21095  0.13648  1.0000
  H   H1253     1.0  0.51612  0.06376  0.21556  1.0000
  H   H1254     1.0  0.98660  0.12511  0.98528  1.0000
  C   C738      1.0  0.72764  0.22656  0.31626  1.0000
  H   H1255     1.0  0.91932  0.21126  0.05087  1.0000
  C   C739      1.0  0.53690  0.07571  0.20608  1.0000
  H   H1256     1.0  0.76282  0.08467  0.46987  1.0000
  H   H1257     1.0  0.78683  0.01141  0.05183  1.0000
  S   S215      1.0  0.69718  0.22459  0.13593  1.0000
  H   H1258     1.0  0.58438  0.04404  0.27831  1.0000
  C   C740      1.0  0.54677  0.15827  0.22384  1.0000
  C   C741      1.0  0.74078  0.08612  0.01631  1.0000
  H   H1259     1.0  0.74822  0.11239  0.05624  1.0000
  H   H1260     1.0  0.56928  0.15582  0.18541  1.0000
  H   H1261     1.0  0.60077  0.10137  0.33797  1.0000
  H   H1262     1.0  0.76129  0.20522  0.43037  1.0000
  H   H1263     1.0  0.78258  0.06711  0.41829  1.0000
  H   H1264     1.0  0.76621  0.21556  0.06301  1.0000
  H   H1265     1.0  0.72266  0.19507  0.08743  1.0000
  C   C742      1.0  0.67032  0.24141  0.37300  1.0000
  N   N53       1.0  0.79632  0.05816  0.46180  1.0000
  H   H1266     1.0  0.79472  0.16356  0.08966  1.0000
  C   C743      1.0  0.50414  0.10430  0.19930  1.0000
  H   H1267     1.0  0.71861  0.21157  0.33537  1.0000
  S   S216      1.0  0.89709  0.13461  0.46409  1.0000
  Fe  Fe106     1.0  0.65996  0.22771  0.14560  1.0000
  C   C744      1.0  0.58095  0.02727  0.32581  1.0000
  H   H1268     1.0  0.95283  0.22319  0.03538  1.0000
  C   C745      1.0  0.82458  0.14812  0.47396  1.0000
  C   C746      1.0  0.57584  0.03085  0.39595  1.0000
  H   H1269     1.0  0.77295  0.18444  0.44632  1.0000
  C   C747      1.0  0.94938  0.21284  0.11103  1.0000
  H   H1270     1.0  0.80085  0.09531  0.44304  1.0000
  C   C748      1.0  0.71818  0.03105  0.98878  1.0000
  H   H1271     1.0  0.55001  0.07080  0.22056  1.0000
  H   H1272     1.0  0.77075  0.06360  0.01471  1.0000
  H   H1273     1.0  0.80819  0.21556  0.18086  1.0000
  H   H1274     1.0  0.72337  0.00963  0.39170  1.0000
  H   H1275     1.0  0.73371  0.02632  0.99706  1.0000
  N   N54       1.0  0.80239  0.22721  0.44819  1.0000
  C   C749      1.0  0.68396  0.23088  0.35024  1.0000
  H   H1276     1.0  0.60463  0.02840  0.28377  1.0000
  H   H1277     1.0  0.51890  0.08771  0.15015  1.0000
  H   H1278     1.0  0.69859  0.22815  0.36463  1.0000
  C   C750      1.0  0.72614  0.23561  0.42074  1.0000
  C   C751      1.0  0.75736  0.20148  0.47972  1.0000
  H   H1279     1.0  0.55794  0.11135  0.11501  1.0000
  C   C752      1.0  0.79598  0.03358  0.44864  1.0000
  C   C753      1.0  0.80559  0.20980  0.39319  1.0000
  C   C754      1.0  0.64966  0.00031  0.41968  1.0000
  H   H1280     1.0  0.83794  0.07304  0.47556  1.0000
  S   S217      1.0  0.63620  0.24095  0.11583  1.0000
  H   H1281     1.0  0.61338  0.02303  0.37016  1.0000
  H   H1282     1.0  0.65653  0.23367  0.30556  1.0000
  H   H1283     1.0  0.93623  0.20053  0.13063  1.0000
  H   H1284     1.0  0.68916  0.21336  0.29414  1.0000
  C   C755      1.0  0.95286  0.24131  0.11269  1.0000
  H   H1285     1.0  0.90919  0.00683  0.33341  1.0000
  H   H1286     1.0  0.64906  0.02472  0.98722  1.0000
  H   H1287     1.0  0.81801  0.20088  0.40057  1.0000
  C   C756      1.0  0.79159  0.01131  0.47203  1.0000
  H   H1288     1.0  0.94953  0.22463  0.47598  1.0000
  H   H1289     1.0  0.73788  0.18218  0.47904  1.0000
  H   H1290     1.0  0.56887  0.00830  0.27997  1.0000
  H   H1291     1.0  0.83043  0.24256  0.15629  1.0000
  C   C757      1.0  0.70680  0.23286  0.30147  1.0000
  H   H1292     1.0  0.79877  0.24264  0.40318  1.0000
  C   C758      1.0  0.76910  0.05006  0.47598  1.0000
  H   H1293     1.0  0.67924  0.24262  0.25553  1.0000
  H   H1294     1.0  0.84307  0.23426  0.45720  1.0000
  C   C759      1.0  0.74788  0.24198  0.40070  1.0000
  H   H1295     1.0  0.74581  0.24495  0.32485  1.0000
  H   H1296     1.0  0.75204  0.21766  0.48078  1.0000
  H   H1297     1.0  0.87366  0.08234  0.87102  1.0000
  H   H1298     1.0  0.83638  0.15332  0.86294  1.0000
  Fe  Fe107     1.0  0.71447  0.10106  0.80322  1.0000
  S   S218      1.0  0.73976  0.10907  0.84628  1.0000
  S   S219      1.0  0.70204  0.06147  0.77920  1.0000
  Fe  Fe108     1.0  0.70782  0.15059  0.81249  1.0000
  S   S220      1.0  0.73222  0.16110  0.85693  1.0000
  S   S221      1.0  0.69806  0.18400  0.80195  1.0000
  Fe  Fe109     1.0  0.76049  0.15210  0.83023  1.0000
  S   S222      1.0  0.80545  0.17945  0.83724  1.0000
  Fe  Fe110     1.0  0.70912  0.11709  0.86864  1.0000
  S   S223      1.0  0.69365  0.10334  0.91792  1.0000
  S   S224      1.0  0.73765  0.14373  0.78501  1.0000
  S   S225      1.0  0.68228  0.10691  0.82650  1.0000
  Fe  Fe111     1.0  0.92272  0.14676  0.55097  1.0000
  S   S226      1.0  0.93633  0.15404  0.60170  1.0000
  C   C760      1.0  0.51182  0.19775  0.61972  1.0000
  S   S227      1.0  0.55321  0.20630  0.69547  1.0000
  C   C761      1.0  0.53609  0.13709  0.67548  1.0000
  C   C762      1.0  0.98909  0.16806  0.58833  1.0000
  Fe  Fe112     1.0  0.93806  0.16477  0.48426  1.0000
  Fe  Fe113     1.0  0.59349  0.21839  0.71771  1.0000
  S   S228      1.0  0.60106  0.18342  0.72704  1.0000
  C   C763      1.0  0.61174  0.19802  0.62368  1.0000
  C   C764      1.0  0.83116  0.02135  0.90403  1.0000
  S   S229      1.0  0.94103  0.13367  0.51359  1.0000
  C   C765      1.0  0.95299  0.07851  0.53696  1.0000
  H   H1299     1.0  0.74326  0.09203  0.92018  1.0000
  C   C766      1.0  0.76169  0.10685  0.96644  1.0000
  C   C767      1.0  0.52528  0.20831  0.56560  1.0000
  C   C768      1.0  0.53203  0.21207  0.59753  1.0000
  H   H1300     1.0  0.97195  0.15194  0.89025  1.0000
  H   H1301     1.0  0.69302  0.16676  0.92546  1.0000
  Fe  Fe114     1.0  0.88102  0.14684  0.50528  1.0000
  H   H1302     1.0  0.98041  0.12549  0.88899  1.0000
  S   S230      1.0  0.88053  0.11577  0.53752  1.0000
  C   C769      1.0  0.88652  0.06913  0.60330  1.0000
  H   H1303     1.0  0.98741  0.11020  0.62552  1.0000
  C   C770      1.0  0.94966  0.12913  0.94884  1.0000
  C   C771      1.0  0.49863  0.19037  0.55589  1.0000
  C   C772      1.0  0.82498  0.19775  0.80473  1.0000
  C   C773      1.0  0.81448  0.19165  0.77439  1.0000
  C   C774      1.0  0.83037  0.20659  0.74885  1.0000
  C   C775      1.0  0.85671  0.22802  0.75351  1.0000
  H   H1304     1.0  0.98478  0.22713  0.70019  1.0000
  C   C776      1.0  0.85161  0.21871  0.80934  1.0000
  H   H1305     1.0  0.79421  0.17525  0.77048  1.0000
  H   H1306     1.0  0.82207  0.20174  0.72543  1.0000
  H   H1307     1.0  0.85995  0.22334  0.83275  1.0000
  C   C777      1.0  0.67158  0.18352  0.77967  1.0000
  C   C778      1.0  0.67063  0.20750  0.77673  1.0000
  C   C779      1.0  0.64932  0.20792  0.76056  1.0000
  C   C780      1.0  0.62870  0.18428  0.74713  1.0000
  C   C781      1.0  0.62977  0.16035  0.74988  1.0000
  C   C782      1.0  0.65108  0.15993  0.76605  1.0000
  H   H1308     1.0  0.68631  0.22582  0.78735  1.0000
  H   H1309     1.0  0.64871  0.22643  0.75870  1.0000
  H   H1310     1.0  0.61391  0.14196  0.73959  1.0000
  H   H1311     1.0  0.65153  0.14134  0.76815  1.0000
  H   H1312     1.0  0.79153  0.10454  0.87240  1.0000
  H   H1313     1.0  0.72438  0.01038  0.88329  1.0000
  C   C783      1.0  0.66722  0.05896  0.95593  1.0000
  C   C784      1.0  0.67845  0.06854  0.92620  1.0000
  C   C785      1.0  0.67864  0.05051  0.90425  1.0000
  N   N55       1.0  0.93754  0.22495  0.66932  1.0000
  H   H1314     1.0  0.75210  0.06201  0.86762  1.0000
  H   H1315     1.0  0.96406  0.11177  0.56848  1.0000
  H   H1316     1.0  0.68700  0.05758  0.88116  1.0000
  C   C786      1.0  0.72690  0.05198  0.77521  1.0000
  C   C787      1.0  0.75173  0.06936  0.76113  1.0000
  H   H1317     1.0  0.79890  0.05942  0.97969  1.0000
  C   C788      1.0  0.76514  0.03518  0.76559  1.0000
  H   H1318     1.0  0.54073  0.21887  0.54819  1.0000
  C   C789      1.0  0.72130  0.02621  0.78465  1.0000
  H   H1319     1.0  0.61097  0.11817  0.94814  1.0000
  H   H1320     1.0  0.73606  0.99809  0.78758  1.0000
  C   C790      1.0  0.92930  0.20256  0.69280  1.0000
  C   C791      1.0  0.86394  0.07629  0.92020  1.0000
  C   C792      1.0  0.84955  0.05718  0.94336  1.0000
  C   C793      1.0  0.84452  0.08558  0.80284  1.0000
  C   C794      1.0  0.90817  0.19217  0.62554  1.0000
  C   C795      1.0  0.84562  0.04048  0.88088  1.0000
  C   C796      1.0  0.86218  0.06779  0.88901  1.0000
  H   H1321     1.0  0.56372  0.12391  0.66296  1.0000
  H   H1322     1.0  0.84433  0.03417  0.85677  1.0000
  H   H1323     1.0  0.89290  0.19864  0.62666  1.0000
  H   H1324     1.0  0.84292  0.15860  0.80735  1.0000
  H   H1325     1.0  0.58701  0.15547  0.58231  1.0000
  C   C797      1.0  0.95757  0.08996  0.57042  1.0000
  H   H1326     1.0  0.60134  0.16741  0.65908  1.0000
  C   C798      1.0  0.96950  0.18704  0.93034  1.0000
  C   C799      1.0  0.90695  0.02614  0.57454  1.0000
  H   H1327     1.0  0.73400  0.01351  0.92347  1.0000
  H   H1328     1.0  0.77375  0.12377  0.91971  1.0000
  H   H1329     1.0  0.83288  0.06111  0.52636  1.0000
  C   C800      1.0  0.57749  0.14086  0.60188  1.0000
  H   H1330     1.0  0.56243  0.17739  0.59280  1.0000
  H   H1331     1.0  0.85474  0.13603  0.79532  1.0000
  C   C801      1.0  0.97978  0.17759  0.95816  1.0000
  H   H1332     1.0  0.70422  0.01438  0.97318  1.0000
  H   H1333     1.0  0.84459  0.06680  0.79641  1.0000
  H   H1334     1.0  0.98260  0.16243  0.56438  1.0000
  H   H1335     1.0  0.89093  0.08363  0.62274  1.0000
  H   H1336     1.0  0.86460  0.09934  0.81310  1.0000
  H   H1337     1.0  0.62315  0.09164  0.86354  1.0000
  H   H1338     1.0  0.82262  0.06552  0.84455  1.0000
  H   H1339     1.0  0.54590  0.17446  0.62863  1.0000
  S   S231      1.0  0.56603  0.23374  0.60885  1.0000
  N   N56       1.0  0.97848  0.15073  0.95493  1.0000
  N   N57       1.0  0.56738  0.15217  0.62696  1.0000
  C   C802      1.0  0.76368  0.10355  0.93090  1.0000
  H   H1340     1.0  0.76249  0.07232  0.82822  1.0000
  H   H1341     1.0  0.83035  0.13932  0.77287  1.0000
  H   H1342     1.0  0.79005  0.23023  0.77181  1.0000
  H   H1343     1.0  0.63233  0.08235  0.89929  1.0000
  C   C803      1.0  0.62563  0.13988  0.94425  1.0000
  H   H1344     1.0  0.91676  0.04037  0.62161  1.0000
  H   H1345     1.0  0.76835  0.04719  0.84657  1.0000
  H   H1346     1.0  0.97000  0.20601  0.93710  1.0000
  H   H1347     1.0  0.94498  0.23032  0.61929  1.0000
  Fe  Fe115     1.0  0.89854  0.10477  0.49734  1.0000
  C   C804      1.0  0.94300  0.09116  0.62376  1.0000
  H   H1348     1.0  0.84820  0.10701  0.87541  1.0000
  C   C805      1.0  0.55075  0.16275  0.61165  1.0000
  H   H1349     1.0  0.90298  0.06882  0.55840  1.0000
  H   H1350     1.0  0.62756  0.21342  0.63912  1.0000
  H   H1351     1.0  0.83029  0.13364  0.89828  1.0000
  N   N58       1.0  0.93419  0.07625  0.59292  1.0000
  H   H1352     1.0  0.90077  0.17302  0.63860  1.0000
  H   H1353     1.0  0.77036  0.00632  0.93720  1.0000
  H   H1354     1.0  0.51662  0.20050  0.64438  1.0000
  H   H1355     1.0  0.86908  0.06781  0.59023  1.0000
  H   H1356     1.0  0.92711  0.08096  0.64197  1.0000
  H   H1357     1.0  0.94576  0.11170  0.62149  1.0000
  C   C806      1.0  0.97062  0.16621  0.61102  1.0000
  H   H1358     1.0  0.96823  0.20758  0.56912  1.0000
  H   H1359     1.0  0.86396  0.15606  0.88575  1.0000
  H   H1360     1.0  0.70198  0.01257  0.79521  1.0000
  H   H1361     1.0  0.80265  0.06449  0.81227  1.0000
  C   C807      1.0  0.94410  0.09988  0.94924  1.0000
  H   H1362     1.0  0.50952  0.12706  0.61363  1.0000
  S   S232      1.0  0.78979  0.02572  0.75902  1.0000
  H   H1363     1.0  0.80872  0.01839  0.48866  1.0000
  H   H1364     1.0  0.52376  0.11894  0.69006  1.0000
  S   S233      1.0  0.88399  0.11089  0.92948  1.0000
  H   H1365     1.0  0.92563  0.19299  0.74247  1.0000
  H   H1366     1.0  0.88601  0.01566  0.58392  1.0000
  C   C808      1.0  0.86737  0.23402  0.78382  1.0000
  H   H1367     1.0  0.82529  0.09455  0.48581  1.0000
  H   H1368     1.0  0.98277  0.23753  0.79745  1.0000
  H   H1369     1.0  0.84137  0.09364  0.78063  1.0000
  H   H1370     1.0  0.61641  0.14883  0.62280  1.0000
  C   C809      1.0  0.59767  0.13201  0.61273  1.0000
  H   H1371     1.0  0.67691  0.18590  0.93805  1.0000
  H   H1372     1.0  0.60828  0.09376  0.90024  1.0000
  H   H1373     1.0  0.60386  0.12453  0.59212  1.0000
  H   H1374     1.0  0.85401  0.00144  0.49290  1.0000
  H   H1375     1.0  0.78177  0.12342  0.97435  1.0000
  S   S234      1.0  0.92159  0.17906  0.52269  1.0000
  C   C810      1.0  0.55077  0.13008  0.65003  1.0000
  H   H1376     1.0  0.94932  0.20446  0.63563  1.0000
  H   H1377     1.0  0.96957  0.07536  0.63887  1.0000
  H   H1378     1.0  0.53538  0.11157  0.63778  1.0000
  H   H1379     1.0  0.58843  0.11517  0.62974  1.0000
  C   C811      1.0  0.59053  0.17498  0.64423  1.0000
  H   H1380     1.0  0.94517  0.04542  0.59932  1.0000
  C   C812      1.0  0.91091  0.07917  0.58101  1.0000
  C   C813      1.0  0.96932  0.09456  0.63813  1.0000
  C   C814      1.0  0.98764  0.14674  0.89583  1.0000
  C   C815      1.0  0.83348  0.02981  0.93532  1.0000
  H   H1381     1.0  0.86218  0.12888  0.84341  1.0000
  H   H1382     1.0  0.66693  0.07274  0.97304  1.0000
  H   H1383     1.0  0.80340  0.19338  0.50377  1.0000
  H   H1384     1.0  0.61434  0.16965  0.85878  1.0000
  H   H1385     1.0  0.89704  0.21933  0.67312  1.0000
  H   H1386     1.0  0.81395  0.07728  0.53456  1.0000
  C   C816      1.0  0.62700  0.09685  0.88877  1.0000
  C   C817      1.0  0.77059  0.06082  0.75594  1.0000
  H   H1387     1.0  0.75899  0.21985  0.79166  1.0000
  C   C818      1.0  0.66810  0.02322  0.91218  1.0000
  H   H1388     1.0  0.75603  0.08908  0.75335  1.0000
  H   H1389     1.0  0.94821  0.17258  0.92412  1.0000
  H   H1390     1.0  0.64580  0.14456  0.95261  1.0000
  H   H1391     1.0  0.88022  0.04891  0.61299  1.0000
  H   H1392     1.0  0.76366  0.03527  0.49512  1.0000
  C   C819      1.0  0.97939  0.17362  0.64201  1.0000
  C   C820      1.0  0.65774  0.01380  0.94227  1.0000
  H   H1393     1.0  0.94207  0.13182  0.92610  1.0000
  H   H1394     1.0  0.95898  0.09737  0.93516  1.0000
  N   N59       1.0  0.64482  0.14814  0.88733  1.0000
  C   C821      1.0  0.63373  0.14453  0.85445  1.0000
  C   C822      1.0  0.65085  0.12574  0.89330  1.0000
  C   C823      1.0  0.67089  0.17479  0.88818  1.0000
  C   C824      1.0  0.62432  0.14785  0.90992  1.0000
  C   C825      1.0  0.62773  0.16651  0.84270  1.0000
  H   H1395     1.0  0.96514  0.17184  0.65982  1.0000
  C   C826      1.0  0.68740  0.18199  0.91868  1.0000
  C   C827      1.0  0.98779  0.23940  0.67889  1.0000
  H   H1396     1.0  0.64779  0.14324  0.83729  1.0000
  H   H1397     1.0  0.61429  0.12524  0.85216  1.0000
  H   H1398     1.0  0.65861  0.12652  0.91722  1.0000
  H   H1399     1.0  0.66754  0.12809  0.87784  1.0000
  H   H1400     1.0  0.68457  0.17570  0.86898  1.0000
  H   H1401     1.0  0.66717  0.19180  0.88393  1.0000
  H   H1402     1.0  0.62554  0.16787  0.91032  1.0000
  H   H1403     1.0  0.60351  0.13318  0.90173  1.0000
  H   H1404     1.0  0.66818  0.00941  0.89498  1.0000
  H   H1405     1.0  0.78950  0.07414  0.74436  1.0000
  C   C828      1.0  0.74055  0.01797  0.78031  1.0000
  H   H1406     1.0  0.80079  0.08024  0.88354  1.0000
  H   H1407     1.0  0.79736  0.04243  0.52277  1.0000
  H   H1408     1.0  0.70673  0.20109  0.91495  1.0000
  H   H1409     1.0  0.61891  0.15088  0.95994  1.0000
  H   H1410     1.0  0.92373  0.08640  0.93916  1.0000
  Fe  Fe116     1.0  0.55279  0.23845  0.72494  1.0000
  C   C829      1.0  0.83687  0.13854  0.79717  1.0000
  H   H1411     1.0  0.61713  0.16013  0.81981  1.0000
  H   H1412     1.0  0.77459  0.05550  0.95204  1.0000
  H   H1413     1.0  0.60283  0.20822  0.61023  1.0000
  H   H1414     1.0  0.62217  0.19113  0.60746  1.0000
  H   H1415     1.0  0.82296  0.01514  0.95353  1.0000
  H   H1416     1.0  0.91785  0.10069  0.57579  1.0000
  H   H1417     1.0  0.81568  0.22869  0.51189  1.0000
  C   C830      1.0  0.65722  0.03177  0.96408  1.0000
  H   H1418     1.0  0.94135  0.19232  0.68974  1.0000
  Fe  Fe117     1.0  0.57592  0.23914  0.66083  1.0000
  H   H1419     1.0  0.56038  0.12274  0.59095  1.0000
  H   H1420     1.0  0.58293  0.18457  0.66087  1.0000
  H   H1421     1.0  0.64654  0.18588  0.83839  1.0000
  H   H1422     1.0  0.80213  0.12614  0.82609  1.0000
  H   H1423     1.0  0.79813  0.10186  0.79780  1.0000
  C   C831      1.0  0.76582  0.07337  0.48905  1.0000
  H   H1424     1.0  0.93550  0.07801  0.52515  1.0000
  H   H1425     1.0  0.97548  0.08910  0.57906  1.0000
  S   S235      1.0  0.84335  0.15048  0.50771  1.0000
  H   H1426     1.0  0.83891  0.21736  0.50726  1.0000
  H   H1427     1.0  0.77212  0.00284  0.48468  1.0000
  H   H1428     1.0  0.90694  0.03379  0.55081  1.0000
  N   N60       1.0  0.81873  0.10103  0.83994  1.0000
  C   C832      1.0  0.79558  0.08880  0.86299  1.0000
  C   C833      1.0  0.84395  0.11910  0.85837  1.0000
  C   C834      1.0  0.82110  0.07817  0.82577  1.0000
  C   C835      1.0  0.81256  0.11609  0.81528  1.0000
  C   C836      1.0  0.76824  0.06632  0.85025  1.0000
  C   C837      1.0  0.84326  0.14174  0.87720  1.0000
  C   C838      1.0  0.78909  0.07008  0.96899  1.0000
  H   H1429     1.0  0.55060  0.15285  0.69156  1.0000
  H   H1430     1.0  0.97075  0.23903  0.56139  1.0000
  H   H1431     1.0  0.51408  0.15176  0.58540  1.0000
  H   H1432     1.0  0.77556  0.09378  0.92520  1.0000
  H   H1433     1.0  0.90795  0.18654  0.68896  1.0000
  S   S236      1.0  0.51175  0.22930  0.74222  1.0000
  H   H1434     1.0  0.91241  0.01017  0.57163  1.0000
  H   H1435     1.0  0.78973  0.14138  0.50065  1.0000
  C   C839      1.0  0.81505  0.06251  0.51863  1.0000
  C   C840      1.0  0.92667  0.04727  0.59832  1.0000
  H   H1436     1.0  0.98297  0.19203  0.90975  1.0000
  H   H1437     1.0  0.85097  0.06340  0.96755  1.0000
  H   H1438     1.0  0.52208  0.14331  0.66573  1.0000
  H   H1439     1.0  0.77100  0.00246  0.97858  1.0000
  H   H1440     1.0  0.91652  0.21774  0.73313  1.0000
  C   C841      1.0  0.93108  0.21085  0.72752  1.0000
  H   H1441     1.0  0.78741  0.22424  0.81353  1.0000
  C   C842      1.0  0.93645  0.21389  0.63700  1.0000
  C   C843      1.0  0.73037  0.05767  0.97033  1.0000
  H   H1442     1.0  0.98901  0.22850  0.65814  1.0000
  H   H1443     1.0  0.74745  0.11478  0.96885  1.0000
  H   H1444     1.0  0.95171  0.22654  0.73449  1.0000
  H   H1445     1.0  0.78317  0.08752  0.50373  1.0000
  C   C844      1.0  0.52404  0.14141  0.59635  1.0000
  H   H1446     1.0  0.73670  0.05385  0.94734  1.0000
  C   C845      1.0  0.91849  0.23587  0.67206  1.0000
  C   C846      1.0  0.98252  0.22840  0.56118  1.0000
  H   H1447     1.0  0.52738  0.13028  0.57730  1.0000
  H   H1448     1.0  0.80485  0.08806  0.95642  1.0000
  H   H1449     1.0  0.95110  0.05829  0.53662  1.0000
  H   H1450     1.0  0.71365  0.06138  0.96459  1.0000
  C   C847      1.0  0.78129  0.23265  0.79377  1.0000
  C   C848      1.0  0.72051  0.99906  0.90559  1.0000
  H   H1451     1.0  0.97119  0.10188  0.66261  1.0000
  C   C849      1.0  0.81951  0.07289  0.48442  1.0000
  C   C850      1.0  0.81930  0.21437  0.49837  1.0000
  S   S237      1.0  0.88124  0.05911  0.49440  1.0000
  H   H1452     1.0  0.74741  0.06503  0.50389  1.0000
  H   H1453     1.0  0.98783  0.22661  0.53679  1.0000
  H   H1454     1.0  0.90963  0.18758  0.60057  1.0000
  H   H1455     1.0  0.76780  0.20148  0.50145  1.0000
  H   H1456     1.0  0.97100  0.09181  0.52255  1.0000
  H   H1457     1.0  0.94363  0.09282  0.97356  1.0000
  H   H1458     1.0  0.93600  0.13052  0.96634  1.0000
  H   H1459     1.0  0.96806  0.17747  0.97909  1.0000
  Fe  Fe118     1.0  0.88603  0.12236  0.98065  1.0000
  Fe  Fe119     1.0  0.67247  0.47048  0.06214  1.0000
  S   S238      1.0  0.67865  0.45084  0.02012  1.0000
  Fe  Fe120     1.0  0.61149  0.42877  0.06610  1.0000
  S   S239      1.0  0.61351  0.40672  0.02342  1.0000
  S   S240      1.0  0.57582  0.41730  0.09948  1.0000
  Fe  Fe121     1.0  0.65172  0.41187  0.04502  1.0000
  S   S241      1.0  0.66105  0.37789  0.04269  1.0000
  C   C851      1.0  0.50290  0.30503  0.45567  1.0000
  H   H1460     1.0  0.68296  0.45360  0.44713  1.0000
  S   S242      1.0  0.64864  0.43173  0.08881  1.0000
  Fe  Fe122     1.0  0.88449  0.30176  0.14222  1.0000
  S   S243      1.0  0.88315  0.32257  0.09845  1.0000
  C   C852      1.0  0.80426  0.25207  0.46287  1.0000
  Fe  Fe123     1.0  0.88021  0.34253  0.18495  1.0000
  S   S244      1.0  0.87925  0.36673  0.14417  1.0000
  S   S245      1.0  0.87633  0.35042  0.23637  1.0000
  Fe  Fe124     1.0  0.85038  0.32646  0.12303  1.0000
  S   S246      1.0  0.81258  0.31959  0.09766  1.0000
  Fe  Fe125     1.0  0.91233  0.36069  0.12352  1.0000
  S   S247      1.0  0.94785  0.39432  0.09706  1.0000
  S   S248      1.0  0.84943  0.30257  0.16493  1.0000
  S   S249      1.0  0.91563  0.33961  0.16621  1.0000
  Fe  Fe126     1.0  0.79220  0.39408  0.33604  1.0000
  S   S250      1.0  0.81919  0.39550  0.37482  1.0000
  S   S251      1.0  0.80475  0.39966  0.28495  1.0000
  Fe  Fe127     1.0  0.74672  0.38322  0.38167  1.0000
  S   S252      1.0  0.77019  0.38279  0.42372  1.0000
  S   S253      1.0  0.70491  0.37825  0.38045  1.0000
  Fe  Fe128     1.0  0.80472  0.41982  0.40146  1.0000
  S   S254      1.0  0.83349  0.45598  0.43145  1.0000
  Fe  Fe129     1.0  0.78232  0.35850  0.39289  1.0000
  S   S255      1.0  0.78982  0.32364  0.40156  1.0000
  S   S256      1.0  0.78051  0.42138  0.36109  1.0000
  S   S257      1.0  0.75608  0.35612  0.35258  1.0000
  S   S258      1.0  0.64266  0.30502  0.16269  1.0000
  H   H1461     1.0  0.51702  0.32606  0.16325  1.0000
  H   H1462     1.0  0.77932  0.44731  0.07726  1.0000
  H   H1463     1.0  0.96588  0.31577  0.11888  1.0000
  H   H1464     1.0  0.84808  0.27455  0.47307  1.0000
  C   C853      1.0  0.84193  0.47583  0.31598  1.0000
  S   S259      1.0  0.61011  0.46570  0.42746  1.0000
  H   H1465     1.0  0.73867  0.27529  0.22142  1.0000
  Fe  Fe130     1.0  0.59241  0.43181  0.46397  1.0000
  S   S260      1.0  0.58813  0.39248  0.44675  1.0000
  H   H1466     1.0  0.60543  0.32867  0.47953  1.0000
  C   C854      1.0  0.96880  0.35237  0.42170  1.0000
  H   H1467     1.0  0.89399  0.42519  0.32351  1.0000
  H   H1468     1.0  0.73179  0.49362  0.12525  1.0000
  H   H1469     1.0  0.58244  0.28914  0.44628  1.0000
  H   H1470     1.0  0.73609  0.43096  0.42081  1.0000
  C   C855      1.0  0.52356  0.30186  0.44257  1.0000
  C   C856      1.0  0.97694  0.28851  0.09654  1.0000
  H   H1471     1.0  0.53512  0.27349  0.42581  1.0000
  H   H1472     1.0  0.54256  0.31942  0.43631  1.0000
  H   H1473     1.0  0.83187  0.24900  0.41163  1.0000
  C   C857      1.0  0.97956  0.26672  0.47129  1.0000
  H   H1474     1.0  0.66099  0.38819  0.10952  1.0000
  H   H1475     1.0  0.81849  0.48867  0.03085  1.0000
  C   C858      1.0  0.68687  0.37794  0.41414  1.0000
  C   C859      1.0  0.69623  0.37790  0.44441  1.0000
  H   H1476     1.0  0.88338  0.42289  0.28398  1.0000
  Fe  Fe131     1.0  0.64042  0.44796  0.00232  1.0000
  C   C860      1.0  0.64827  0.37939  0.43633  1.0000
  C   C861      1.0  0.66270  0.37833  0.41026  1.0000
  H   H1477     1.0  0.71473  0.37738  0.44765  1.0000
  H   H1478     1.0  0.71774  0.44433  0.38265  1.0000
  H   H1479     1.0  0.62991  0.38006  0.43290  1.0000
  H   H1480     1.0  0.65528  0.37826  0.38692  1.0000
  C   C862      1.0  0.76386  0.29001  0.40715  1.0000
  C   C863      1.0  0.74129  0.28361  0.42571  1.0000
  H   H1481     1.0  0.95447  0.27173  0.04239  1.0000
  C   C864      1.0  0.51930  0.27587  0.43660  1.0000
  H   H1482     1.0  0.78070  0.38894  0.18701  1.0000
  C   C865      1.0  0.76701  0.26909  0.39457  1.0000
  H   H1483     1.0  0.73878  0.29958  0.43570  1.0000
  C   C866      1.0  0.87691  0.25165  0.08063  1.0000
  C   C867      1.0  0.78023  0.29484  0.11050  1.0000
  C   C868      1.0  0.77668  0.28006  0.13790  1.0000
  H   H1484     1.0  0.66658  0.26502  0.26144  1.0000
  H   H1485     1.0  0.78977  0.25700  0.45124  1.0000
  C   C869      1.0  0.73154  0.26941  0.10164  1.0000
  C   C870      1.0  0.75751  0.28978  0.09274  1.0000
  H   H1486     1.0  0.79387  0.28424  0.15226  1.0000
  H   H1487     1.0  0.98582  0.30315  0.07691  1.0000
  H   H1488     1.0  0.76006  0.30129  0.07166  1.0000
  C   C871      1.0  0.85553  0.36335  0.24902  1.0000
  C   C872      1.0  0.84674  0.35955  0.28028  1.0000
  C   C873      1.0  0.83076  0.37015  0.29140  1.0000
  C   C874      1.0  0.82383  0.38508  0.27143  1.0000
  C   C875      1.0  0.83276  0.38909  0.24024  1.0000
  C   C876      1.0  0.84843  0.37814  0.22900  1.0000
  H   H1489     1.0  0.85223  0.34824  0.29595  1.0000
  H   H1490     1.0  0.82397  0.36686  0.31547  1.0000
  H   H1491     1.0  0.82773  0.40086  0.22475  1.0000
  H   H1492     1.0  0.85546  0.38154  0.20502  1.0000
  C   C877      1.0  0.54093  0.39204  0.09869  1.0000
  C   C878      1.0  0.52937  0.37384  0.07387  1.0000
  C   C879      1.0  0.72272  0.25651  0.43284  1.0000
  C   C880      1.0  0.97831  0.39403  0.09015  1.0000
  H   H1493     1.0  0.83945  0.48271  0.98662  1.0000
  C   C881      1.0  0.52463  0.38947  0.12470  1.0000
  H   H1494     1.0  0.54154  0.37552  0.05367  1.0000
  C   C882      1.0  0.78293  0.46494  0.06269  1.0000
  H   H1495     1.0  0.96912  0.36108  0.12124  1.0000
  H   H1496     1.0  0.53330  0.40344  0.14402  1.0000
  C   C883      1.0  0.65602  0.35785  0.07622  1.0000
  C   C884      1.0  0.65128  0.33148  0.07259  1.0000
  C   C885      1.0  0.64698  0.31498  0.09885  1.0000
  C   C886      1.0  0.64805  0.32498  0.12900  1.0000
  C   C887      1.0  0.65343  0.35157  0.13263  1.0000
  C   C888      1.0  0.65708  0.36784  0.10637  1.0000
  H   H1497     1.0  0.65055  0.32363  0.04934  1.0000
  H   H1498     1.0  0.64292  0.29457  0.09572  1.0000
  H   H1499     1.0  0.65450  0.35953  0.15590  1.0000
  C   C889      1.0  0.98382  0.37567  0.10525  1.0000
  N   N61       1.0  0.56885  0.33974  0.13178  1.0000
  C   C890      1.0  0.57179  0.36134  0.15443  1.0000
  C   C891      1.0  0.53947  0.32392  0.12249  1.0000
  C   C892      1.0  0.58566  0.35376  0.10328  1.0000
  C   C893      1.0  0.57865  0.32265  0.14768  1.0000
  C   C894      1.0  0.60094  0.38256  0.16371  1.0000
  H   H1500     1.0  0.78701  0.42311  0.03716  1.0000
  C   C895      1.0  0.58521  0.33575  0.07630  1.0000
  C   C896      1.0  0.56829  0.29389  0.13465  1.0000
  H   H1501     1.0  0.56216  0.37259  0.14488  1.0000
  H   H1502     1.0  0.56106  0.35230  0.17678  1.0000
  H   H1503     1.0  0.53537  0.30781  0.10544  1.0000
  H   H1504     1.0  0.53359  0.33720  0.10997  1.0000
  H   H1505     1.0  0.57951  0.36788  0.09335  1.0000
  H   H1506     1.0  0.60734  0.36635  0.10952  1.0000
  H   H1507     1.0  0.60108  0.33317  0.14757  1.0000
  H   H1508     1.0  0.57285  0.31995  0.17289  1.0000
  H   H1509     1.0  0.61317  0.37337  0.17089  1.0000
  H   H1510     1.0  0.61122  0.39722  0.14448  1.0000
  H   H1511     1.0  0.60021  0.39443  0.18389  1.0000
  C   C897      1.0  0.95582  0.29424  0.11189  1.0000
  S   S261      1.0  0.50697  0.33729  0.46187  1.0000
  S   S262      1.0  0.88757  0.26386  0.14354  1.0000
  H   H1512     1.0  0.59508  0.32407  0.08315  1.0000
  H   H1513     1.0  0.59742  0.34891  0.05663  1.0000
  H   H1514     1.0  0.56467  0.32244  0.06691  1.0000
  H   H1515     1.0  0.58510  0.28938  0.13537  1.0000
  H   H1516     1.0  0.56099  0.29049  0.11026  1.0000
  H   H1517     1.0  0.55235  0.27863  0.15009  1.0000
  C   C898      1.0  0.77244  0.44510  0.47787  1.0000
  H   H1518     1.0  0.71424  0.26500  0.08720  1.0000
  H   H1519     1.0  0.90517  0.47433  0.41241  1.0000
  H   H1520     1.0  0.75055  0.45847  0.36685  1.0000
  H   H1521     1.0  0.73029  0.43115  0.47413  1.0000
  H   H1522     1.0  0.87932  0.27146  0.07767  1.0000
  H   H1523     1.0  0.78522  0.41680  0.99597  1.0000
  H   H1524     1.0  0.73272  0.27157  0.35139  1.0000
  H   H1525     1.0  0.93936  0.29089  0.09553  1.0000
  C   C899      1.0  0.87098  0.44581  0.31348  1.0000
  H   H1526     1.0  0.87438  0.44346  0.37526  1.0000
  H   H1527     1.0  0.80598  0.33890  0.16315  1.0000
  H   H1528     1.0  0.59785  0.27223  0.46605  1.0000
  Fe  Fe132     1.0  0.54871  0.37193  0.47291  1.0000
  H   H1529     1.0  0.67394  0.26818  0.31655  1.0000
  H   H1530     1.0  0.90753  0.45810  0.35948  1.0000
  H   H1531     1.0  0.69593  0.43306  0.43250  1.0000
  H   H1532     1.0  0.75851  0.30880  0.23570  1.0000
  H   H1533     1.0  0.96429  0.25031  0.13476  1.0000
  H   H1534     1.0  0.73353  0.30792  0.29956  1.0000
  H   H1535     1.0  0.81017  0.37062  0.17347  1.0000
  H   H1536     1.0  0.96522  0.36950  0.41870  1.0000
  H   H1537     1.0  0.85301  0.42793  0.32355  1.0000
  H   H1538     1.0  0.75484  0.40132  0.01834  1.0000
  N   N62       1.0  0.75033  0.46801  0.44685  1.0000
  C   C900      1.0  0.83234  0.27770  0.46197  1.0000
  N   N63       1.0  0.88121  0.46955  0.33553  1.0000
  H   H1539     1.0  0.77543  0.43620  0.45625  1.0000
  C   C901      1.0  0.68157  0.37864  0.47056  1.0000
  N   N64       1.0  0.96657  0.25996  0.08533  1.0000
  C   C902      1.0  0.50202  0.35315  0.07539  1.0000
  C   C903      1.0  0.65778  0.37983  0.46657  1.0000
  C   C904      1.0  0.74905  0.45117  0.47474  1.0000
  H   H1540     1.0  0.79029  0.45979  0.99771  1.0000
  H   H1541     1.0  0.79603  0.34311  0.20103  1.0000
  H   H1542     1.0  0.91128  0.45388  0.29729  1.0000
  H   H1543     1.0  0.77270  0.39303  0.22631  1.0000
  H   H1544     1.0  0.99359  0.29444  0.11386  1.0000
  H   H1545     1.0  0.74244  0.47052  0.00644  1.0000
  H   H1546     1.0  0.82164  0.48668  0.38523  1.0000
  C   C905      1.0  0.81337  0.47975  0.05439  1.0000
  H   H1547     1.0  0.68506  0.26098  0.38364  1.0000
  H   H1548     1.0  0.82778  0.45573  0.30597  1.0000
  N   N65       1.0  0.76305  0.45569  0.03587  1.0000
  C   C906      1.0  0.68194  0.25998  0.26987  1.0000
  C   C907      1.0  0.77118  0.44450  0.00861  1.0000
  H   H1549     1.0  0.72075  0.42582  0.02824  1.0000
  H   H1550     1.0  0.83837  0.28548  0.43779  1.0000
  C   C908      1.0  0.67674  0.25238  0.30481  1.0000
  H   H1551     1.0  0.81064  0.26527  0.11149  1.0000
  C   C909      1.0  0.89142  0.43679  0.30434  1.0000
  C   C910      1.0  0.73915  0.45985  0.38716  1.0000
  H   H1552     1.0  0.75601  0.43833  0.98937  1.0000
  H   H1553     1.0  0.78428  0.27396  0.37987  1.0000
  C   C911      1.0  0.75884  0.47821  0.02434  1.0000
  S   S263      1.0  0.66078  0.25122  0.18779  1.0000
  H   H1554     1.0  0.86395  0.45006  0.29100  1.0000
  H   H1555     1.0  0.74142  0.48013  0.38634  1.0000
  C   C912      1.0  0.49727  0.36887  0.12615  1.0000
  H   H1556     1.0  0.70202  0.27764  0.26539  1.0000
  C   C913      1.0  0.77468  0.42007  0.01594  1.0000
  H   H1557     1.0  0.83143  0.29386  0.47537  1.0000
  H   H1558     1.0  0.96189  0.34465  0.44578  1.0000
  H   H1559     1.0  0.73745  0.41577  0.05552  1.0000
  H   H1560     1.0  0.83497  0.28246  0.06282  1.0000
  C   C914      1.0  0.72352  0.44063  0.07544  1.0000
  H   H1561     1.0  0.82191  0.46623  0.05761  1.0000
  H   H1562     1.0  0.75198  0.48624  0.04365  1.0000
  C   C915      1.0  0.72691  0.47312  0.44968  1.0000
  C   C916      1.0  0.75084  0.25923  0.14632  1.0000
  H   H1563     1.0  0.99364  0.42740  0.05793  1.0000
  H   H1564     1.0  0.72908  0.48505  0.47122  1.0000
  Fe  Fe133     1.0  0.63430  0.26193  0.15946  1.0000
  S   S264      1.0  0.63533  0.46970  0.04317  1.0000
  C   C917      1.0  0.72065  0.27469  0.33324  1.0000
  H   H1565     1.0  0.74810  0.38538  0.19658  1.0000
  H   H1566     1.0  0.69827  0.29527  0.14342  1.0000
  H   H1567     1.0  0.70485  0.42215  0.08294  1.0000
  H   H1568     1.0  0.52480  0.29900  0.16538  1.0000
  C   C918      1.0  0.73600  0.43346  0.04750  1.0000
  H   H1569     1.0  0.76782  0.29802  0.19999  1.0000
  H   H1570     1.0  0.76989  0.45585  0.41218  1.0000
  H   H1571     1.0  0.61787  0.30200  0.44340  1.0000
  C   C919      1.0  0.74047  0.29422  0.30858  1.0000
  C   C920      1.0  0.74951  0.45305  0.41733  1.0000
  H   H1572     1.0  0.86395  0.49117  0.35885  1.0000
  H   H1573     1.0  0.69453  0.43798  0.47420  1.0000
  H   H1574     1.0  0.72694  0.31891  0.12007  1.0000
  H   H1575     1.0  0.94712  0.28234  0.13355  1.0000
  C   C921      1.0  0.51920  0.31075  0.14959  1.0000
  H   H1576     1.0  0.74446  0.28425  0.28888  1.0000
  H   H1577     1.0  0.76057  0.30678  0.31977  1.0000
  N   N66       1.0  0.74509  0.33275  0.18354  1.0000
  C   C922      1.0  0.72328  0.33503  0.16605  1.0000
  C   C923      1.0  0.75270  0.35107  0.21170  1.0000
  C   C924      1.0  0.73284  0.30394  0.19437  1.0000
  C   C925      1.0  0.76845  0.34021  0.16153  1.0000
  C   C926      1.0  0.71128  0.31675  0.13698  1.0000
  C   C927      1.0  0.76417  0.38124  0.20447  1.0000
  C   C928      1.0  0.75089  0.29669  0.21404  1.0000
  C   C929      1.0  0.79631  0.34861  0.17626  1.0000
  H   H1578     1.0  0.70603  0.33076  0.18190  1.0000
  H   H1579     1.0  0.73101  0.35589  0.15730  1.0000
  H   H1580     1.0  0.76782  0.34989  0.22678  1.0000
  H   H1581     1.0  0.73483  0.34464  0.22726  1.0000
  H   H1582     1.0  0.71424  0.29814  0.20834  1.0000
  H   H1583     1.0  0.72633  0.28991  0.17410  1.0000
  H   H1584     1.0  0.76357  0.32328  0.14528  1.0000
  H   H1585     1.0  0.77157  0.35729  0.14624  1.0000
  H   H1586     1.0  0.69801  0.32262  0.12441  1.0000
  H   H1587     1.0  0.73709  0.44790  0.09606  1.0000
  H   H1588     1.0  0.49890  0.29685  0.13970  1.0000
  H   H1589     1.0  0.88831  0.49093  0.39785  1.0000
  H   H1590     1.0  0.70582  0.25175  0.44814  1.0000
  H   H1591     1.0  0.71725  0.45545  0.06917  1.0000
  C   C930      1.0  0.89098  0.46234  0.36483  1.0000
  H   H1592     1.0  0.95599  0.33640  0.40462  1.0000
  H   H1593     1.0  0.96545  0.27361  0.47635  1.0000
  C   C931      1.0  0.72825  0.25372  0.12810  1.0000
  C   C932      1.0  0.69864  0.44780  0.45088  1.0000
  C   C933      1.0  0.60037  0.29207  0.45964  1.0000
  H   H1594     1.0  0.77958  0.47840  0.07859  1.0000
  H   H1595     1.0  0.71289  0.28641  0.34593  1.0000
  H   H1596     1.0  0.85547  0.48895  0.29718  1.0000
  C   C934      1.0  0.81873  0.26100  0.06340  1.0000
  H   H1597     1.0  0.80057  0.26043  0.05332  1.0000
  H   H1598     1.0  0.83419  0.25429  0.10607  1.0000
  H   H1599     1.0  0.79414  0.49139  0.44769  1.0000
  C   C935      1.0  0.90222  0.48363  0.39105  1.0000
  H   H1600     1.0  0.92807  0.25339  0.06844  1.0000
  H   H1601     1.0  0.72638  0.48565  0.43033  1.0000
  C   C936      1.0  0.84285  0.49053  0.42826  1.0000
  H   H1602     1.0  0.84270  0.45603  0.35845  1.0000
  C   C937      1.0  0.81439  0.25105  0.09767  1.0000
  C   C938      1.0  0.94677  0.25454  0.05911  1.0000
  H   H1603     1.0  0.98256  0.37316  0.36383  1.0000
  H   H1604     1.0  0.82551  0.24984  0.04822  1.0000
  C   C939      1.0  0.99075  0.25793  0.07503  1.0000
  C   C940      1.0  0.85760  0.47321  0.34392  1.0000
  H   H1605     1.0  0.90086  0.49310  0.29386  1.0000
  N   N67       1.0  0.69754  0.24821  0.32189  1.0000
  H   H1606     1.0  0.82945  0.48452  0.32421  1.0000
  H   H1607     1.0  0.74837  0.24705  0.16676  1.0000
  C   C941      1.0  0.77647  0.49448  0.44919  1.0000
  C   C942      1.0  0.49469  0.25292  0.44444  1.0000
  C   C943      1.0  0.90388  0.49404  0.31972  1.0000
  H   H1608     1.0  0.99391  0.27264  0.02649  1.0000
  H   H1609     1.0  0.92344  0.49449  0.32306  1.0000
  Fe  Fe134     1.0  0.80124  0.44117  0.87993  1.0000
  S   S265      1.0  0.81592  0.45363  0.92986  1.0000
  Fe  Fe135     1.0  0.75070  0.40676  0.84036  1.0000
  S   S266      1.0  0.77272  0.42456  0.79544  1.0000
  S   S267      1.0  0.70685  0.37377  0.84419  1.0000
  Fe  Fe136     1.0  0.80571  0.41836  0.81616  1.0000
  S   S268      1.0  0.81952  0.39609  0.78272  1.0000
  Fe  Fe137     1.0  0.79185  0.46413  0.82120  1.0000
  S   S269      1.0  0.78258  0.39900  0.86030  1.0000
  S   S270      1.0  0.76694  0.44674  0.86436  1.0000
  Fe  Fe138     1.0  0.57103  0.40786  0.52931  1.0000
  S   S271      1.0  0.55696  0.41276  0.57732  1.0000
  Fe  Fe139     1.0  0.92547  0.34420  0.75662  1.0000
  S   S272      1.0  0.90454  0.32406  0.71182  1.0000
  S   S273      1.0  0.91209  0.36452  0.79297  1.0000
  Fe  Fe140     1.0  0.96757  0.32613  0.74881  1.0000
  S   S274      1.0  0.94933  0.30427  0.70429  1.0000
  H   H1610     1.0  0.69330  0.46957  0.84852  1.0000
  Fe  Fe141     1.0  0.94642  0.34053  0.69148  1.0000
  S   S275      1.0  0.95725  0.35571  0.64158  1.0000
  Fe  Fe142     1.0  0.90954  0.28962  0.72849  1.0000
  S   S276      1.0  0.55084  0.41101  0.48572  1.0000
  S   S277      1.0  0.96717  0.36378  0.73495  1.0000
  S   S278      1.0  0.92812  0.30851  0.77456  1.0000
  S   S279      1.0  0.64612  0.32095  0.71685  1.0000
  C   C944      1.0  0.76100  0.33009  0.73639  1.0000
  H   H1611     1.0  0.59373  0.33687  0.53179  1.0000
  H   H1612     1.0  0.73670  0.33345  0.82460  1.0000
  H   H1613     1.0  0.88779  0.25025  0.78758  1.0000
  H   H1614     1.0  0.94132  0.27333  0.64427  1.0000
  C   C945      1.0  0.59391  0.31877  0.54093  1.0000
  H   H1615     1.0  0.78146  0.30357  0.81518  1.0000
  H   H1616     1.0  0.77958  0.26128  0.82380  1.0000
  H   H1617     1.0  0.63863  0.33773  0.54053  1.0000
  C   C946      1.0  0.52377  0.38896  0.58912  1.0000
  C   C947      1.0  0.51210  0.39472  0.61476  1.0000
  Fe  Fe143     1.0  0.60713  0.39219  0.49263  1.0000
  C   C948      1.0  0.65475  0.49210  0.93869  1.0000
  N   N68       1.0  0.81810  0.28346  0.79974  1.0000
  H   H1618     1.0  0.81412  0.30104  0.75668  1.0000
  H   H1619     1.0  0.52351  0.41373  0.62692  1.0000
  C   C949      1.0  0.82721  0.29384  0.76698  1.0000
  H   H1620     1.0  0.97714  0.36252  0.57852  1.0000
  H   H1621     1.0  0.77827  0.37676  0.69933  1.0000
  S   S280      1.0  0.87545  0.24706  0.72098  1.0000
  H   H1622     1.0  0.65019  0.48217  0.88953  1.0000
  C   C950      1.0  0.83359  0.48855  0.93816  1.0000
  H   H1623     1.0  0.74279  0.47185  0.79770  1.0000
  C   C951      1.0  0.84578  0.38807  0.78606  1.0000
  C   C952      1.0  0.85130  0.37622  0.76031  1.0000
  C   C953      1.0  0.87162  0.36909  0.76189  1.0000
  C   C954      1.0  0.88656  0.37354  0.78940  1.0000
  C   C955      1.0  0.88086  0.38514  0.81525  1.0000
  C   C956      1.0  0.86064  0.39241  0.81362  1.0000
  H   H1624     1.0  0.84001  0.37285  0.73884  1.0000
  H   H1625     1.0  0.87586  0.36038  0.74172  1.0000
  H   H1626     1.0  0.89223  0.38866  0.83669  1.0000
  H   H1627     1.0  0.85658  0.40140  0.83365  1.0000
  C   C957      1.0  0.68880  0.35971  0.80923  1.0000
  C   C958      1.0  0.66691  0.33319  0.80917  1.0000
  C   C959      1.0  0.65319  0.32111  0.78113  1.0000
  C   C960      1.0  0.66109  0.33567  0.75310  1.0000
  C   C961      1.0  0.68234  0.36247  0.75346  1.0000
  C   C962      1.0  0.69619  0.37444  0.78138  1.0000
  H   H1628     1.0  0.66099  0.32171  0.83069  1.0000
  H   H1629     1.0  0.63678  0.30048  0.78115  1.0000
  H   H1630     1.0  0.68840  0.37394  0.73191  1.0000
  H   H1631     1.0  0.71266  0.39505  0.78126  1.0000
  H   H1632     1.0  0.55973  0.30939  0.49176  1.0000
  S   S281      1.0  0.82716  0.46006  0.83752  1.0000
  H   H1633     1.0  0.55182  0.27557  0.48480  1.0000
  H   H1634     1.0  0.50858  0.40955  0.53048  1.0000
  H   H1635     1.0  0.51623  0.27322  0.51454  1.0000
  H   H1636     1.0  0.52756  0.31869  0.77178  1.0000
  H   H1637     1.0  0.53749  0.29725  0.54285  1.0000
  H   H1638     1.0  0.59861  0.38715  0.92529  1.0000
  H   H1639     1.0  0.96889  0.32627  0.85037  1.0000
  H   H1640     1.0  0.57894  0.31079  0.56030  1.0000
  C   C963      1.0  0.74790  0.49273  0.79639  1.0000
  C   C964      1.0  0.82173  0.30688  0.81965  1.0000
  C   C965      1.0  0.96212  0.37128  0.85440  1.0000
  N   N69       1.0  0.54259  0.34809  0.67243  1.0000
  C   C966      1.0  0.54382  0.36391  0.70135  1.0000
  C   C967      1.0  0.55292  0.32943  0.68163  1.0000
  C   C968      1.0  0.51328  0.33174  0.66290  1.0000
  C   C969      1.0  0.55933  0.36778  0.64708  1.0000
  C   C970      1.0  0.53055  0.38162  0.69873  1.0000
  H   H1641     1.0  0.64737  0.41251  0.93394  1.0000
  C   C971      1.0  0.50897  0.36422  0.57376  1.0000
  H   H1642     1.0  0.53423  0.35019  0.72166  1.0000
  H   H1643     1.0  0.56513  0.37778  0.70848  1.0000
  H   H1644     1.0  0.71894  0.42625  0.93324  1.0000
  H   H1645     1.0  0.53935  0.31466  0.69944  1.0000
  H   H1646     1.0  0.83228  0.25460  0.80209  1.0000
  H   H1647     1.0  0.50526  0.34510  0.65593  1.0000
  H   H1648     1.0  0.54809  0.37695  0.63647  1.0000
  H   H1649     1.0  0.62156  0.31249  0.57105  1.0000
  H   H1650     1.0  0.53771  0.39502  0.67799  1.0000
  H   H1651     1.0  0.50815  0.36921  0.69848  1.0000
  H   H1652     1.0  0.83369  0.26027  0.75256  1.0000
  H   H1653     1.0  0.87108  0.31005  0.83079  1.0000
  H   H1654     1.0  0.65251  0.35384  0.87674  1.0000
  H   H1655     1.0  0.92174  0.24673  0.69461  1.0000
  C   C972      1.0  0.55881  0.29144  0.50315  1.0000
  C   C973      1.0  0.69156  0.45011  0.85561  1.0000
  H   H1656     1.0  0.55861  0.33500  0.61685  1.0000
  H   H1657     1.0  0.80662  0.32703  0.78791  1.0000
  H   H1658     1.0  0.69864  0.27926  0.73444  1.0000
  H   H1659     1.0  0.80798  0.33552  0.82807  1.0000
  H   H1660     1.0  0.97505  0.27643  0.79452  1.0000
  H   H1661     1.0  0.58904  0.32856  0.69648  1.0000
  H   H1662     1.0  0.61427  0.41485  0.89903  1.0000
  C   C974      1.0  0.58189  0.34334  0.69507  1.0000
  H   H1663     1.0  0.71100  0.45486  0.86663  1.0000
  N   N70       1.0  0.58634  0.29813  0.51527  1.0000
  C   C975      1.0  0.71594  0.32190  0.71836  1.0000
  H   H1664     1.0  0.50074  0.31972  0.68315  1.0000
  H   H1665     1.0  0.77296  0.29972  0.73689  1.0000
  C   C976      1.0  0.96594  0.24761  0.67547  1.0000
  C   C977      1.0  0.99065  0.34121  0.84708  1.0000
  S   S282      1.0  0.56729  0.36820  0.51734  1.0000
  H   H1666     1.0  0.84233  0.28526  0.72429  1.0000
  S   S283      1.0  0.61305  0.43210  0.50899  1.0000
  C   C978      1.0  0.95192  0.38976  0.86741  1.0000
  H   H1667     1.0  0.67920  0.29489  0.74511  1.0000
  H   H1668     1.0  0.96187  0.35890  0.87461  1.0000
  S   S284      1.0  0.61647  0.24929  0.68057  1.0000
  H   H1669     1.0  0.84274  0.32415  0.81786  1.0000
  H   H1670     1.0  0.61955  0.35074  0.88152  1.0000
  H   H1671     1.0  0.58244  0.35056  0.71932  1.0000
  C   C979      1.0  0.72708  0.32799  0.77495  1.0000
  C   C980      1.0  0.76008  0.37782  0.70610  1.0000
  S   S285      1.0  0.64093  0.45810  0.95067  1.0000
  H   H1672     1.0  0.75214  0.36413  0.80341  1.0000
  C   C981      1.0  0.62140  0.32870  0.55704  1.0000
  C   C982      1.0  0.92069  0.25566  0.64612  1.0000
  H   H1673     1.0  0.93369  0.37756  0.88201  1.0000
  H   H1674     1.0  0.74428  0.36830  0.68784  1.0000
  H   H1675     1.0  0.67920  0.28483  0.70575  1.0000
  H   H1676     1.0  0.76543  0.34132  0.80071  1.0000
  C   C983      1.0  0.86564  0.29251  0.81536  1.0000
  H   H1677     1.0  0.74826  0.29402  0.76591  1.0000
  H   H1678     1.0  0.77678  0.26698  0.78340  1.0000
  H   H1679     1.0  0.55254  0.31670  0.66196  1.0000
  H   H1680     1.0  0.87579  0.28189  0.82514  1.0000
  H   H1681     1.0  0.71849  0.30612  0.77920  1.0000
  C   C984      1.0  0.74986  0.36590  0.73901  1.0000
  H   H1682     1.0  0.54071  0.28353  0.76710  1.0000
  H   H1683     1.0  0.76829  0.33510  0.71184  1.0000
  H   H1684     1.0  0.80704  0.26189  0.73169  1.0000
  H   H1685     1.0  0.67153  0.44884  0.89911  1.0000
  H   H1686     1.0  0.87407  0.29950  0.79163  1.0000
  H   H1687     1.0  0.73901  0.28692  0.72478  1.0000
  H   H1688     1.0  0.70982  0.33158  0.77793  1.0000
  C   C985      1.0  0.75445  0.30088  0.74151  1.0000
  C   C986      1.0  0.83493  0.27277  0.81431  1.0000
  H   H1689     1.0  0.57780  0.38506  0.65738  1.0000
  H   H1690     1.0  0.81854  0.30113  0.84489  1.0000
  H   H1691     1.0  0.51790  0.35933  0.55435  1.0000
  S   S286      1.0  0.57336  0.27075  0.68895  1.0000
  H   H1692     1.0  0.63117  0.34788  0.84384  1.0000
  H   H1693     1.0  0.76631  0.39956  0.70659  1.0000
  H   H1694     1.0  0.70428  0.44679  0.92503  1.0000
  C   C987      1.0  0.80315  0.31852  0.81185  1.0000
  H   H1695     1.0  0.70594  0.33402  0.71361  1.0000
  H   H1696     1.0  0.76738  0.37725  0.75489  1.0000
  Fe  Fe144     1.0  0.61164  0.27792  0.71248  1.0000
  H   H1697     1.0  0.66688  0.39446  0.84288  1.0000
  C   C988      1.0  0.52226  0.28050  0.75628  1.0000
  H   H1698     1.0  0.90693  0.26350  0.65202  1.0000
  C   C989      1.0  0.74683  0.34272  0.80210  1.0000
  S   S287      1.0  0.64067  0.38232  0.49972  1.0000
  H   H1699     1.0  0.72421  0.32026  0.69537  1.0000
  H   H1700     1.0  0.84758  0.31223  0.76682  1.0000
  H   H1701     1.0  0.59644  0.36025  0.68024  1.0000
  H   H1702     1.0  0.61217  0.25833  0.51275  1.0000
  H   H1703     1.0  0.64993  0.43506  0.86660  1.0000
  C   C990      1.0  0.69225  0.29360  0.72671  1.0000
  N   N71       1.0  0.66078  0.40757  0.88826  1.0000
  C   C991      1.0  0.63993  0.39815  0.91395  1.0000
  C   C992      1.0  0.68544  0.40736  0.90046  1.0000
  C   C993      1.0  0.65034  0.38930  0.86005  1.0000
  C   C994      1.0  0.66753  0.43555  0.87842  1.0000
  C   C995      1.0  0.61241  0.39512  0.90481  1.0000
  C   C996      1.0  0.69953  0.42578  0.92887  1.0000
  C   C997      1.0  0.63774  0.35884  0.86648  1.0000
  C   C998      1.0  0.78850  0.26204  0.80032  1.0000
  H   H1704     1.0  0.53587  0.39469  0.71979  1.0000
  H   H1705     1.0  0.62482  0.34496  0.57378  1.0000
  H   H1706     1.0  0.70077  0.41268  0.88165  1.0000
  H   H1707     1.0  0.68029  0.38674  0.90788  1.0000
  H   H1708     1.0  0.53413  0.26393  0.54139  1.0000
  H   H1709     1.0  0.94646  0.35688  0.83781  1.0000
  H   H1710     1.0  0.68873  0.43847  0.83383  1.0000
  H   H1711     1.0  0.97116  0.39046  0.79725  1.0000
  H   H1712     1.0  0.63630  0.37871  0.92405  1.0000
  H   H1713     1.0  0.63504  0.39218  0.84714  1.0000
  H   H1714     1.0  0.60253  0.38084  0.88522  1.0000
  H   H1715     1.0  0.59138  0.36440  0.62263  1.0000
  C   C999      1.0  0.51470  0.30029  0.75908  1.0000
  C   C1000     1.0  0.53567  0.28089  0.52733  1.0000
  H   H1716     1.0  0.51505  0.32316  0.61305  1.0000
  H   H1717     1.0  0.77885  0.34329  0.75119  1.0000
  N   N72       1.0  0.98960  0.38533  0.83896  1.0000
  H   H1718     1.0  0.73466  0.37159  0.74605  1.0000
  H   H1719     1.0  0.74811  0.46084  0.49701  1.0000
  H   H1720     1.0  0.78007  0.48299  0.92290  1.0000
  N   N73       1.0  0.73836  0.33587  0.74228  1.0000
  H   H1721     1.0  0.97286  0.26275  0.65629  1.0000
  C   C1001     1.0  0.82719  0.27390  0.74281  1.0000
  H   H1722     1.0  0.96716  0.40610  0.88239  1.0000
  H   H1723     1.0  0.94547  0.39845  0.84831  1.0000
  H   H1724     1.0  0.70723  0.48351  0.78556  1.0000
  H   H1725     1.0  0.68720  0.41778  0.95045  1.0000
  C   C1002     1.0  0.56943  0.35704  0.62001  1.0000
  H   H1726     1.0  0.56741  0.36574  0.59758  1.0000
  C   C1003     1.0  0.58465  0.27265  0.52756  1.0000
  C   C1004     1.0  0.50651  0.31218  0.63526  1.0000
  C   C1005     1.0  0.50521  0.25620  0.74103  1.0000
  C   C1006     1.0  0.98918  0.36337  0.62649  1.0000
  H   H1727     1.0  0.51257  0.29687  0.63946  1.0000
  H   H1728     1.0  0.82804  0.26588  0.83873  1.0000
  H   H1729     1.0  0.74933  0.47836  0.90713  1.0000
  C   C1007     1.0  0.60577  0.31052  0.48826  1.0000
  H   H1730     1.0  0.76751  0.43008  0.49683  1.0000
  H   H1731     1.0  0.79171  0.46322  0.48464  1.0000
  H   H1732     1.0  0.63011  0.29193  0.52854  1.0000
  C   C1008     1.0  0.76666  0.49185  0.92211  1.0000
  H   H1733     1.0  0.68895  0.37878  0.49392  1.0000
  H   H1734     1.0  0.57494  0.26770  0.55108  1.0000
  H   H1735     1.0  0.98011  0.35401  0.80469  1.0000
  H   H1736     1.0  0.96678  0.25902  0.69699  1.0000
  H   H1737     1.0  0.98488  0.41871  0.82271  1.0000
  H   H1738     1.0  0.76033  0.49188  0.94651  1.0000
  H   H1739     1.0  0.61210  0.26372  0.55362  1.0000
  C   C1009     1.0  0.98853  0.40276  0.81313  1.0000
  C   C1010     1.0  0.61146  0.27219  0.53042  1.0000
  H   H1740     1.0  0.57117  0.25525  0.51231  1.0000
  S   S288      1.0  0.59085  0.24761  0.75107  1.0000
  H   H1741     1.0  0.62705  0.31831  0.49520  1.0000
  H   H1742     1.0  0.79799  0.24888  0.48775  1.0000
  C   C1011     1.0  0.99074  0.27628  0.78047  1.0000
  C   C1012     1.0  0.99355  0.36592  0.59399  1.0000
  H   H1743     1.0  0.91424  0.24576  0.62296  1.0000
  Fe  Fe145     1.0  0.88935  0.64003  0.05504  1.0000
  S   S289      1.0  0.89726  0.62220  0.09786  1.0000
  S   S290      1.0  0.88713  0.67838  0.05246  1.0000
  Fe  Fe146     1.0  0.88343  0.59411  0.01224  1.0000
  S   S291      1.0  0.89119  0.57342  0.05194  1.0000
  H   H1744     1.0  0.64742  0.51000  0.38945  1.0000
  Fe  Fe147     1.0  0.86321  0.58283  0.07893  1.0000
  S   S292      1.0  0.82913  0.54989  0.10727  1.0000
  Fe  Fe148     1.0  0.92473  0.61484  0.06637  1.0000
  S   S293      1.0  0.96811  0.62272  0.07195  1.0000
  S   S294      1.0  0.85378  0.60142  0.03841  1.0000
  S   S295      1.0  0.91844  0.63486  0.02449  1.0000
  C   C1013     1.0  0.86830  0.53649  0.44934  1.0000
  C   C1014     1.0  0.93705  0.57329  0.99886  1.0000
  N   N74       1.0  0.86007  0.73955  0.29492  1.0000
  H   H1745     1.0  0.65964  0.54809  0.31661  1.0000
  S   S296      1.0  0.55790  0.71154  0.10568  1.0000
  C   C1015     1.0  0.83477  0.50040  0.40302  1.0000
  H   H1746     1.0  0.97422  0.62613  0.00106  1.0000
  H   H1747     1.0  0.93830  0.54120  0.02590  1.0000
  H   H1748     1.0  0.67248  0.57809  0.34049  1.0000
  H   H1749     1.0  0.90532  0.53396  0.01480  1.0000
  H   H1750     1.0  0.78849  0.67046  0.13148  1.0000
  S   S297      1.0  0.61545  0.70687  0.16144  1.0000
  H   H1751     1.0  0.92234  0.50073  0.38475  1.0000
  Fe  Fe149     1.0  0.70503  0.68978  0.41016  1.0000
  S   S298      1.0  0.72712  0.69760  0.36472  1.0000
  S   S299      1.0  0.70235  0.72096  0.43980  1.0000
  Fe  Fe150     1.0  0.68603  0.62924  0.40967  1.0000
  S   S300      1.0  0.70706  0.63251  0.36395  1.0000
  S   S301      1.0  0.66040  0.59302  0.44115  1.0000
  Fe  Fe151     1.0  0.74168  0.67049  0.38376  1.0000
  S   S302      1.0  0.78559  0.68350  0.37436  1.0000
  Fe  Fe152     1.0  0.69089  0.65939  0.34859  1.0000
  S   S303      1.0  0.67391  0.65437  0.29955  1.0000
  S   S304      1.0  0.72210  0.66544  0.43073  1.0000
  S   S305      1.0  0.66734  0.65353  0.39274  1.0000
  H   H1752     1.0  0.69879  0.68169  0.17987  1.0000
  H   H1753     1.0  0.86062  0.53130  0.00056  1.0000
  C   C1016     1.0  0.78355  0.50307  0.01023  1.0000
  C   C1017     1.0  0.63896  0.72483  0.46990  1.0000
  H   H1754     1.0  0.80081  0.53449  0.42974  1.0000
  S   S306      1.0  0.87192  0.58137  0.41900  1.0000
  H   H1755     1.0  0.64886  0.59363  0.29932  1.0000
  C   C1018     1.0  0.62010  0.51233  0.45911  1.0000
  S   S307      1.0  0.90054  0.65725  0.42996  1.0000
  S   S308      1.0  0.98220  0.70879  0.43423  1.0000
  H   H1756     1.0  0.76569  0.73690  0.43087  1.0000
  H   H1757     1.0  0.82447  0.49666  0.07113  1.0000
  C   C1019     1.0  0.65439  0.54668  0.41210  1.0000
  C   C1020     1.0  0.64818  0.55782  0.43771  1.0000
  C   C1021     1.0  0.75696  0.73329  0.25801  1.0000
  H   H1758     1.0  0.60242  0.52265  0.32364  1.0000
  C   C1022     1.0  0.85955  0.50872  0.45142  1.0000
  H   H1759     1.0  0.66802  0.55974  0.39425  1.0000
  C   C1023     1.0  0.80407  0.67954  0.40497  1.0000
  C   C1024     1.0  0.83058  0.68506  0.39943  1.0000
  C   C1025     1.0  0.84618  0.68337  0.42389  1.0000
  C   C1026     1.0  0.83359  0.71533  0.30418  1.0000
  Fe  Fe153     1.0  0.94147  0.67714  0.45293  1.0000
  C   C1027     1.0  0.79327  0.67231  0.43512  1.0000
  H   H1760     1.0  0.83905  0.69053  0.37617  1.0000
  H   H1761     1.0  0.86658  0.68763  0.41943  1.0000
  H   H1762     1.0  0.82898  0.71641  0.32929  1.0000
  H   H1763     1.0  0.77281  0.66766  0.43963  1.0000
  C   C1028     1.0  0.64228  0.70966  0.26588  1.0000
  C   C1029     1.0  0.64343  0.69119  0.24542  1.0000
  C   C1030     1.0  0.65288  0.67413  0.25611  1.0000
  C   C1031     1.0  0.66170  0.67574  0.28714  1.0000
  C   C1032     1.0  0.66102  0.69455  0.30746  1.0000
  C   C1033     1.0  0.65117  0.71131  0.29689  1.0000
  H   H1764     1.0  0.63656  0.68969  0.22151  1.0000
  H   H1765     1.0  0.65332  0.65963  0.24025  1.0000
  H   H1766     1.0  0.66774  0.69594  0.33142  1.0000
  S   S309      1.0  0.93710  0.63796  0.47031  1.0000
  C   C1034     1.0  0.62563  0.50112  0.43304  1.0000
  Fe  Fe154     1.0  0.59350  0.72675  0.13984  1.0000
  C   C1035     1.0  0.86079  0.54648  0.42372  1.0000
  C   C1036     1.0  0.84406  0.52824  0.40055  1.0000
  C   C1037     1.0  0.64028  0.57236  0.30720  1.0000
  H   H1767     1.0  0.62636  0.54887  0.48132  1.0000
  H   H1768     1.0  0.56947  0.52538  0.36267  1.0000
  H   H1769     1.0  0.83809  0.53576  0.38066  1.0000
  H   H1770     1.0  0.92673  0.53168  0.98596  1.0000
  C   C1038     1.0  0.90837  0.52192  0.32978  1.0000
  S   S310      1.0  0.62979  0.73087  0.25362  1.0000
  C   C1039     1.0  0.51092  0.67281  0.13537  1.0000
  C   C1040     1.0  0.52324  0.68615  0.10754  1.0000
  H   H1771     1.0  0.65103  0.71922  0.45457  1.0000
  H   H1772     1.0  0.71616  0.71653  0.17077  1.0000
  H   H1773     1.0  0.93947  0.58383  0.02153  1.0000
  H   H1774     1.0  0.52281  0.67732  0.15652  1.0000
  H   H1775     1.0  0.51672  0.69017  0.05858  1.0000
  H   H1776     1.0  0.96931  0.65423  0.12699  1.0000
  C   C1041     1.0  0.73972  0.51737  0.08347  1.0000
  C   C1042     1.0  0.75988  0.53619  0.06365  1.0000
  C   C1043     1.0  0.78731  0.54539  0.06985  1.0000
  C   C1044     1.0  0.79486  0.53648  0.09647  1.0000
  H   H1777     1.0  0.68146  0.58046  0.30007  1.0000
  C   C1045     1.0  0.83554  0.67680  0.45419  1.0000
  H   H1778     1.0  0.86590  0.50133  0.47109  1.0000
  H   H1779     1.0  0.80252  0.55981  0.05437  1.0000
  H   H1780     1.0  0.70211  0.72429  0.25604  1.0000
  C   C1046     1.0  0.87821  0.69050  0.08561  1.0000
  C   C1047     1.0  0.86928  0.70906  0.08140  1.0000
  H   H1781     1.0  0.85643  0.73455  0.10375  1.0000
  C   C1048     1.0  0.86576  0.71260  0.13759  1.0000
  C   C1049     1.0  0.87397  0.69346  0.14187  1.0000
  C   C1050     1.0  0.88043  0.68260  0.11594  1.0000
  H   H1782     1.0  0.86720  0.71500  0.05798  1.0000
  H   H1783     1.0  0.59656  0.53721  0.39172  1.0000
  H   H1784     1.0  0.87591  0.68747  0.16530  1.0000
  H   H1785     1.0  0.88746  0.66842  0.11944  1.0000
  C   C1051     1.0  0.60158  0.59223  0.30010  1.0000
  H   H1786     1.0  0.89184  0.52521  0.32149  1.0000
  S   S311      1.0  0.85862  0.72661  0.17034  1.0000
  H   H1787     1.0  0.82450  0.72796  0.44263  1.0000
  Fe  Fe155     1.0  0.89454  0.61831  0.45111  1.0000
  S   S312      1.0  0.68525  0.73350  0.11947  1.0000
  C   C1052     1.0  0.98967  0.65840  0.12241  1.0000
  H   H1788     1.0  0.87501  0.74390  0.34243  1.0000
  H   H1789     1.0  0.82897  0.63710  0.04859  1.0000
  H   H1790     1.0  0.80216  0.63724  0.02785  1.0000
  H   H1791     1.0  0.78436  0.50929  0.40066  1.0000
  H   H1792     1.0  0.61444  0.74382  0.46717  1.0000
  H   H1793     1.0  0.70031  0.74463  0.20195  1.0000
  C   C1053     1.0  0.77462  0.51718  0.11585  1.0000
  H   H1794     1.0  0.88120  0.55022  0.46730  1.0000
  C   C1054     1.0  0.70578  0.70201  0.18992  1.0000
  H   H1795     1.0  0.58239  0.59136  0.29329  1.0000
  C   C1055     1.0  0.63116  0.54049  0.46128  1.0000
  H   H1796     1.0  0.78260  0.74235  0.37751  1.0000
  H   H1797     1.0  0.60684  0.49927  0.47729  1.0000
  H   H1798     1.0  0.73869  0.69948  0.21070  1.0000
  C   C1056     1.0  0.88137  0.74275  0.31814  1.0000
  C   C1057     1.0  0.92656  0.54334  0.00653  1.0000
  H   H1799     1.0  0.81629  0.65910  0.06065  1.0000
  H   H1800     1.0  0.89585  0.71731  0.29563  1.0000
  C   C1058     1.0  0.80913  0.67146  0.45976  1.0000
  H   H1801     1.0  0.80538  0.72772  0.28519  1.0000
  H   H1802     1.0  0.78022  0.51020  0.13654  1.0000
  H   H1803     1.0  0.75427  0.54413  0.04386  1.0000
  H   H1804     1.0  0.92726  0.53789  0.31882  1.0000
  H   H1805     1.0  0.61352  0.59590  0.27830  1.0000
  C   C1059     1.0  0.64287  0.51848  0.40959  1.0000
  H   H1806     1.0  0.86526  0.71513  0.25962  1.0000
  H   H1807     1.0  0.58684  0.54956  0.29699  1.0000
  H   H1808     1.0  0.91059  0.52530  0.35533  1.0000
  N   N75       1.0  0.79635  0.61636  0.10633  1.0000
  C   C1060     1.0  0.82153  0.61406  0.10790  1.0000
  C   C1061     1.0  0.78925  0.61596  0.07222  1.0000
  C   C1062     1.0  0.77393  0.59226  0.12323  1.0000
  C   C1063     1.0  0.80253  0.64237  0.12213  1.0000
  C   C1064     1.0  0.83091  0.61154  0.14103  1.0000
  C   C1065     1.0  0.81065  0.63882  0.05166  1.0000
  C   C1066     1.0  0.74465  0.58160  0.11178  1.0000
  C   C1067     1.0  0.78068  0.65047  0.12008  1.0000
  H   H1809     1.0  0.81874  0.59634  0.09429  1.0000
  H   H1810     1.0  0.83905  0.63176  0.09698  1.0000
  H   H1811     1.0  0.77040  0.61682  0.06929  1.0000
  H   H1812     1.0  0.78501  0.59656  0.06130  1.0000
  H   H1813     1.0  0.77684  0.57444  0.12139  1.0000
  H   H1814     1.0  0.77437  0.59631  0.14879  1.0000
  H   H1815     1.0  0.80655  0.64182  0.14751  1.0000
  H   H1816     1.0  0.82141  0.65942  0.11247  1.0000
  H   H1817     1.0  0.81517  0.59401  0.15415  1.0000
  H   H1818     1.0  0.84839  0.60821  0.13879  1.0000
  H   H1819     1.0  0.83800  0.63025  0.15487  1.0000
  H   H1820     1.0  0.77704  0.51724  0.00165  1.0000
  C   C1068     1.0  0.72419  0.70609  0.21813  1.0000
  H   H1821     1.0  0.77802  0.50401  0.47245  1.0000
  H   H1822     1.0  0.74138  0.57201  0.08839  1.0000
  H   H1823     1.0  0.73870  0.59719  0.11079  1.0000
  H   H1824     1.0  0.73047  0.56555  0.12797  1.0000
  H   H1825     1.0  0.77579  0.65279  0.09559  1.0000
  H   H1826     1.0  0.73183  0.72985  0.10257  1.0000
  H   H1827     1.0  0.76219  0.63618  0.13294  1.0000
  N   N76       1.0  0.61867  0.56533  0.33175  1.0000
  H   H1828     1.0  0.73578  0.69146  0.27581  1.0000
  C   C1069     1.0  0.59517  0.56531  0.31562  1.0000
  C   C1070     1.0  0.60999  0.53730  0.34344  1.0000
  C   C1071     1.0  0.63035  0.58576  0.35790  1.0000
  H   H1829     1.0  0.95091  0.73533  0.42217  1.0000
  H   H1830     1.0  0.68720  0.70211  0.19714  1.0000
  C   C1072     1.0  0.58848  0.52603  0.36944  1.0000
  C   C1073     1.0  0.61009  0.58939  0.37860  1.0000
  C   C1074     1.0  0.86713  0.73533  0.26217  1.0000
  H   H1831     1.0  0.81033  0.70503  0.26011  1.0000
  H   H1832     1.0  0.57791  0.55958  0.33162  1.0000
  Fe  Fe156     1.0  0.62451  0.73560  0.20173  1.0000
  H   H1833     1.0  0.97941  0.56432  0.00284  1.0000
  C   C1075     1.0  0.66473  0.56950  0.31705  1.0000
  H   H1834     1.0  0.64290  0.58107  0.37370  1.0000
  H   H1835     1.0  0.64438  0.60607  0.34809  1.0000
  H   H1836     1.0  0.83469  0.69654  0.30218  1.0000
  H   H1837     1.0  0.61257  0.60974  0.31592  1.0000
  H   H1838     1.0  0.60956  0.60781  0.37170  1.0000
  H   H1839     1.0  0.71064  0.69110  0.23574  1.0000
  C   C1076     1.0  0.98426  0.58561  0.00033  1.0000
  H   H1840     1.0  0.65026  0.72548  0.31287  1.0000
  H   H1841     1.0  0.50818  0.73179  0.12402  1.0000
  C   C1077     1.0  0.74231  0.71222  0.28399  1.0000
  C   C1078     1.0  0.80878  0.71034  0.28470  1.0000
  H   H1842     1.0  0.61748  0.59299  0.40316  1.0000
  H   H1843     1.0  0.58933  0.57210  0.37942  1.0000
  H   H1844     1.0  0.58329  0.50493  0.37446  1.0000
  C   C1079     1.0  0.86321  0.72019  0.10728  1.0000
  H   H1845     1.0  0.76575  0.52160  0.42361  1.0000
  H   H1846     1.0  0.63158  0.55977  0.28580  1.0000
  C   C1080     1.0  0.78155  0.51580  0.42412  1.0000
  H   H1847     1.0  0.62735  0.53624  0.35348  1.0000
  H   H1848     1.0  0.87098  0.70049  0.32625  1.0000
  H   H1849     1.0  0.94052  0.73627  0.01796  1.0000
  C   C1081     1.0  0.74717  0.50759  0.10935  1.0000
  H   H1850     1.0  0.92823  0.74335  0.12490  1.0000
  H   H1851     1.0  0.78011  0.71642  0.42294  1.0000
  S   S313      1.0  0.70628  0.51075  0.07938  1.0000
  C   C1082     1.0  0.99094  0.74301  0.43295  1.0000
  C   C1083     1.0  0.50739  0.67998  0.08024  1.0000
  Fe  Fe157     1.0  0.65319  0.74099  0.14044  1.0000
  H   H1852     1.0  0.92039  0.57429  0.98696  1.0000
  C   C1084     1.0  0.62995  0.74264  0.45253  1.0000
  H   H1853     1.0  0.66198  0.50868  0.98524  1.0000
  N   N77       1.0  0.73931  0.73401  0.23214  1.0000
  H   H1854     1.0  0.94366  0.74371  0.07770  1.0000
  H   H1855     1.0  0.79048  0.69291  0.29491  1.0000
  H   H1856     1.0  0.78549  0.70862  0.47740  1.0000
  C   C1085     1.0  0.72002  0.74210  0.24588  1.0000
  H   H1857     1.0  0.75658  0.71630  0.30364  1.0000
  H   H1858     1.0  0.98457  0.59296  0.02464  1.0000
  H   H1859     1.0  0.74469  0.71315  0.47270  1.0000
  H   H1860     1.0  0.79235  0.49820  0.98990  1.0000
  H   H1861     1.0  0.77292  0.72963  0.24816  1.0000
  H   H1862     1.0  0.72469  0.71307  0.29352  1.0000
  Fe  Fe158     1.0  0.88567  0.66343  0.47610  1.0000
  C   C1086     1.0  0.88833  0.71994  0.31852  1.0000
  C   C1087     1.0  0.78529  0.73761  0.42745  1.0000
  H   H1863     1.0  0.90480  0.72514  0.33577  1.0000
  H   H1864     1.0  0.85258  0.73542  0.24488  1.0000
  H   H1865     1.0  0.61883  0.73093  0.43146  1.0000
  H   H1866     1.0  0.79924  0.51428  0.02817  1.0000
  H   H1867     1.0  0.62073  0.70568  0.47685  1.0000
  H   H1868     1.0  0.91800  0.74472  0.05701  1.0000
  H   H1869     1.0  0.85532  0.54983  0.90434  1.0000
  H   H1870     1.0  0.87563  0.69706  0.72629  1.0000
  Fe  Fe159     1.0  0.71192  0.57296  0.79430  1.0000
  S   S314      1.0  0.73838  0.59615  0.83474  1.0000
  S   S315      1.0  0.70884  0.53402  0.77765  1.0000
  Fe  Fe160     1.0  0.68318  0.60656  0.79306  1.0000
  S   S316      1.0  0.70676  0.63080  0.83454  1.0000
  S   S317      1.0  0.65080  0.61147  0.76727  1.0000
  Fe  Fe161     1.0  0.74245  0.63263  0.80988  1.0000
  S   S318      1.0  0.78036  0.67362  0.80988  1.0000
  Fe  Fe162     1.0  0.70025  0.59174  0.85511  1.0000
  S   S319      1.0  0.69003  0.58000  0.90616  1.0000
  S   S320      1.0  0.71914  0.60987  0.76729  1.0000
  S   S321      1.0  0.67348  0.56718  0.81572  1.0000
  Fe  Fe163     1.0  0.92020  0.64658  0.51351  1.0000
  S   S322      1.0  0.93002  0.64361  0.56428  1.0000
  Fe  Fe164     1.0  0.57671  0.72924  0.66585  1.0000
  S   S323      1.0  0.56319  0.70228  0.70852  1.0000
  S   S324      1.0  0.56358  0.72110  0.61478  1.0000
  C   C1088     1.0  0.88020  0.71248  0.74468  1.0000
  H   H1871     1.0  0.59104  0.53678  0.90266  1.0000
  Fe  Fe165     1.0  0.60721  0.72487  0.72351  1.0000
  S   S325      1.0  0.63559  0.71416  0.75042  1.0000
  C   C1089     1.0  0.78653  0.56153  0.88731  1.0000
  H   H1872     1.0  0.85524  0.69630  0.55242  1.0000
  H   H1873     1.0  0.88976  0.68756  0.63835  1.0000
  H   H1874     1.0  0.72585  0.54522  0.88822  1.0000
  C   C1090     1.0  0.96357  0.66482  0.57717  1.0000
  C   C1091     1.0  0.93442  0.56402  0.93083  1.0000
  C   C1092     1.0  0.52148  0.69648  0.57302  1.0000
  C   C1093     1.0  0.52956  0.69825  0.60443  1.0000
  H   H1875     1.0  0.72848  0.50033  0.89307  1.0000
  C   C1094     1.0  0.96917  0.66742  0.60938  1.0000
  H   H1876     1.0  0.86139  0.70592  0.75799  1.0000
  H   H1877     1.0  0.53609  0.70907  0.55559  1.0000
  C   C1095     1.0  0.83840  0.50765  0.91495  1.0000
  H   H1878     1.0  0.95291  0.65666  0.62593  1.0000
  C   C1096     1.0  0.83942  0.67930  0.56602  1.0000
  C   C1097     1.0  0.59025  0.58214  0.88382  1.0000
  C   C1098     1.0  0.92408  0.70025  0.58972  1.0000
  C   C1099     1.0  0.79685  0.69009  0.77505  1.0000
  C   C1100     1.0  0.81311  0.71821  0.77535  1.0000
  C   C1101     1.0  0.86280  0.70817  0.81961  1.0000
  C   C1102     1.0  0.82625  0.71801  0.72135  1.0000
  C   C1103     1.0  0.80968  0.68985  0.72083  1.0000
  C   C1104     1.0  0.79487  0.67590  0.74758  1.0000
  H   H1879     1.0  0.97798  0.58889  0.93364  1.0000
  H   H1880     1.0  0.97881  0.62071  0.69849  1.0000
  H   H1881     1.0  0.78249  0.65416  0.74722  1.0000
  C   C1105     1.0  0.64612  0.63985  0.76397  1.0000
  C   C1106     1.0  0.62772  0.63929  0.74165  1.0000
  C   C1107     1.0  0.62375  0.66153  0.73758  1.0000
  C   C1108     1.0  0.63815  0.68467  0.75589  1.0000
  C   C1109     1.0  0.65619  0.68503  0.77867  1.0000
  C   C1110     1.0  0.66007  0.66273  0.78284  1.0000
  H   H1882     1.0  0.61663  0.62162  0.72711  1.0000
  H   H1883     1.0  0.60980  0.66089  0.72001  1.0000
  H   H1884     1.0  0.66735  0.70277  0.79307  1.0000
  H   H1885     1.0  0.67399  0.66336  0.80042  1.0000
  H   H1886     1.0  0.97263  0.61409  0.65755  1.0000
  H   H1887     1.0  0.66757  0.65121  0.88095  1.0000
  C   C1111     1.0  0.67443  0.53990  0.95016  1.0000
  C   C1112     1.0  0.67673  0.54605  0.91808  1.0000
  C   C1113     1.0  0.66805  0.52507  0.89630  1.0000
  H   H1888     1.0  0.69885  0.65412  0.69910  1.0000
  S   S326      1.0  0.87724  0.62378  0.49610  1.0000
  C   C1114     1.0  0.85458  0.52485  0.97669  1.0000
  H   H1889     1.0  0.66958  0.52948  0.87152  1.0000
  C   C1115     1.0  0.73432  0.52642  0.78735  1.0000
  H   H1890     1.0  0.60510  0.60642  0.80941  1.0000
  H   H1891     1.0  0.89378  0.69820  0.82478  1.0000
  C   C1116     1.0  0.93968  0.74197  0.80262  1.0000
  C   C1117     1.0  0.78119  0.54021  0.79832  1.0000
  C   C1118     1.0  0.76104  0.54684  0.79215  1.0000
  H   H1892     1.0  0.74131  0.54805  0.85070  1.0000
  H   H1893     1.0  0.80195  0.55610  0.80119  1.0000
  H   H1894     1.0  0.76626  0.56772  0.79026  1.0000
  C   C1119     1.0  0.85912  0.54391  0.95353  1.0000
  H   H1895     1.0  0.82380  0.59991  0.89268  1.0000
  H   H1896     1.0  0.75835  0.56097  0.93291  1.0000
  H   H1897     1.0  0.96111  0.64564  0.95956  1.0000
  S   S327      1.0  0.80086  0.50594  0.80739  1.0000
  C   C1120     1.0  0.85143  0.53522  0.92256  1.0000
  H   H1898     1.0  0.80858  0.67876  0.69986  1.0000
  H   H1899     1.0  0.81458  0.72932  0.79647  1.0000
  H   H1900     1.0  0.94006  0.70866  0.57146  1.0000
  H   H1901     1.0  0.92150  0.54184  0.93343  1.0000
  N   N78       1.0  0.87222  0.66747  0.59461  1.0000
  H   H1902     1.0  0.82122  0.66972  0.55077  1.0000
  C   C1121     1.0  0.70204  0.71087  0.68903  1.0000
  C   C1122     1.0  0.51051  0.68177  0.62674  1.0000
  H   H1903     1.0  0.85114  0.68851  0.80739  1.0000
  H   H1904     1.0  0.68848  0.69356  0.67388  1.0000
  H   H1905     1.0  0.63696  0.58052  0.90451  1.0000
  H   H1906     1.0  0.75252  0.71223  0.51266  1.0000
  H   H1907     1.0  0.74181  0.67149  0.75099  1.0000
  H   H1908     1.0  0.81057  0.58318  0.92921  1.0000
  H   H1909     1.0  0.98062  0.67715  0.53107  1.0000
  C   C1123     1.0  0.72739  0.67914  0.75090  1.0000
  H   H1910     1.0  0.77395  0.54548  0.95312  1.0000
  H   H1911     1.0  0.60917  0.58703  0.93097  1.0000
  C   C1124     1.0  0.59455  0.59092  0.91847  1.0000
  S   S328      1.0  0.92707  0.68662  0.49721  1.0000
  H   H1912     1.0  0.87302  0.63093  0.58388  1.0000
  H   H1913     1.0  0.92126  0.72304  0.74910  1.0000
  H   H1914     1.0  0.57290  0.56114  0.88247  1.0000
  H   H1915     1.0  0.73197  0.64559  0.66994  1.0000
  N   N79       1.0  0.76750  0.53540  0.90366  1.0000
  C   C1125     1.0  0.73460  0.69694  0.78032  1.0000
  H   H1916     1.0  0.79158  0.55752  0.86339  1.0000
  C   C1126     1.0  0.75884  0.54179  0.93449  1.0000
  C   C1127     1.0  0.81351  0.57988  0.90429  1.0000
  H   H1917     1.0  0.84948  0.64912  0.55224  1.0000
  H   H1918     1.0  0.60298  0.52855  0.86707  1.0000
  C   C1128     1.0  0.94736  0.71972  0.80508  1.0000
  S   S329      1.0  0.84563  0.73500  0.68813  1.0000
  C   C1129     1.0  0.73079  0.52085  0.94744  1.0000
  C   C1130     1.0  0.85369  0.62416  0.62882  1.0000
  N   N80       1.0  0.72811  0.69229  0.72001  1.0000
  H   H1919     1.0  0.49650  0.73287  0.59678  1.0000
  H   H1920     1.0  0.79201  0.51904  0.88632  1.0000
  H   H1921     1.0  0.77166  0.71072  0.72251  1.0000
  S   S330      1.0  0.52621  0.73045  0.76289  1.0000
  C   C1131     1.0  0.87441  0.64336  0.60470  1.0000
  C   C1132     1.0  0.75621  0.71523  0.71301  1.0000
  H   H1922     1.0  0.69142  0.72236  0.69350  1.0000
  N   N81       1.0  0.91066  0.73279  0.79402  1.0000
  H   H1923     1.0  0.71426  0.52014  0.93318  1.0000
  C   C1133     1.0  0.65707  0.49824  0.90657  1.0000
  H   H1924     1.0  0.85727  0.63369  0.65223  1.0000
  C   C1134     1.0  0.84721  0.65786  0.57466  1.0000
  H   H1925     1.0  0.83409  0.68723  0.58679  1.0000
  H   H1926     1.0  0.93899  0.56742  0.90541  1.0000
  C   C1135     1.0  0.70709  0.70089  0.72050  1.0000
  S   S331      1.0  0.87435  0.57867  0.96221  1.0000
  C   C1136     1.0  0.87318  0.68446  0.62210  1.0000
  H   H1927     1.0  0.80075  0.66624  0.48310  1.0000
  N   N82       1.0  0.61439  0.58514  0.86601  1.0000
  C   C1137     1.0  0.60475  0.57215  0.83427  1.0000
  C   C1138     1.0  0.62755  0.57109  0.88186  1.0000
  C   C1139     1.0  0.63489  0.61455  0.86069  1.0000
  C   C1140     1.0  0.59177  0.58450  0.81314  1.0000
  C   C1141     1.0  0.60906  0.54082  0.88876  1.0000
  S   S332      1.0  0.85534  0.67696  0.48593  1.0000
  H   H1928     1.0  0.62177  0.57272  0.82081  1.0000
  H   H1929     1.0  0.58930  0.55048  0.83651  1.0000
  H   H1930     1.0  0.64471  0.57320  0.86745  1.0000
  H   H1931     1.0  0.64735  0.61698  0.83950  1.0000
  H   H1932     1.0  0.62466  0.62636  0.85569  1.0000
  H   H1933     1.0  0.67000  0.62214  0.88967  1.0000
  H   H1934     1.0  0.87862  0.70507  0.61400  1.0000
  H   H1935     1.0  0.85463  0.70583  0.84373  1.0000
  H   H1936     1.0  0.57194  0.58048  0.82230  1.0000
  H   H1937     1.0  0.51647  0.68291  0.65099  1.0000
  C   C1142     1.0  0.65544  0.62952  0.88713  1.0000
  H   H1938     1.0  0.72235  0.70685  0.78307  1.0000
  C   C1143     1.0  0.77474  0.51319  0.80034  1.0000
  C   C1144     1.0  0.78278  0.52053  0.90877  1.0000
  C   C1145     1.0  0.71990  0.67096  0.69497  1.0000
  H   H1939     1.0  0.77687  0.57408  0.88382  1.0000
  H   H1940     1.0  0.79987  0.53168  0.92532  1.0000
  H   H1941     1.0  0.94552  0.70960  0.78231  1.0000
  H   H1942     1.0  0.68100  0.55595  0.96721  1.0000
  H   H1943     1.0  0.82952  0.65550  0.63333  1.0000
  H   H1944     1.0  0.75974  0.67385  0.68836  1.0000
  H   H1945     1.0  0.90115  0.72799  0.84389  1.0000
  C   C1146     1.0  0.76355  0.74352  0.72510  1.0000
  H   H1946     1.0  0.72097  0.72408  0.67615  1.0000
  H   H1947     1.0  0.92567  0.71749  0.60331  1.0000
  H   H1948     1.0  0.89888  0.69444  0.77157  1.0000
  H   H1949     1.0  0.83207  0.50118  0.89110  1.0000
  C   C1147     1.0  0.98471  0.67900  0.55598  1.0000
  H   H1950     1.0  0.68725  0.68375  0.72783  1.0000
  H   H1951     1.0  0.89786  0.67108  0.55540  1.0000
  C   C1148     1.0  0.73817  0.65839  0.69128  1.0000
  H   H1952     1.0  0.76008  0.71757  0.68731  1.0000
  C   C1149     1.0  0.95323  0.62359  0.95817  1.0000
  H   H1953     1.0  0.89444  0.64955  0.61520  1.0000
  H   H1954     1.0  0.70970  0.51907  0.85931  1.0000
  H   H1955     1.0  0.58804  0.57497  0.78962  1.0000
  C   C1150     1.0  0.90363  0.71520  0.76521  1.0000
  H   H1956     1.0  0.50767  0.73657  0.54480  1.0000
  H   H1957     1.0  0.85649  0.60643  0.63166  1.0000
  H   H1958     1.0  0.60076  0.61257  0.92069  1.0000
  H   H1959     1.0  0.58225  0.59421  0.87249  1.0000
  H   H1960     1.0  0.84125  0.68975  0.64364  1.0000
  H   H1961     1.0  0.70705  0.66115  0.75480  1.0000
  H   H1962     1.0  0.71974  0.67929  0.67151  1.0000
  H   H1963     1.0  0.92239  0.57368  0.93656  1.0000
  H   H1964     1.0  0.92900  0.68780  0.60514  1.0000
  H   H1965     1.0  0.73055  0.68401  0.80126  1.0000
  H   H1966     1.0  0.93750  0.74303  0.53456  1.0000
  C   C1151     1.0  0.66363  0.51310  0.96045  1.0000
  H   H1967     1.0  0.96900  0.72918  0.81184  1.0000
  H   H1968     1.0  0.73585  0.64491  0.71106  1.0000
  H   H1969     1.0  0.88588  0.73161  0.73225  1.0000
  Fe  Fe166     1.0  0.56012  0.73650  0.73053  1.0000
  H   H1970     1.0  0.57525  0.57890  0.93137  1.0000
  C   C1152     1.0  0.89619  0.68414  0.57356  1.0000
  H   H1971     1.0  0.75094  0.51257  0.86101  1.0000
  C   C1153     1.0  0.72783  0.49937  0.78952  1.0000
  H   H1972     1.0  0.82914  0.64095  0.58561  1.0000
  C   C1154     1.0  0.74407  0.51920  0.88191  1.0000
  H   H1973     1.0  0.85111  0.67022  0.66656  1.0000
  C   C1155     1.0  0.82757  0.73213  0.74858  1.0000
  H   H1974     1.0  0.71186  0.71692  0.73805  1.0000
  H   H1975     1.0  0.75653  0.71181  0.78111  1.0000
  H   H1976     1.0  0.75958  0.74400  0.75032  1.0000
  C   C1156     1.0  0.96129  0.57457  0.94917  1.0000
  H   H1977     1.0  0.82750  0.57178  0.90256  1.0000
  H   H1978     1.0  0.89367  0.69929  0.56017  1.0000
  C   C1157     1.0  0.72948  0.53388  0.86966  1.0000
  H   H1979     1.0  0.84038  0.73813  0.49579  1.0000
  H   H1980     1.0  0.93552  0.70455  0.82322  1.0000
  H   H1981     1.0  0.64580  0.62825  0.90994  1.0000
  C   C1158     1.0  0.84721  0.67404  0.64213  1.0000
  H   H1982     1.0  0.62054  0.53368  0.90298  1.0000
  C   C1159     1.0  0.89312  0.71709  0.82136  1.0000
  H   H1983     1.0  0.85860  0.72312  0.80867  1.0000
  H   H1984     1.0  0.83245  0.61615  0.62148  1.0000
  H   H1985     1.0  0.96422  0.55685  0.95195  1.0000
  H   H1986     1.0  0.89633  0.72777  0.51108  1.0000
  H   H1987     1.0  0.79990  0.73563  0.50472  1.0000
  C   C1160     1.0  0.75987  0.72458  0.49103  1.0000
  C   C1161     1.0  0.97176  0.61678  0.97746  1.0000
  H   H1988     1.0  0.95328  0.61876  0.93304  1.0000
  H   H1989     1.0  0.72838  0.52699  0.97137  1.0000
  H   H1990     1.0  0.95815  0.73642  0.70884  1.0000
  H   H1991     1.0  0.65038  0.73422  0.49164  1.0000
  H   H1992     1.0  0.99178  0.62808  0.96583  1.0000
  H   H1993     1.0  0.93235  0.61380  0.96727  1.0000
  C   C1162     1.0  0.84230  0.49733  0.96887  1.0000
  H   H1994     1.0  0.72760  0.50026  0.94922  1.0000
  C   C1163     1.0  0.98874  0.62531  0.67516  1.0000
  H   H1995     1.0  0.76025  0.74378  0.49578  1.0000
  C   C1164     1.0  0.78804  0.72883  0.48263  1.0000
  N   N83       1.0  0.96313  0.58733  0.98071  1.0000
  H   H1996     1.0  0.49477  0.73698  0.80932  1.0000
  C   C1165     1.0  0.49465  0.67836  0.56394  1.0000
  C   C1166     1.0  0.67209  0.92485  0.35938  1.0000
  S   S333      1.0  0.68034  0.96675  0.01944  1.0000
  Fe  Fe167     1.0  0.61446  0.94806  0.06655  1.0000
  S   S334      1.0  0.61449  0.92626  0.02276  1.0000
  S   S335      1.0  0.57891  0.93531  0.10061  1.0000
  Fe  Fe168     1.0  0.65152  0.92794  0.04324  1.0000
  S   S336      1.0  0.65485  0.89034  0.03867  1.0000
  Fe  Fe169     1.0  0.64341  0.96736  0.00290  1.0000
  C   C1167     1.0  0.76674  0.76633  0.11880  1.0000
  S   S337      1.0  0.65069  0.94808  0.08793  1.0000
  Fe  Fe170     1.0  0.86543  0.76882  0.16437  1.0000
  S   S338      1.0  0.86697  0.79112  0.12034  1.0000
  C   C1168     1.0  0.97807  0.79720  0.08528  1.0000
  Fe  Fe171     1.0  0.87643  0.81585  0.20647  1.0000
  S   S339      1.0  0.88037  0.84237  0.16596  1.0000
  S   S340      1.0  0.87549  0.82599  0.25750  1.0000
  Fe  Fe172     1.0  0.84314  0.80591  0.14777  1.0000
  S   S341      1.0  0.81050  0.81561  0.13454  1.0000
  Fe  Fe173     1.0  0.90422  0.82587  0.14200  1.0000
  S   S342      1.0  0.93881  0.85107  0.10795  1.0000
  S   S343      1.0  0.83823  0.78032  0.18962  1.0000
  S   S344      1.0  0.90382  0.80254  0.18459  1.0000
  Fe  Fe174     1.0  0.79149  0.88246  0.33603  1.0000
  S   S345      1.0  0.82160  0.90131  0.37502  1.0000
  S   S346      1.0  0.79816  0.87328  0.28648  1.0000
  Fe  Fe175     1.0  0.74540  0.88002  0.37480  1.0000
  S   S347      1.0  0.77142  0.89871  0.41714  1.0000
  S   S348      1.0  0.70137  0.86678  0.36875  1.0000
  Fe  Fe176     1.0  0.80313  0.92765  0.38367  1.0000
  S   S349      1.0  0.82556  0.97378  0.38332  1.0000
  Fe  Fe177     1.0  0.78743  0.87091  0.40496  1.0000
  S   S350      1.0  0.79154  0.84455  0.44083  1.0000
  S   S351      1.0  0.77544  0.91075  0.34202  1.0000
  S   S352      1.0  0.75894  0.85026  0.36529  1.0000
  S   S353      1.0  0.65196  0.82764  0.16205  1.0000
  S   S354      1.0  0.64034  0.98928  0.04486  1.0000
  H   H1997     1.0  0.69877  0.85954  0.08833  1.0000
  H   H1998     1.0  0.90677  0.77112  0.02985  1.0000
  H   H1999     1.0  0.61635  0.78836  0.39113  1.0000
  C   C1169     1.0  0.54048  0.84833  0.12785  1.0000
  S   S355      1.0  0.62510  0.94735  0.43850  1.0000
  N   N84       1.0  0.94894  0.78379  0.07462  1.0000
  H   H2000     1.0  0.85874  0.77163  0.34637  1.0000
  S   S356      1.0  0.58921  0.87086  0.44609  1.0000
  H   H2001     1.0  0.50126  0.81023  0.12307  1.0000
  H   H2002     1.0  0.84601  0.76536  0.27519  1.0000
  N   N85       1.0  0.55873  0.84253  0.10767  1.0000
  C   C1170     1.0  0.73209  0.77053  0.46579  1.0000
  C   C1171     1.0  0.74969  0.95597  0.40815  1.0000
  C   C1172     1.0  0.50137  0.78669  0.45539  1.0000
  H   H2003     1.0  0.95579  0.77471  0.14016  1.0000
  Fe  Fe178     1.0  0.59835  0.91024  0.46875  1.0000
  H   H2004     1.0  0.72913  0.86911  0.02586  1.0000
  C   C1173     1.0  0.74189  0.76759  0.41129  1.0000
  H   H2005     1.0  0.73809  0.75590  0.39010  1.0000
  H   H2006     1.0  0.58207  0.80697  0.12080  1.0000
  H   H2007     1.0  0.66965  0.90803  0.10299  1.0000
  C   C1174     1.0  0.97983  0.77810  0.42269  1.0000
  C   C1175     1.0  0.68300  0.86040  0.40365  1.0000
  C   C1176     1.0  0.69471  0.86108  0.43266  1.0000
  H   H2008     1.0  0.85160  0.91390  0.31211  1.0000
  C   C1177     1.0  0.65341  0.85253  0.45905  1.0000
  C   C1178     1.0  0.64154  0.85116  0.43000  1.0000
  C   C1179     1.0  0.65623  0.85484  0.40235  1.0000
  H   H2009     1.0  0.71515  0.86474  0.43385  1.0000
  H   H2010     1.0  0.53880  0.79596  0.43305  1.0000
  H   H2011     1.0  0.62090  0.84690  0.42877  1.0000
  H   H2012     1.0  0.64694  0.85389  0.37994  1.0000
  C   C1180     1.0  0.76603  0.81051  0.43891  1.0000
  H   H2013     1.0  0.71572  0.91867  0.39266  1.0000
  H   H2014     1.0  0.84862  0.81025  0.46449  1.0000
  H   H2015     1.0  0.72530  0.77659  0.21738  1.0000
  H   H2016     1.0  0.71571  0.94323  0.45781  1.0000
  C   C1181     1.0  0.76103  0.79537  0.41136  1.0000
  C   C1182     1.0  0.61500  0.98776  0.45899  1.0000
  H   H2017     1.0  0.92162  0.76395  0.15026  1.0000
  C   C1183     1.0  0.77592  0.79131  0.13324  1.0000
  H   H2018     1.0  0.67892  0.77203  0.07349  1.0000
  H   H2019     1.0  0.62076  0.89610  0.13376  1.0000
  H   H2020     1.0  0.71739  0.85681  0.13748  1.0000
  C   C1184     1.0  0.72923  0.77990  0.14223  1.0000
  C   C1185     1.0  0.75709  0.79802  0.14496  1.0000
  H   H2021     1.0  0.71978  0.89116  0.04453  1.0000
  H   H2022     1.0  0.71498  0.78490  0.15222  1.0000
  H   H2023     1.0  0.76418  0.81727  0.15635  1.0000
  C   C1186     1.0  0.85314  0.83810  0.26578  1.0000
  C   C1187     1.0  0.84960  0.84395  0.29678  1.0000
  C   C1188     1.0  0.83228  0.85416  0.30361  1.0000
  C   C1189     1.0  0.81858  0.85876  0.27938  1.0000
  C   C1190     1.0  0.82182  0.85253  0.24851  1.0000
  C   C1191     1.0  0.83894  0.84216  0.24174  1.0000
  H   H2024     1.0  0.86057  0.84094  0.31549  1.0000
  H   H2025     1.0  0.82991  0.85889  0.32751  1.0000
  H   H2026     1.0  0.81135  0.85606  0.22961  1.0000
  H   H2027     1.0  0.84142  0.83768  0.21777  1.0000
  C   C1192     1.0  0.54333  0.91312  0.09746  1.0000
  C   C1193     1.0  0.53100  0.89965  0.06966  1.0000
  H   H2028     1.0  0.91081  0.74716  0.47602  1.0000
  C   C1194     1.0  0.97415  0.86284  0.10887  1.0000
  H   H2029     1.0  0.86801  0.75997  0.47136  1.0000
  C   C1195     1.0  0.52705  0.90838  0.12414  1.0000
  H   H2030     1.0  0.54314  0.90314  0.04889  1.0000
  C   C1196     1.0  0.80714  0.77573  0.46517  1.0000
  C   C1197     1.0  0.71117  0.98791  0.38562  1.0000
  H   H2031     1.0  0.53632  0.91869  0.14577  1.0000
  C   C1198     1.0  0.65277  0.87292  0.07342  1.0000
  C   C1199     1.0  0.64262  0.84503  0.07230  1.0000
  C   C1200     1.0  0.64129  0.83075  0.09961  1.0000
  C   C1201     1.0  0.65088  0.84444  0.12801  1.0000
  C   C1202     1.0  0.66082  0.87229  0.12914  1.0000
  C   C1203     1.0  0.66160  0.88648  0.10197  1.0000
  H   H2032     1.0  0.63561  0.83441  0.05028  1.0000
  H   H2033     1.0  0.63316  0.80922  0.09854  1.0000
  H   H2034     1.0  0.66824  0.88303  0.15103  1.0000
  C   C1204     1.0  0.88853  0.92198  0.28938  1.0000
  H   H2035     1.0  0.70621  0.82652  0.15899  1.0000
  N   N86       1.0  0.70109  0.82932  0.26791  1.0000
  C   C1205     1.0  0.69507  0.80360  0.28438  1.0000
  C   C1206     1.0  0.71027  0.82829  0.23504  1.0000
  C   C1207     1.0  0.67635  0.83228  0.26631  1.0000
  C   C1208     1.0  0.72262  0.85287  0.28592  1.0000
  C   C1209     1.0  0.68275  0.79946  0.31747  1.0000
  C   C1210     1.0  0.73944  0.83356  0.23181  1.0000
  C   C1211     1.0  0.65123  0.80852  0.25112  1.0000
  C   C1212     1.0  0.73248  0.88099  0.27136  1.0000
  H   H2036     1.0  0.68110  0.78560  0.27026  1.0000
  H   H2037     1.0  0.71379  0.80234  0.28690  1.0000
  H   H2038     1.0  0.70819  0.84257  0.21917  1.0000
  H   H2039     1.0  0.69693  0.80824  0.22442  1.0000
  H   H2040     1.0  0.67053  0.83579  0.28999  1.0000
  H   H2041     1.0  0.68064  0.85054  0.25264  1.0000
  H   H2042     1.0  0.71530  0.85378  0.30969  1.0000
  H   H2043     1.0  0.74039  0.85035  0.29057  1.0000
  H   H2044     1.0  0.67873  0.77961  0.32649  1.0000
  H   H2045     1.0  0.69680  0.81487  0.33424  1.0000
  H   H2046     1.0  0.66311  0.79898  0.31747  1.0000
  H   H2047     1.0  0.74266  0.82878  0.20753  1.0000
  H   H2048     1.0  0.75450  0.85509  0.23590  1.0000
  H   H2049     1.0  0.74368  0.82098  0.24792  1.0000
  H   H2050     1.0  0.63471  0.81339  0.25012  1.0000
  H   H2051     1.0  0.64349  0.78965  0.26481  1.0000
  H   H2052     1.0  0.65519  0.80497  0.22669  1.0000
  H   H2053     1.0  0.72310  0.89140  0.28362  1.0000
  H   H2054     1.0  0.72809  0.88054  0.24610  1.0000
  H   H2055     1.0  0.75479  0.89342  0.27379  1.0000
  N   N87       1.0  0.69916  0.94229  0.41162  1.0000
  H   H2056     1.0  0.82527  0.75487  0.32928  1.0000
  C   C1213     1.0  0.72101  0.94014  0.39420  1.0000
  C   C1214     1.0  0.67216  0.92579  0.39546  1.0000
  H   H2057     1.0  0.73432  0.87400  0.08653  1.0000
  H   H2058     1.0  0.84101  0.76192  0.43174  1.0000
  H   H2059     1.0  0.67980  0.81565  0.11118  1.0000
  H   H2060     1.0  0.60691  0.75449  0.40059  1.0000
  H   H2061     1.0  0.89617  0.91927  0.31219  1.0000
  H   H2062     1.0  0.49900  0.83848  0.13650  1.0000
  C   C1215     1.0  0.50996  0.83223  0.12009  1.0000
  C   C1216     1.0  0.51208  0.75291  0.43713  1.0000
  H   H2063     1.0  0.68363  0.80691  0.46495  1.0000
  H   H2064     1.0  0.66231  0.90437  0.40289  1.0000
  H   H2065     1.0  0.65780  0.93263  0.40253  1.0000
  H   H2066     1.0  0.57946  0.81068  0.07916  1.0000
  H   H2067     1.0  0.65498  0.80713  0.42625  1.0000
  H   H2068     1.0  0.69701  0.82036  0.02905  1.0000
  H   H2069     1.0  0.87860  0.78299  0.29192  1.0000
  C   C1217     1.0  0.56783  0.80239  0.10096  1.0000
  H   H2070     1.0  0.76395  0.95378  0.39234  1.0000
  H   H2071     1.0  0.91202  0.99254  0.36939  1.0000
  H   H2072     1.0  0.79853  0.77349  0.39788  1.0000
  C   C1218     1.0  0.51953  0.78010  0.44160  1.0000
  H   H2073     1.0  0.90052  0.76214  0.31449  1.0000
  C   C1219     1.0  0.75781  0.75360  0.20777  1.0000
  C   C1220     1.0  0.71519  0.85879  0.07508  1.0000
  H   H2074     1.0  0.78114  0.76115  0.10939  1.0000
  H   H2075     1.0  0.69386  0.85887  0.03217  1.0000
  H   H2076     1.0  0.85502  0.97986  0.31763  1.0000
  H   H2077     1.0  0.75684  0.97778  0.40985  1.0000
  H   H2078     1.0  0.52575  0.74794  0.42524  1.0000
  H   H2079     1.0  0.98162  0.81137  0.10495  1.0000
  H   H2080     1.0  0.65083  0.91470  0.35101  1.0000
  H   H2081     1.0  0.69555  0.91041  0.44203  1.0000
  H   H2082     1.0  0.63794  0.77588  0.37934  1.0000
  C   C1221     1.0  0.89219  0.97735  0.27957  1.0000
  H   H2083     1.0  0.93562  0.79982  0.11224  1.0000
  H   H2084     1.0  0.73894  0.83277  0.02159  1.0000
  C   C1222     1.0  0.91571  0.79135  0.04070  1.0000
  H   H2085     1.0  0.88977  0.98782  0.23106  1.0000
  C   C1223     1.0  0.94016  0.75641  0.06081  1.0000
  H   H2086     1.0  0.68095  0.91261  0.35082  1.0000
  C   C1224     1.0  0.84931  0.95919  0.30973  1.0000
  C   C1225     1.0  0.84768  0.75545  0.47942  1.0000
  C   C1226     1.0  0.83065  0.80054  0.44894  1.0000
  H   H2087     1.0  0.95750  0.80628  0.03084  1.0000
  H   H2088     1.0  0.67162  0.81047  0.05759  1.0000
  H   H2089     1.0  0.89799  0.75149  0.22600  1.0000
  C   C1227     1.0  0.88928  0.96220  0.33400  1.0000
  H   H2090     1.0  0.53895  0.80371  0.13105  1.0000
  H   H2091     1.0  0.65826  0.75400  0.40030  1.0000
  H   H2092     1.0  0.76653  0.83217  0.03881  1.0000
  H   H2093     1.0  0.72265  0.98235  0.43221  1.0000
  H   H2094     1.0  0.95188  0.82183  0.06301  1.0000
  H   H2095     1.0  0.87706  0.94633  0.35160  1.0000
  C   C1228     1.0  0.55851  0.85259  0.07510  1.0000
  H   H2096     1.0  0.98083  0.88236  0.06398  1.0000
  H   H2097     1.0  0.54627  0.86993  0.12635  1.0000
  H   H2098     1.0  0.53794  0.84128  0.06477  1.0000
  H   H2099     1.0  0.56262  0.87375  0.07530  1.0000
  C   C1229     1.0  0.62446  0.77514  0.39844  1.0000
  H   H2100     1.0  0.89784  0.77705  0.24963  1.0000
  S   S357      1.0  0.63108  0.75862  0.11545  1.0000
  H   H2101     1.0  0.56747  0.83029  0.03966  1.0000
  C   C1230     1.0  0.69718  0.93054  0.44383  1.0000
  H   H2102     1.0  0.68063  0.75752  0.43074  1.0000
  N   N88       1.0  0.80279  0.74831  0.45625  1.0000
  H   H2103     1.0  0.62469  0.78606  0.44637  1.0000
  C   C1231     1.0  0.77803  0.78213  0.22004  1.0000
  H   H2104     1.0  0.97450  0.84566  0.15350  1.0000
  N   N89       1.0  0.87404  0.95682  0.30346  1.0000
  H   H2105     1.0  0.70727  0.80758  0.42359  1.0000
  H   H2106     1.0  0.76542  0.86308  0.03973  1.0000
  H   H2107     1.0  0.67436  0.94620  0.46993  1.0000
  N   N90       1.0  0.71205  0.83098  0.07695  1.0000
  H   H2108     1.0  0.90814  0.96128  0.33078  1.0000
  C   C1232     1.0  0.97175  0.75064  0.42603  1.0000
  H   H2109     1.0  0.79521  0.78231  0.23241  1.0000
  H   H2110     1.0  0.78693  0.79623  0.20003  1.0000
  H   H2111     1.0  0.76847  0.79029  0.23583  1.0000
  H   H2112     1.0  0.74624  0.75606  0.18856  1.0000
  C   C1233     1.0  0.68760  0.78357  0.05165  1.0000
  S   S358      1.0  0.66303  0.76829  0.18142  1.0000
  H   H2113     1.0  0.72348  0.98457  0.36820  1.0000
  H   H2114     1.0  0.70477  0.78924  0.38889  1.0000
  C   C1234     1.0  0.99013  0.87770  0.08322  1.0000
  H   H2115     1.0  0.83918  0.96891  0.26364  1.0000
  H   H2116     1.0  0.81632  0.75495  0.39013  1.0000
  Fe  Fe179     1.0  0.54959  0.85231  0.47184  1.0000
  H   H2117     1.0  0.98290  0.78200  0.09476  1.0000
  H   H2118     1.0  0.91345  0.98201  0.28295  1.0000
  H   H2119     1.0  0.78838  0.77664  0.46106  1.0000
  H   H2120     1.0  0.88075  0.99043  0.36013  1.0000
  C   C1235     1.0  0.72746  0.75517  0.43863  1.0000
  H   H2121     1.0  0.76783  0.75305  0.27029  1.0000
  H   H2122     1.0  0.77233  0.80497  0.39035  1.0000
  H   H2123     1.0  0.75386  0.84723  0.09061  1.0000
  H   H2124     1.0  0.58196  0.86582  0.03215  1.0000
  S   S359      1.0  0.50797  0.82021  0.45610  1.0000
  C   C1236     1.0  0.57723  0.85053  0.05071  1.0000
  H   H2125     1.0  0.54262  0.84457  0.15301  1.0000
  H   H2126     1.0  0.60233  0.89678  0.10044  1.0000
  C   C1237     1.0  0.60009  0.88782  0.12398  1.0000
  H   H2127     1.0  0.72939  0.75619  0.26595  1.0000
  C   C1238     1.0  0.75302  0.84080  0.04160  1.0000
  C   C1239     1.0  0.73884  0.74872  0.11484  1.0000
  H   H2128     1.0  0.86459  0.95416  0.23935  1.0000
  H   H2129     1.0  0.53084  0.80227  0.09060  1.0000
  H   H2130     1.0  0.58924  0.89464  0.13968  1.0000
  H   H2131     1.0  0.67286  0.77218  0.03279  1.0000
  H   H2132     1.0  0.68845  0.97163  0.42725  1.0000
  Fe  Fe180     1.0  0.63762  0.78312  0.15871  1.0000
  C   C1240     1.0  0.58650  0.85690  0.12227  1.0000
  C   C1241     1.0  0.67330  0.92681  0.46431  1.0000
  H   H2133     1.0  0.84752  0.78996  0.32298  1.0000
  C   C1242     1.0  0.66901  0.78568  0.47137  1.0000
  H   H2134     1.0  0.73794  0.81316  0.08088  1.0000
  H   H2135     1.0  0.65343  0.91287  0.45359  1.0000
  H   H2136     1.0  0.59712  0.85549  0.06022  1.0000
  H   H2137     1.0  0.91593  0.80532  0.02251  1.0000
  H   H2138     1.0  0.55648  0.78009  0.09843  1.0000
  C   C1243     1.0  0.54773  0.81240  0.10771  1.0000
  C   C1244     1.0  0.71675  0.83714  0.13722  1.0000
  C   C1245     1.0  0.94491  0.80179  0.05213  1.0000
  H   H2139     1.0  0.60095  0.85268  0.10977  1.0000
  H   H2140     1.0  0.58575  0.84938  0.14652  1.0000
  H   H2141     1.0  0.95759  0.77139  0.01348  1.0000
  H   H2142     1.0  0.73749  0.84029  0.13857  1.0000
  H   H2143     1.0  0.75118  0.94789  0.43118  1.0000
  H   H2144     1.0  0.72282  0.94675  0.36952  1.0000
  C   C1246     1.0  0.89542  0.75662  0.25039  1.0000
  H   H2145     1.0  0.90552  0.93761  0.27554  1.0000
  H   H2146     1.0  0.88065  0.90264  0.27648  1.0000
  C   C1247     1.0  0.67984  0.85695  0.46034  1.0000
  H   H2147     1.0  0.68268  0.94505  0.34856  1.0000
  C   C1248     1.0  0.82981  0.95338  0.28216  1.0000
  C   C1249     1.0  0.93161  0.77996  0.10303  1.0000
  C   C1250     1.0  0.67029  0.76751  0.41988  1.0000
  H   H2148     1.0  0.91193  0.75703  0.26442  1.0000
  C   C1251     1.0  0.69173  0.81233  0.05317  1.0000
  H   H2149     1.0  0.82457  0.81601  0.44542  1.0000
  N   N91       1.0  0.65220  0.77036  0.44340  1.0000
  H   H2150     1.0  0.89952  0.96313  0.23471  1.0000
  C   C1252     1.0  0.71454  0.86975  0.04230  1.0000
  H   H2151     1.0  0.90981  0.76879  0.09692  1.0000
  H   H2152     1.0  0.69936  0.79973  0.11219  1.0000
  H   H2153     1.0  0.85328  0.92201  0.27237  1.0000
  H   H2154     1.0  0.90252  0.79136  0.05975  1.0000
  C   C1253     1.0  0.70560  0.97103  0.41564  1.0000
  C   C1254     1.0  0.98647  0.85700  0.13358  1.0000
  C   C1255     1.0  0.86542  0.92823  0.29412  1.0000
  C   C1256     1.0  0.85825  0.76494  0.29526  1.0000
  H   H2155     1.0  0.83730  0.94554  0.32921  1.0000
  H   H2156     1.0  0.83658  0.79686  0.42569  1.0000
  C   C1257     1.0  0.84673  0.77026  0.32539  1.0000
  C   C1258     1.0  0.73903  0.83241  0.07377  1.0000
  H   H2157     1.0  0.50551  0.83658  0.09625  1.0000
  H   H2158     1.0  0.69317  0.75779  0.23597  1.0000
  H   H2159     1.0  0.83200  0.96758  0.45054  1.0000
  H   H2160     1.0  0.68480  0.80509  0.39237  1.0000
  C   C1259     1.0  0.75161  0.79793  0.46609  1.0000
  H   H2161     1.0  0.96504  0.78388  0.41662  1.0000
  H   H2162     1.0  0.70654  0.78362  0.04585  1.0000
  C   C1260     1.0  0.50280  0.88181  0.06865  1.0000
  C   C1261     1.0  0.69288  0.79404  0.40562  1.0000
  C   C1262     1.0  0.70084  0.81960  0.10887  1.0000
  C   C1263     1.0  0.63007  0.98059  0.43953  1.0000
  C   C1264     1.0  0.89814  0.98968  0.34967  1.0000
  H   H2163     1.0  0.76990  0.74570  0.19606  1.0000
  H   H2164     1.0  0.81207  0.95454  0.29081  1.0000
  C   C1265     1.0  0.63954  0.78572  0.42979  1.0000
  Fe  Fe181     1.0  0.67637  0.98702  0.06221  1.0000
  H   H2165     1.0  0.82173  0.93288  0.27236  1.0000
  C   C1266     1.0  0.93489  0.76460  0.13085  1.0000
  C   C1267     1.0  0.79688  0.75339  0.39684  1.0000
  C   C1268     1.0  0.82883  0.74817  0.45082  1.0000
  C   C1269     1.0  0.88567  0.96960  0.24459  1.0000
  C   C1270     1.0  0.84121  0.98884  0.44529  1.0000
  H   H2166     1.0  0.69198  0.98420  0.37468  1.0000
  C   C1271     1.0  0.95412  0.75542  0.03041  1.0000
  C   C1272     1.0  0.49885  0.89047  0.12315  1.0000
  H   H2167     1.0  0.59984  0.97285  0.47433  1.0000
  S   S360      1.0  0.59941  0.75270  0.18224  1.0000
  C   C1273     1.0  0.72000  0.75558  0.12620  1.0000
  C   C1274     1.0  0.70932  0.75596  0.22373  1.0000
  H   H2168     1.0  0.96969  0.79538  0.47536  1.0000
  H   H2169     1.0  0.97345  0.75598  0.03555  1.0000
  H   H2170     1.0  0.98364  0.84292  0.47518  1.0000
  H   H2171     1.0  0.79126  0.99442  0.45887  1.0000
  H   H2172     1.0  0.68180  0.77724  0.47950  1.0000
  H   H2173     1.0  0.66128  0.99496  0.40438  1.0000
  Fe  Fe182     1.0  0.80081  0.97319  0.84406  1.0000
  C   C1275     1.0  0.97946  0.86970  0.57567  1.0000
  Fe  Fe183     1.0  0.75378  0.93085  0.80543  1.0000
  S   S361      1.0  0.77427  0.94864  0.75968  1.0000
  S   S362      1.0  0.71346  0.89293  0.81323  1.0000
  Fe  Fe184     1.0  0.81143  0.95179  0.78236  1.0000
  S   S363      1.0  0.83733  0.94202  0.74979  1.0000
  H   H2174     1.0  0.51322  0.76303  0.51864  1.0000
  S   S364      1.0  0.79003  0.93161  0.82709  1.0000
  S   S365      1.0  0.76279  0.97061  0.82595  1.0000
  Fe  Fe185     1.0  0.57479  0.88201  0.53165  1.0000
  S   S366      1.0  0.56666  0.88391  0.58304  1.0000
  Fe  Fe186     1.0  0.88888  0.83410  0.72012  1.0000
  S   S367      1.0  0.87209  0.81292  0.67406  1.0000
  S   S368      1.0  0.86812  0.84896  0.75421  1.0000
  Fe  Fe187     1.0  0.93301  0.81782  0.72013  1.0000
  S   S369      1.0  0.91868  0.79492  0.67521  1.0000
  S   S370      1.0  0.97047  0.82338  0.74479  1.0000
  Fe  Fe188     1.0  0.91578  0.83055  0.65921  1.0000
  S   S371      1.0  0.93355  0.84887  0.61188  1.0000
  Fe  Fe189     1.0  0.87680  0.77928  0.69435  1.0000
  H   H2175     1.0  0.50521  0.90219  0.59326  1.0000
  S   S372      1.0  0.93214  0.85456  0.70353  1.0000
  S   S373      1.0  0.89155  0.79927  0.74094  1.0000
  S   S374      1.0  0.64268  0.82444  0.69765  1.0000
  C   C1276     1.0  0.50938  0.76429  0.73634  1.0000
  S   S375      1.0  0.82545  0.99361  0.80131  1.0000
  N   N92       1.0  0.60513  0.82393  0.60281  1.0000
  H   H2176     1.0  0.94941  0.75101  0.49609  1.0000
  C   C1277     1.0  0.71726  0.91881  0.89313  1.0000
  H   H2177     1.0  0.61737  0.87938  0.61637  1.0000
  C   C1278     1.0  0.57416  0.82949  0.64287  1.0000
  S   S376      1.0  0.57100  0.76169  0.68735  1.0000
  H   H2178     1.0  0.60993  0.85429  0.82283  1.0000
  C   C1279     1.0  0.53245  0.86369  0.59339  1.0000
  C   C1280     1.0  0.52485  0.85987  0.62505  1.0000
  H   H2179     1.0  0.75551  0.80948  0.48745  1.0000
  H   H2180     1.0  0.66788  0.79938  0.51850  1.0000
  C   C1281     1.0  0.49605  0.77948  0.73800  1.0000
  C   C1282     1.0  0.97110  0.75503  0.72112  1.0000
  H   H2181     1.0  0.54014  0.86937  0.64299  1.0000
  Fe  Fe190     1.0  0.78658  0.98870  0.78221  1.0000
  H   H2182     1.0  0.51832  0.85413  0.54582  1.0000
  H   H2183     1.0  0.58784  0.82219  0.71282  1.0000
  C   C1283     1.0  0.63130  0.82348  0.60114  1.0000
  C   C1284     1.0  0.51266  0.85132  0.57030  1.0000
  S   S377      1.0  0.63544  0.84851  0.49385  1.0000
  C   C1285     1.0  0.96540  0.85314  0.60121  1.0000
  C   C1286     1.0  0.84700  0.91696  0.75215  1.0000
  C   C1287     1.0  0.85918  0.91241  0.72597  1.0000
  C   C1288     1.0  0.86631  0.89210  0.72630  1.0000
  C   C1289     1.0  0.86141  0.87612  0.75295  1.0000
  C   C1290     1.0  0.84945  0.88085  0.77922  1.0000
  C   C1291     1.0  0.84223  0.90109  0.77885  1.0000
  H   H2184     1.0  0.86297  0.92458  0.70520  1.0000
  H   H2185     1.0  0.87541  0.88869  0.70589  1.0000
  H   H2186     1.0  0.84561  0.86865  0.79998  1.0000
  H   H2187     1.0  0.83304  0.90444  0.79922  1.0000
  C   C1292     1.0  0.69355  0.87460  0.78096  1.0000
  C   C1293     1.0  0.69784  0.88600  0.75110  1.0000
  C   C1294     1.0  0.68181  0.87057  0.72579  1.0000
  C   C1295     1.0  0.66175  0.84355  0.73009  1.0000
  C   C1296     1.0  0.65750  0.83222  0.75998  1.0000
  C   C1297     1.0  0.67319  0.84775  0.78535  1.0000
  H   H2188     1.0  0.71337  0.90676  0.74753  1.0000
  H   H2189     1.0  0.68521  0.87952  0.70274  1.0000
  H   H2190     1.0  0.64225  0.81144  0.76362  1.0000
  H   H2191     1.0  0.66983  0.83878  0.80839  1.0000
  H   H2192     1.0  0.72663  0.90596  0.89050  1.0000
  H   H2193     1.0  0.63868  0.82577  0.57656  1.0000
  H   H2194     1.0  0.62705  0.87237  0.75413  1.0000
  N   N93       1.0  0.75786  0.84704  0.74992  1.0000
  C   C1298     1.0  0.77611  0.83795  0.76438  1.0000
  C   C1299     1.0  0.74575  0.85511  0.77623  1.0000
  C   C1300     1.0  0.77542  0.87167  0.73041  1.0000
  C   C1301     1.0  0.73688  0.82442  0.73001  1.0000
  C   C1302     1.0  0.79195  0.83026  0.74123  1.0000
  C   C1303     1.0  0.73102  0.83365  0.80181  1.0000
  C   C1304     1.0  0.76137  0.88524  0.71393  1.0000
  C   C1305     1.0  0.70950  0.82325  0.72557  1.0000
  H   H2195     1.0  0.79103  0.85372  0.78041  1.0000
  H   H2196     1.0  0.76434  0.81975  0.77916  1.0000
  H   H2197     1.0  0.73120  0.86088  0.76732  1.0000
  H   H2198     1.0  0.76164  0.87359  0.78823  1.0000
  H   H2199     1.0  0.79171  0.88738  0.74519  1.0000
  H   H2200     1.0  0.78579  0.86710  0.71140  1.0000
  H   H2201     1.0  0.74510  0.82491  0.70622  1.0000
  H   H2202     1.0  0.73174  0.80440  0.73985  1.0000
  H   H2203     1.0  0.80804  0.84810  0.72891  1.0000
  H   H2204     1.0  0.80248  0.82155  0.75460  1.0000
  H   H2205     1.0  0.77860  0.81494  0.72396  1.0000
  H   H2206     1.0  0.71800  0.81324  0.79197  1.0000
  H   H2207     1.0  0.74572  0.83314  0.81840  1.0000
  H   H2208     1.0  0.71799  0.83912  0.81568  1.0000
  H   H2209     1.0  0.74939  0.89031  0.73001  1.0000
  H   H2210     1.0  0.74889  0.87295  0.69398  1.0000
  H   H2211     1.0  0.77719  0.90468  0.70386  1.0000
  H   H2212     1.0  0.68234  0.90165  0.94925  1.0000
  H   H2213     1.0  0.69729  0.80754  0.70795  1.0000
  H   H2214     1.0  0.71152  0.84233  0.71704  1.0000
  N   N94       1.0  0.57772  0.83775  0.78855  1.0000
  C   C1306     1.0  0.56887  0.85746  0.79861  1.0000
  C   C1307     1.0  0.60715  0.84988  0.79725  1.0000
  C   C1308     1.0  0.56073  0.81175  0.80625  1.0000
  C   C1309     1.0  0.57306  0.83341  0.75378  1.0000
  C   C1310     1.0  0.53837  0.84765  0.79542  1.0000
  H   H2215     1.0  0.95794  0.81445  0.55716  1.0000
  C   C1311     1.0  0.57213  0.79252  0.81013  1.0000
  C   C1312     1.0  0.58314  0.81605  0.73771  1.0000
  H   H2216     1.0  0.85003  0.77338  0.49208  1.0000
  C   C1313     1.0  0.59992  0.82777  0.63648  1.0000
  H   H2217     1.0  0.61469  0.83567  0.79339  1.0000
  C   C1314     1.0  0.60782  0.84673  0.58259  1.0000
  H   H2218     1.0  0.55671  0.81595  0.83056  1.0000
  H   H2219     1.0  0.54054  0.79990  0.79512  1.0000
  H   H2220     1.0  0.55109  0.82327  0.74843  1.0000
  H   H2221     1.0  0.58148  0.85286  0.74089  1.0000
  H   H2222     1.0  0.51632  0.80067  0.59061  1.0000
  S   S378      1.0  0.62091  0.74925  0.67892  1.0000
  C   C1315     1.0  0.91099  0.74806  0.50203  1.0000
  H   H2223     1.0  0.96562  0.82618  0.63611  1.0000
  H   H2224     1.0  0.62391  0.79442  0.63930  1.0000
  H   H2225     1.0  0.92280  0.78484  0.59256  1.0000
  C   C1316     1.0  0.73061  0.93814  0.92104  1.0000
  H   H2226     1.0  0.55611  0.77318  0.82017  1.0000
  H   H2227     1.0  0.58932  0.80075  0.82683  1.0000
  H   H2228     1.0  0.61778  0.77979  0.60075  1.0000
  H   H2229     1.0  0.60217  0.81870  0.74748  1.0000
  H   H2230     1.0  0.93847  0.78780  0.81983  1.0000
  H   H2231     1.0  0.72967  0.95821  0.97737  1.0000
  H   H2232     1.0  0.65145  0.80119  0.61426  1.0000
  H   H2233     1.0  0.49859  0.91411  0.64101  1.0000
  H   H2234     1.0  0.53150  0.84387  0.77072  1.0000
  H   H2235     1.0  0.68900  0.85773  0.48277  1.0000
  H   H2236     1.0  0.58783  0.84482  0.57771  1.0000
  H   H2237     1.0  0.94608  0.77242  0.71089  1.0000
  H   H2238     1.0  0.62867  0.89028  0.57751  1.0000
  S   S379      1.0  0.56534  0.84153  0.51399  1.0000
  H   H2239     1.0  0.72382  0.98430  0.96543  1.0000
  H   H2240     1.0  0.57811  0.84394  0.66224  1.0000
  H   H2241     1.0  0.98717  0.86388  0.68155  1.0000
  H   H2242     1.0  0.72907  0.92584  0.94193  1.0000
  H   H2243     1.0  0.74769  0.98450  0.89323  1.0000
  H   H2244     1.0  0.58402  0.80424  0.54005  1.0000
  H   H2245     1.0  0.68245  0.95522  0.94139  1.0000
  H   H2246     1.0  0.91303  0.79455  0.80645  1.0000
  H   H2247     1.0  0.49670  0.79165  0.71831  1.0000
  C   C1317     1.0  0.58441  0.79001  0.55733  1.0000
  C   C1318     1.0  0.68972  0.94153  0.93305  1.0000
  H   H2248     1.0  0.65687  0.90956  0.95968  1.0000
  H   H2249     1.0  0.75290  0.75206  0.71186  1.0000
  C   C1319     1.0  0.94324  0.79437  0.54761  1.0000
  S   S380      1.0  0.61677  0.90318  0.51173  1.0000
  S   S381      1.0  0.81010  0.98683  0.89479  1.0000
  H   H2250     1.0  0.64760  0.84102  0.61393  1.0000
  H   H2251     1.0  0.77474  0.97965  0.95358  1.0000
  H   H2252     1.0  0.64187  0.79777  0.49413  1.0000
  C   C1320     1.0  0.62699  0.87589  0.77967  1.0000
  C   C1321     1.0  0.91667  0.77807  0.81398  1.0000
  H   H2253     1.0  0.60291  0.78870  0.55371  1.0000
  H   H2254     1.0  0.56759  0.83700  0.62280  1.0000
  H   H2255     1.0  0.52556  0.82942  0.80962  1.0000
  C   C1322     1.0  0.96422  0.77539  0.72230  1.0000
  C   C1323     1.0  0.63068  0.79817  0.61467  1.0000
  H   H2256     1.0  0.62314  0.89271  0.78415  1.0000
  S   S382      1.0  0.64618  0.97968  0.95188  1.0000
  H   H2257     1.0  0.67887  0.93307  0.91058  1.0000
  H   H2258     1.0  0.55713  0.80944  0.64971  1.0000
  C   C1324     1.0  0.97631  0.83921  0.61666  1.0000
  H   H2259     1.0  0.52152  0.77082  0.55890  1.0000
  C   C1325     1.0  0.67905  0.91824  0.95700  1.0000
  C   C1326     1.0  0.62638  0.87531  0.59553  1.0000
  C   C1327     1.0  0.58174  0.79787  0.59117  1.0000
  S   S383      1.0  0.55677  0.89219  0.49068  1.0000
  C   C1328     1.0  0.49755  0.84372  0.63357  1.0000
  C   C1329     1.0  0.76400  0.99118  0.95617  1.0000
  H   H2260     1.0  0.97114  0.88047  0.56348  1.0000
  H   H2261     1.0  0.64686  0.87894  0.60115  1.0000
  C   C1330     1.0  0.72620  0.97568  0.90067  1.0000
  S   S384      1.0  0.60256  0.75687  0.74902  1.0000
  H   H2262     1.0  0.72079  0.92983  0.87074  1.0000
  H   H2263     1.0  0.88856  0.75284  0.77912  1.0000
  H   H2264     1.0  0.75257  0.94979  0.91545  1.0000
  H   H2265     1.0  0.94245  0.80000  0.48513  1.0000
  H   H2266     1.0  0.61581  0.84607  0.55903  1.0000
  Fe  Fe191     1.0  0.61386  0.77962  0.70391  1.0000
  H   H2267     1.0  0.56750  0.79442  0.73870  1.0000
  H   H2268     1.0  0.59786  0.81083  0.65101  1.0000
  H   H2269     1.0  0.49490  0.92660  0.58317  1.0000
  C   C1331     1.0  0.50912  0.74904  0.76222  1.0000
  H   H2270     1.0  0.53444  0.86364  0.80415  1.0000
  C   C1332     1.0  0.93080  0.77551  0.57602  1.0000
  N   N95       1.0  0.71992  0.95689  0.92811  1.0000
  H   H2271     1.0  0.78556  0.75738  0.72153  1.0000
  C   C1333     1.0  0.98009  0.79882  0.73964  1.0000
  H   H2272     1.0  0.61760  0.84557  0.64723  1.0000
  H   H2273     1.0  0.56275  0.79876  0.59187  1.0000
  H   H2274     1.0  0.57938  0.87643  0.78484  1.0000
  H   H2275     1.0  0.94510  0.75263  0.82554  1.0000
  H   H2276     1.0  0.69748  0.81732  0.74745  1.0000
  H   H2277     1.0  0.57437  0.86341  0.82357  1.0000
  H   H2278     1.0  0.56696  0.76974  0.55214  1.0000
  H   H2279     1.0  0.57824  0.78741  0.78784  1.0000
  H   H2280     1.0  0.64780  0.88275  0.78820  1.0000
  H   H2281     1.0  0.57788  0.78080  0.60691  1.0000
  H   H2282     1.0  0.69530  0.90510  0.89640  1.0000
  N   N96       1.0  0.95675  0.78576  0.52355  1.0000
  H   H2283     1.0  0.92238  0.76874  0.76675  1.0000
  H   H2284     1.0  0.71416  0.96445  0.87980  1.0000
  H   H2285     1.0  0.51984  0.76440  0.71520  1.0000
  H   H2286     1.0  0.63936  0.76726  0.51003  1.0000
  C   C1334     1.0  0.93946  0.75653  0.51479  1.0000
  H   H2287     1.0  0.92728  0.79759  0.53706  1.0000
  H   H2288     1.0  0.97264  0.84214  0.51437  1.0000
  H   H2289     1.0  0.94603  0.77278  0.58905  1.0000
  C   C1335     1.0  0.96174  0.80248  0.49449  1.0000
  H   H2290     1.0  0.97878  0.77621  0.55770  1.0000
  C   C1336     1.0  0.98283  0.78980  0.53736  1.0000
  H   H2291     1.0  0.72086  0.76107  0.48690  1.0000
  C   C1337     1.0  0.90901  0.75772  0.78691  1.0000
  C   C1338     1.0  0.50675  0.75542  0.54286  1.0000
  H   H2292     1.0  0.91357  0.75567  0.56915  1.0000
  H   H2293     1.0  0.95378  0.75691  0.78534  1.0000
  C   C1339     1.0  0.73312  0.97225  0.95767  1.0000
  H   H2294     1.0  0.83971  0.75380  0.74912  1.0000
  H   H2295     1.0  0.81124  0.77916  0.49077  1.0000
  Fe  Fe192     1.0  0.60557  0.86330  0.49023  1.0000
  H   H2296     1.0  0.90323  0.76145  0.50923  1.0000
  C   C1340     1.0  0.65323  0.78731  0.49984  1.0000
  H   H2297     1.0  0.50614  0.79621  0.63105  1.0000
  H   H2298     1.0  0.67395  0.91755  0.48691  1.0000
  C   C1341     1.0  0.98104  0.83301  0.49829  1.0000
  H   H2299     1.0  0.69914  0.99181  0.91191  1.0000
  H   H2300     1.0  0.51443  0.77339  0.61405  1.0000
  H   H2301     1.0  0.90413  0.76880  0.83509  1.0000
  H   H2302     1.0  0.99177  0.76359  0.50737  1.0000
  H   H2303     1.0  0.99229  0.89686  0.68650  1.0000
  C   C1342     1.0  0.50466  0.78541  0.60887  1.0000
  H   H2304     1.0  0.68793  0.92505  0.98058  1.0000
  C   C1343     1.0  0.99405  0.75817  0.73682  1.0000
  C   C1344     1.0  0.49518  0.74875  0.78929  1.0000
