data_image0
_chemical_formula_structural       HCHFeH2CH2CS2HSHFeSCFeSHCHFeHFeC2SC7H3C6SH2CSHC2H6FeCHSH11NH2C2HC2H3FeSH4CHCH2CHNSHC2HCH5CHCHNH2CSH2CH12CHC2H3CHC2H10NC4H3CHFeSHFeHNSFeS2CH2FeSH2CHC4H2C5HS2HCFeSH7S2C2H2C3H2S2H2C3HCFeHC3H3NH5C2FeSFeS2FeSFeS4FeS2FeS2FeSFeS3C7H5C6H4CHCHC4H2CH7C2H6CH3CH4CH5C2HCH2CHCNHCH3C2H6CH2CHSNHCNH3FeH5CHCHCHCH5CH2CHCH4CH3C3HCH4C2H3C3HCSHCHFeHC2H2CHCH3CH9CHCH2CHCHCNCSCH2CHC6HCHSCH4CH4NHCSCH9FeS2FeS2FeSFeS4FeS2FeS2FeSFeS3H3C6H4C8H6CH6C3H6FeC2HCSHNC4HCH10C2H3C4SCHNH2C2NC6FeCH13NHSCH2SCHCH5CH6CH5C2H5NHC3FeH2C3HCHC3H2CHC3H4CH3C3HC2HCH5CH2SCH9C2H4CH2SHFeS3CFeSFeSHFeS2HFeSHSHC6H4C6H10CSH3CHFeNH4CH2CH2C3HSNH3CH2CHCH2NC8H9SH6CH2CHFeH2NH2C2H2C4HCHSHC2HC4H3SH3CH5C2H6SC2HS2CFeS3HFeSFeCSFeS2HSFeSHSC6H4C6H8CH9CH6NHFeH9CHCH2FeHC2H2C2NC8H11SC3H2CHCHCH5C2H2CHCH2NCH2NH2CH2CH3CHC2H10CH5C4SFeH2FeS2FeHFeS3FeS2HCFeHFeS3CHC6H4C6H4CH5SH3FeC2HC2H5CNH3CH3CHNH4CH2SH3C3HCH3CHCHCNC2HCH2CHCHSHCHSH5C2H6CH2CH2CSH2C3HCHCHCH3CHSH5CH7CH2CH3FeCSFeS2H2FeS3FeS2FeSFeHFeSHSH2C6H4C6H5SH4C3H8CH6C4H4CHC2H7CH2SCH5NH2NH4SH2SCH5CH2C5HCH6C2H2CH3CH2NC7NHCH11CNHCHCHFeSHCH6CHCH2C3FeS2FeS2FeSFeS3HFeS2FeS2FeSFeS4C7H4CH2CHC4H4C6H4C6H4C6H5NH3CH3CHSHCH5C2HCHCH2C2HCH2FeC2H6CSH14NC7H10CH2CH5SHCHCNH5CNC8H8C2HCHCH4C2NC2H7CHNHCH14C4H2SH2FeS2FeS2FeSFeS4FeS2FeS2FeSFeS3HC7H5CHCH2CNC2H3C6H4C6H4C3HC2HCH4CH7CH4CH6C2FeNC2HC3H2C2H4C3H4CH4CH2C2HCH4SC2HNC2HC2H2SH10NC8H18FeH2C2H3CSCH2CH8CHSFe2SHSFeCHSCHFeS2CSH4C6HCH2C6H5CHCH3CFeHC3H6CH4CHSCNHCHCH3CHNH2SCH2NH3CHCH2CH3CH3CHSH2CHSCFeH3CH4CFeCHCH2CH2C2H2FeS2H2FeSHSC2FeS2FeSHCSHC6H4C7H5SCHNC5HSH8CH3N2H2C2H2C3HSHCFeH3CHCHCH3FeH4C2H2CH3CH2C2HC2HCH3CH6CHCH3
_chemical_formula_sum              "H1152 C672 Fe96 S192 N48"
_cell_length_a       50.7656
_cell_length_b       50.6644
_cell_length_c       40.3851
_cell_angle_alpha    89.9187
_cell_angle_beta     90.2075
_cell_angle_gamma    120.542

_space_group_name_H-M_alt    "P 1"
_space_group_IT_number       1

loop_
  _space_group_symop_operation_xyz
  'x, y, z'

loop_
  _atom_site_type_symbol
  _atom_site_label
  _atom_site_symmetry_multiplicity
  _atom_site_fract_x
  _atom_site_fract_y
  _atom_site_fract_z
  _atom_site_occupancy
  H   H1        1.0  0.27212  0.30495  0.24628  1.0000
  C   C1        1.0  0.27399  0.34953  0.19698  1.0000
  H   H2        1.0  0.50433  0.12191  0.07306  1.0000
  Fe  Fe1       1.0  0.46947  0.19406  0.01283  1.0000
  H   H3        1.0  0.25293  0.34210  0.18207  1.0000
  H   H4        1.0  0.39680  0.32749  0.18394  1.0000
  C   C2        1.0  0.39309  0.34610  0.19026  1.0000
  H   H5        1.0  0.46607  0.06837  0.50387  1.0000
  H   H6        1.0  0.26710  0.34393  0.29732  1.0000
  C   C3        1.0  0.40106  0.05523  0.02799  1.0000
  S   S1        1.0  0.52043  0.31548  0.33140  1.0000
  S   S2        1.0  0.47792  0.13780  0.46093  1.0000
  H   H7        1.0  0.51659  0.09627  0.08442  1.0000
  S   S3        1.0  0.44915  0.21993  0.03736  1.0000
  H   H8        1.0  0.49139  0.25451  0.47202  1.0000
  Fe  Fe2       1.0  0.47946  0.18292  0.46565  1.0000
  S   S4        1.0  0.45778  0.19873  0.42651  1.0000
  C   C4        1.0  0.50802  0.19459  0.33478  1.0000
  Fe  Fe3       1.0  0.50129  0.32489  0.28423  1.0000
  S   S5        1.0  0.45760  0.29337  0.25727  1.0000
  H   H9        1.0  0.36874  0.34261  0.14499  1.0000
  C   C5        1.0  0.48980  0.24106  0.27244  1.0000
  H   H10       1.0  0.46986  0.05411  0.05052  1.0000
  Fe  Fe4       1.0  0.45593  0.33596  0.24340  1.0000
  H   H11       1.0  0.36604  0.03141  0.06492  1.0000
  Fe  Fe5       1.0  0.48752  0.30443  0.21211  1.0000
  C   C6        1.0  0.43664  0.23625  0.49093  1.0000
  C   C7        1.0  0.47831  0.29930  0.44682  1.0000
  S   S6        1.0  0.49075  0.26708  0.18460  1.0000
  C   C8        1.0  0.51329  0.05549  0.03968  1.0000
  C   C9        1.0  0.46026  0.23275  0.07845  1.0000
  C   C10       1.0  0.47531  0.22158  0.09784  1.0000
  C   C11       1.0  0.48398  0.23204  0.13049  1.0000
  C   C12       1.0  0.47810  0.25407  0.14391  1.0000
  C   C13       1.0  0.46321  0.26547  0.12451  1.0000
  C   C14       1.0  0.45412  0.25464  0.09191  1.0000
  H   H12       1.0  0.48001  0.20462  0.08778  1.0000
  H   H13       1.0  0.49656  0.09930  0.02133  1.0000
  H   H14       1.0  0.45850  0.28239  0.13468  1.0000
  C   C15       1.0  0.31223  0.35165  0.25374  1.0000
  C   C16       1.0  0.47566  0.23149  0.40061  1.0000
  C   C17       1.0  0.45744  0.23747  0.37909  1.0000
  C   C18       1.0  0.47068  0.26311  0.35782  1.0000
  C   C19       1.0  0.50230  0.28334  0.35827  1.0000
  C   C20       1.0  0.29296  0.31715  0.26180  1.0000
  S   S7        1.0  0.48200  0.34398  0.19590  1.0000
  H   H15       1.0  0.43292  0.22204  0.37869  1.0000
  H   H16       1.0  0.45640  0.26726  0.34119  1.0000
  C   C21       1.0  0.49139  0.20776  0.31468  1.0000
  S   S8        1.0  0.47933  0.15943  0.03564  1.0000
  H   H17       1.0  0.44171  0.20821  0.28445  1.0000
  C   C22       1.0  0.10785  0.35469  0.47093  1.0000
  C   C23       1.0  0.50331  0.26907  0.49376  1.0000
  H   H18       1.0  0.49473  0.20689  0.20951  1.0000
  H   H19       1.0  0.48880  0.25647  0.29140  1.0000
  H   H20       1.0  0.50059  0.25621  0.25094  1.0000
  H   H21       1.0  0.43747  0.24325  0.46488  1.0000
  H   H22       1.0  0.51666  0.18283  0.31890  1.0000
  H   H23       1.0  0.51395  0.32963  0.48070  1.0000
  Fe  Fe6       1.0  0.52576  0.18775  0.01275  1.0000
  C   C24       1.0  0.45655  0.21773  0.26233  1.0000
  H   H24       1.0  0.10646  0.34505  0.44587  1.0000
  S   S9        1.0  0.53132  0.33457  0.23970  1.0000
  H   H25       1.0  0.40019  0.03452  0.44601  1.0000
  H   H26       1.0  0.52690  0.21260  0.34991  1.0000
  H   H27       1.0  0.48179  0.28083  0.43780  1.0000
  H   H28       1.0  0.49145  0.31856  0.42932  1.0000
  H   H29       1.0  0.41221  0.22377  0.49838  1.0000
  H   H30       1.0  0.52733  0.24374  0.21987  1.0000
  H   H31       1.0  0.24920  0.33403  0.24294  1.0000
  H   H32       1.0  0.30700  0.30644  0.25685  1.0000
  H   H33       1.0  0.44232  0.26325  0.07708  1.0000
  H   H34       1.0  0.45370  0.29196  0.44463  1.0000
  H   H35       1.0  0.45482  0.19881  0.24700  1.0000
  N   N1        1.0  0.48788  0.28590  0.50632  1.0000
  H   H36       1.0  0.48564  0.22082  0.33237  1.0000
  H   H37       1.0  0.46907  0.18770  0.30707  1.0000
  C   C25       1.0  0.37899  0.02895  0.04520  1.0000
  C   C26       1.0  0.51672  0.21878  0.22336  1.0000
  H   H38       1.0  0.44721  0.22952  0.24732  1.0000
  C   C27       1.0  0.52013  0.10734  0.03059  1.0000
  C   C28       1.0  0.49012  0.30983  0.48236  1.0000
  H   H39       1.0  0.40504  0.07766  0.03455  1.0000
  H   H40       1.0  0.45609  0.30029  0.01648  1.0000
  H   H41       1.0  0.49542  0.22306  0.14535  1.0000
  Fe  Fe7       1.0  0.52492  0.16266  0.48375  1.0000
  S   S10       1.0  0.52796  0.20850  0.48419  1.0000
  H   H42       1.0  0.32246  0.35401  0.22880  1.0000
  H   H43       1.0  0.52158  0.24731  0.41736  1.0000
  H   H44       1.0  0.53401  0.12964  0.01772  1.0000
  H   H45       1.0  0.47701  0.32039  0.49174  1.0000
  C   C29       1.0  0.50729  0.25169  0.40103  1.0000
  H   H46       1.0  0.52172  0.28743  0.09068  1.0000
  C   C30       1.0  0.37702  0.35460  0.16831  1.0000
  H   H47       1.0  0.28663  0.31322  0.28836  1.0000
  H   H48       1.0  0.44449  0.21945  0.49250  1.0000
  C   C31       1.0  0.52045  0.27768  0.38030  1.0000
  H   H49       1.0  0.03830  0.32217  0.49122  1.0000
  N   N2        1.0  0.50831  0.22744  0.28516  1.0000
  S   S11       1.0  0.41792  0.34674  0.25172  1.0000
  H   H50       1.0  0.05651  0.33258  0.44150  1.0000
  C   C32       1.0  0.51210  0.20773  0.25980  1.0000
  C   C33       1.0  0.47819  0.04022  0.03808  1.0000
  H   H51       1.0  0.49165  0.17745  0.35269  1.0000
  C   C34       1.0  0.26829  0.35586  0.23287  1.0000
  H   H52       1.0  0.09095  0.33677  0.48749  1.0000
  H   H53       1.0  0.49141  0.18433  0.25958  1.0000
  H   H54       1.0  0.27929  0.33086  0.19550  1.0000
  H   H55       1.0  0.51876  0.03838  0.02957  1.0000
  H   H56       1.0  0.52573  0.30622  0.03325  1.0000
  C   C35       1.0  0.52185  0.11556  0.06766  1.0000
  H   H57       1.0  0.52012  0.05772  0.06619  1.0000
  C   C36       1.0  0.05786  0.35438  0.43454  1.0000
  H   H58       1.0  0.46979  0.03548  0.01220  1.0000
  N   N3        1.0  0.53102  0.08560  0.02160  1.0000
  H   H59       1.0  0.53154  0.20451  0.26671  1.0000
  H   H60       1.0  0.53184  0.21200  0.21084  1.0000
  C   C37       1.0  0.04377  0.34112  0.50859  1.0000
  S   S12       1.0  0.44471  0.08412  0.97823  1.0000
  H   H61       1.0  0.49396  0.04309  0.57546  1.0000
  H   H62       1.0  0.50354  0.32786  0.58055  1.0000
  C   C38       1.0  0.46874  0.29758  0.99561  1.0000
  H   H63       1.0  0.52945  0.26738  0.75173  1.0000
  H   H64       1.0  0.46629  0.29967  0.56738  1.0000
  H   H65       1.0  0.52895  0.05955  0.97788  1.0000
  H   H66       1.0  0.52445  0.23451  0.73036  1.0000
  H   H67       1.0  0.44433  0.22925  0.67859  1.0000
  H   H68       1.0  0.45860  0.31616  0.95346  1.0000
  H   H69       1.0  0.43708  0.25372  0.72725  1.0000
  H   H70       1.0  0.49462  0.31370  0.91965  1.0000
  H   H71       1.0  0.42932  0.21909  0.84488  1.0000
  H   H72       1.0  0.45415  0.19964  0.88312  1.0000
  H   H73       1.0  0.44963  0.14732  0.74887  1.0000
  H   H74       1.0  0.42180  0.29219  0.86935  1.0000
  C   C39       1.0  0.44953  0.04890  0.51816  1.0000
  H   H75       1.0  0.41580  0.19241  0.69254  1.0000
  C   C40       1.0  0.48527  0.28863  0.92262  1.0000
  C   C41       1.0  0.42085  0.22906  0.72288  1.0000
  H   H76       1.0  0.39365  0.21772  0.94576  1.0000
  H   H77       1.0  0.51172  0.09966  0.58396  1.0000
  H   H78       1.0  0.43443  0.15081  0.69197  1.0000
  C   C42       1.0  0.43146  0.26928  0.90913  1.0000
  H   H79       1.0  0.48804  0.33507  0.54428  1.0000
  C   C43       1.0  0.45072  0.29277  0.96318  1.0000
  C   C44       1.0  0.44915  0.16875  0.67393  1.0000
  H   H80       1.0  0.42183  0.17040  0.73979  1.0000
  H   H81       1.0  0.52460  0.30010  0.65483  1.0000
  H   H82       1.0  0.44359  0.20078  0.76801  1.0000
  H   H83       1.0  0.48480  0.27982  0.89726  1.0000
  H   H84       1.0  0.42640  0.28420  0.96981  1.0000
  H   H85       1.0  0.40832  0.20068  0.97315  1.0000
  H   H86       1.0  0.47569  0.25105  0.74765  1.0000
  H   H87       1.0  0.49326  0.25773  0.70789  1.0000
  H   H88       1.0  0.46164  0.15997  0.65937  1.0000
  H   H89       1.0  0.40104  0.22774  0.70950  1.0000
  N   N4        1.0  0.45973  0.21040  0.71737  1.0000
  C   C45       1.0  0.43526  0.21470  0.70115  1.0000
  C   C46       1.0  0.47249  0.19905  0.69090  1.0000
  C   C47       1.0  0.48463  0.24140  0.72911  1.0000
  C   C48       1.0  0.44567  0.18854  0.74611  1.0000
  H   H90       1.0  0.43469  0.17243  0.65599  1.0000
  H   H91       1.0  0.49123  0.19592  0.70024  1.0000
  H   H92       1.0  0.51742  0.29257  0.81489  1.0000
  C   C49       1.0  0.44417  0.24156  0.94925  1.0000
  H   H93       1.0  0.50631  0.23110  0.77047  1.0000
  Fe  Fe8       1.0  0.46533  0.13559  0.98629  1.0000
  S   S13       1.0  0.51281  0.16223  0.96476  1.0000
  H   H94       1.0  0.49174  0.31850  0.99412  1.0000
  Fe  Fe9       1.0  0.49982  0.19631  0.94704  1.0000
  H   H95       1.0  0.44266  0.31744  0.90268  1.0000
  N   N5        1.0  0.45333  0.27319  0.93681  1.0000
  S   S14       1.0  0.45128  0.16803  0.96472  1.0000
  Fe  Fe10      1.0  0.47542  0.31213  0.76692  1.0000
  S   S15       1.0  0.44429  0.31366  0.72798  1.0000
  S   S16       1.0  0.45275  0.27208  0.80332  1.0000
  C   C50       1.0  0.50611  0.03017  0.57785  1.0000
  H   H96       1.0  0.41235  0.21710  0.74688  1.0000
  H   H97       1.0  0.48338  0.21657  0.67093  1.0000
  Fe  Fe11      1.0  0.48164  0.32156  0.69248  1.0000
  S   S17       1.0  0.46378  0.29181  0.64653  1.0000
  H   H98       1.0  0.51849  0.08221  0.53541  1.0000
  H   H99       1.0  0.52320  0.04240  0.51446  1.0000
  C   C51       1.0  0.50954  0.24340  0.59893  1.0000
  H   H100      1.0  0.48642  0.18219  0.75132  1.0000
  C   C52       1.0  0.51168  0.28138  0.63776  1.0000
  C   C53       1.0  0.48137  0.27236  0.63024  1.0000
  C   C54       1.0  0.46485  0.24807  0.60802  1.0000
  C   C55       1.0  0.47883  0.23351  0.59248  1.0000
  H   H101      1.0  0.46097  0.16984  0.78535  1.0000
  H   H102      1.0  0.46607  0.21514  0.57501  1.0000
  C   C56       1.0  0.49987  0.23514  0.87104  1.0000
  C   C57       1.0  0.42622  0.05039  0.53482  1.0000
  C   C58       1.0  0.47166  0.25752  0.82765  1.0000
  C   C59       1.0  0.45401  0.23096  0.84665  1.0000
  C   C60       1.0  0.46799  0.21997  0.86847  1.0000
  H   H103      1.0  0.53194  0.29849  0.92882  1.0000
  S   S18       1.0  0.51858  0.22261  0.89859  1.0000
  S   S19       1.0  0.52885  0.22792  0.57765  1.0000
  H   H104      1.0  0.46137  0.30526  0.87328  1.0000
  C   C61       1.0  0.46202  0.17138  0.75786  1.0000
  Fe  Fe12      1.0  0.50726  0.19448  0.53505  1.0000
  S   S20       1.0  0.42264  0.08331  0.53259  1.0000
  H   H105      1.0  0.52799  0.32102  0.53254  1.0000
  H   H106      1.0  0.42856  0.25101  0.89169  1.0000
  H   H107      1.0  0.44126  0.24082  0.60241  1.0000
  H   H108      1.0  0.47120  0.27794  0.00281  1.0000
  H   H109      1.0  0.50430  0.26065  0.94059  1.0000
  H   H110      1.0  0.40817  0.26154  0.91888  1.0000
  H   H111      1.0  0.50238  0.07234  0.97770  1.0000
  S   S21       1.0  0.51162  0.31788  0.73104  1.0000
  S   S22       1.0  0.50827  0.15063  0.53592  1.0000
  C   C62       1.0  0.48931  0.31688  0.55817  1.0000
  C   C63       1.0  0.41187  0.22303  0.96424  1.0000
  H   H112      1.0  0.40921  0.23468  0.98610  1.0000
  H   H113      1.0  0.50692  0.28632  0.55469  1.0000
  C   C64       1.0  0.50354  0.27222  0.82952  1.0000
  C   C65       1.0  0.52572  0.26695  0.62206  1.0000
  C   C66       1.0  0.51255  0.24298  0.74618  1.0000
  H   H114      1.0  0.44564  0.22759  0.92888  1.0000
  H   H115      1.0  0.51275  0.29261  0.96737  1.0000
  S   S23       1.0  0.45883  0.17191  0.51684  1.0000
  S   S24       1.0  0.51696  0.22410  0.99376  1.0000
  H   H116      1.0  0.46006  0.24199  0.96837  1.0000
  H   H117      1.0  0.45345  0.25250  0.53930  1.0000
  C   C67       1.0  0.44024  0.29797  0.88783  1.0000
  C   C68       1.0  0.45490  0.26335  0.51486  1.0000
  C   C69       1.0  0.52628  0.07931  0.98488  1.0000
  H   H118      1.0  0.06102  0.34295  0.52689  1.0000
  C   C70       1.0  0.41733  0.05225  0.00176  1.0000
  Fe  Fe13      1.0  0.46140  0.12880  0.51347  1.0000
  H   H119      1.0  0.44169  0.27529  0.51757  1.0000
  C   C71       1.0  0.50956  0.28472  0.94146  1.0000
  C   C72       1.0  0.51754  0.26090  0.85093  1.0000
  C   C73       1.0  0.50428  0.30220  0.53780  1.0000
  H   H120      1.0  0.38655  0.02579  0.56589  1.0000
  H   H121      1.0  0.50221  0.25261  0.51289  1.0000
  H   H122      1.0  0.25027  0.51077  0.45174  1.0000
  N   N6        1.0  0.22985  0.50806  0.22980  1.0000
  H   H123      1.0  0.45270  0.56828  0.24316  1.0000
  H   H124      1.0  0.27502  0.54015  0.24934  1.0000
  H   H125      1.0  0.12201  0.39842  0.45046  1.0000
  H   H126      1.0  0.05648  0.40713  0.44026  1.0000
  H   H127      1.0  0.41272  0.58516  0.08953  1.0000
  C   C74       1.0  0.24030  0.69013  0.43333  1.0000
  C   C75       1.0  0.23776  0.49308  0.20222  1.0000
  Fe  Fe14      1.0  0.38249  0.49717  0.14214  1.0000
  S   S25       1.0  0.37550  0.46714  0.18574  1.0000
  Fe  Fe15      1.0  0.31420  0.46423  0.12416  1.0000
  S   S26       1.0  0.30227  0.43056  0.16629  1.0000
  S   S27       1.0  0.27541  0.46666  0.09778  1.0000
  Fe  Fe16      1.0  0.33457  0.47159  0.19646  1.0000
  S   S28       1.0  0.32779  0.48168  0.24916  1.0000
  Fe  Fe17      1.0  0.34440  0.42885  0.15217  1.0000
  S   S29       1.0  0.34943  0.38679  0.14883  1.0000
  S   S30       1.0  0.34456  0.50555  0.15578  1.0000
  S   S31       1.0  0.35341  0.45865  0.10713  1.0000
  S   S32       1.0  0.19728  0.63970  0.27904  1.0000
  Fe  Fe18      1.0  0.18108  0.45647  0.42356  1.0000
  S   S33       1.0  0.14793  0.42259  0.38628  1.0000
  S   S34       1.0  0.18324  0.44411  0.47744  1.0000
  Fe  Fe19      1.0  0.19955  0.51080  0.37706  1.0000
  S   S35       1.0  0.16838  0.48161  0.33619  1.0000
  S   S36       1.0  0.22934  0.56243  0.37810  1.0000
  Fe  Fe20      1.0  0.13357  0.45709  0.37605  1.0000
  S   S37       1.0  0.08577  0.45017  0.37311  1.0000
  Fe  Fe21      1.0  0.18531  0.44956  0.34923  1.0000
  S   S38       1.0  0.19419  0.42535  0.30753  1.0000
  S   S39       1.0  0.16368  0.48887  0.41610  1.0000
  S   S40       1.0  0.21949  0.48073  0.38715  1.0000
  C   C76       1.0  0.05391  0.41505  0.36019  1.0000
  C   C77       1.0  0.20534  0.61822  0.30747  1.0000
  C   C78       1.0  0.22337  0.63193  0.33559  1.0000
  C   C79       1.0  0.23061  0.61464  0.35711  1.0000
  C   C80       1.0  0.21926  0.58339  0.35110  1.0000
  C   C81       1.0  0.20080  0.56959  0.32328  1.0000
  C   C82       1.0  0.19419  0.58705  0.30133  1.0000
  H   H128      1.0  0.23231  0.65603  0.34037  1.0000
  H   H129      1.0  0.24502  0.62552  0.37846  1.0000
  H   H130      1.0  0.19192  0.54559  0.31842  1.0000
  H   H131      1.0  0.18013  0.57631  0.27971  1.0000
  H   H132      1.0  0.04957  0.58981  0.36818  1.0000
  C   C83       1.0  0.29062  0.46509  0.26543  1.0000
  C   C84       1.0  0.26508  0.44406  0.24713  1.0000
  C   C85       1.0  0.23567  0.43138  0.26075  1.0000
  C   C86       1.0  0.23158  0.44013  0.29239  1.0000
  C   C87       1.0  0.25715  0.46090  0.31082  1.0000
  C   C88       1.0  0.28662  0.47317  0.29745  1.0000
  H   H133      1.0  0.26791  0.43771  0.22244  1.0000
  H   H134      1.0  0.21593  0.41522  0.24643  1.0000
  H   H135      1.0  0.25425  0.46753  0.33535  1.0000
  H   H136      1.0  0.30635  0.48928  0.31180  1.0000
  C   C89       1.0  0.29608  0.53253  0.43323  1.0000
  H   H137      1.0  0.31369  0.55434  0.42183  1.0000
  C   C90       1.0  0.26411  0.46286  0.05534  1.0000
  H   H138      1.0  0.26645  0.53241  0.30762  1.0000
  C   C91       1.0  0.24414  0.45979  0.48097  1.0000
  C   C92       1.0  0.27840  0.54123  0.50494  1.0000
  C   C93       1.0  0.37116  0.37808  0.17652  1.0000
  C   C94       1.0  0.46526  0.66408  0.11272  1.0000
  H   H139      1.0  0.24381  0.45920  0.45419  1.0000
  H   H140      1.0  0.48372  0.65035  0.21273  1.0000
  C   C95       1.0  0.38201  0.39338  0.20675  1.0000
  H   H141      1.0  0.47154  0.49925  0.23693  1.0000
  H   H142      1.0  0.30382  0.37423  0.30875  1.0000
  H   H143      1.0  0.24884  0.64852  0.17372  1.0000
  H   H144      1.0  0.44983  0.61707  0.19924  1.0000
  H   H145      1.0  0.30648  0.52572  0.45316  1.0000
  H   H146      1.0  0.41851  0.53661  0.19739  1.0000
  H   H147      1.0  0.25893  0.51747  0.50812  1.0000
  C   C96       1.0  0.05455  0.37218  0.49148  1.0000
  C   C97       1.0  0.31734  0.40193  0.24537  1.0000
  H   H148      1.0  0.33785  0.42400  0.29356  1.0000
  H   H149      1.0  0.41751  0.44374  0.16301  1.0000
  H   H150      1.0  0.45236  0.46575  0.09655  1.0000
  H   H151      1.0  0.04695  0.54958  0.28463  1.0000
  H   H152      1.0  0.13094  0.36153  0.48081  1.0000
  H   H153      1.0  0.51467  0.47933  0.15864  1.0000
  C   C98       1.0  0.07854  0.40842  0.44601  1.0000
  H   H154      1.0  0.35901  0.44428  0.25808  1.0000
  H   H155      1.0  0.32702  0.40265  0.22053  1.0000
  H   H156      1.0  0.22022  0.66741  0.43846  1.0000
  C   C99       1.0  0.05683  0.38992  0.35165  1.0000
  H   H157      1.0  0.21334  0.64796  0.16801  1.0000
  H   H158      1.0  0.42872  0.59168  0.14809  1.0000
  H   H159      1.0  0.08480  0.43656  0.49049  1.0000
  H   H160      1.0  0.26038  0.68703  0.43109  1.0000
  C   C100      1.0  0.03920  0.53615  0.30807  1.0000
  H   H161      1.0  0.49144  0.62849  0.16225  1.0000
  H   H162      1.0  0.28829  0.51467  0.41368  1.0000
  H   H163      1.0  0.45139  0.44668  0.21478  1.0000
  H   H164      1.0  0.51844  0.52713  0.16088  1.0000
  H   H165      1.0  0.47362  0.39401  0.17366  1.0000
  C   C101      1.0  0.47408  0.62167  0.10339  1.0000
  C   C102      1.0  0.23684  0.66136  0.17839  1.0000
  H   H166      1.0  0.23416  0.47045  0.21033  1.0000
  C   C103      1.0  0.46514  0.49384  0.21043  1.0000
  H   H167      1.0  0.42817  0.66644  0.13849  1.0000
  H   H168      1.0  0.03815  0.67308  0.29496  1.0000
  C   C104      1.0  0.40268  0.36042  0.22113  1.0000
  H   H169      1.0  0.25253  0.55297  0.20724  1.0000
  C   C105      1.0  0.25421  0.51817  0.25631  1.0000
  N   N7        1.0  0.07362  0.37883  0.46073  1.0000
  H   H170      1.0  0.09074  0.41298  0.42195  1.0000
  C   C106      1.0  0.24733  0.56046  0.47753  1.0000
  H   H171      1.0  0.45375  0.65877  0.08814  1.0000
  H   H172      1.0  0.23768  0.57015  0.25303  1.0000
  H   H173      1.0  0.27634  0.53396  0.17858  1.0000
  C   C107      1.0  0.19916  0.48412  0.24328  1.0000
  C   C108      1.0  0.24557  0.52209  0.29185  1.0000
  H   H174      1.0  0.19243  0.49225  0.26531  1.0000
  H   H175      1.0  0.20029  0.46396  0.25232  1.0000
  H   H176      1.0  0.26195  0.50130  0.25863  1.0000
  H   H177      1.0  0.08608  0.54451  0.30396  1.0000
  H   H178      1.0  0.22943  0.49955  0.30309  1.0000
  H   H179      1.0  0.23592  0.53726  0.29345  1.0000
  C   C109      1.0  0.22926  0.53523  0.21543  1.0000
  H   H180      1.0  0.42381  0.42659  0.10785  1.0000
  H   H181      1.0  0.30506  0.41478  0.24242  1.0000
  C   C110      1.0  0.08161  0.60362  0.32779  1.0000
  H   H182      1.0  0.48506  0.51595  0.13523  1.0000
  S   S41       1.0  0.49729  0.36645  0.27446  1.0000
  N   N8        1.0  0.46247  0.63566  0.12818  1.0000
  H   H183      1.0  0.20859  0.56336  0.22296  1.0000
  C   C111      1.0  0.27075  0.51138  0.18871  1.0000
  N   N9        1.0  0.27421  0.55572  0.47424  1.0000
  H   H184      1.0  0.43538  0.40966  0.16995  1.0000
  H   H185      1.0  0.24295  0.56869  0.45365  1.0000
  H   H186      1.0  0.29776  0.45293  0.03666  1.0000
  Fe  Fe22      1.0  0.52331  0.37305  0.22756  1.0000
  H   H187      1.0  0.19963  0.53691  0.25510  1.0000
  H   H188      1.0  0.28729  0.41251  0.29594  1.0000
  H   H189      1.0  0.29193  0.47384  0.48465  1.0000
  H   H190      1.0  0.44093  0.48233  0.15214  1.0000
  H   H191      1.0  0.41362  0.45524  0.10405  1.0000
  C   C112      1.0  0.50452  0.51250  0.13990  1.0000
  H   H192      1.0  0.49146  0.47133  0.20975  1.0000
  C   C113      1.0  0.23938  0.46672  0.04656  1.0000
  H   H193      1.0  0.15078  0.45565  0.23222  1.0000
  C   C114      1.0  0.48058  0.41811  0.17933  1.0000
  H   H194      1.0  0.06980  0.57036  0.36609  1.0000
  C   C115      1.0  0.42967  0.61190  0.13583  1.0000
  H   H195      1.0  0.21560  0.52916  0.19212  1.0000
  H   H196      1.0  0.19842  0.53759  0.48701  1.0000
  H   H197      1.0  0.48966  0.68131  0.10775  1.0000
  H   H198      1.0  0.46887  0.59862  0.11181  1.0000
  H   H199      1.0  0.28802  0.51430  0.20754  1.0000
  C   C116      1.0  0.45873  0.42591  0.16076  1.0000
  H   H200      1.0  0.46222  0.61786  0.07913  1.0000
  H   H201      1.0  0.32661  0.61917  0.42911  1.0000
  C   C117      1.0  0.34490  0.42093  0.26862  1.0000
  H   H202      1.0  0.53369  0.68556  0.50659  1.0000
  C   C118      1.0  0.17203  0.47206  0.21889  1.0000
  H   H203      1.0  0.49527  0.46885  0.12084  1.0000
  H   H204      1.0  0.22242  0.48811  0.18045  1.0000
  H   H205      1.0  0.47892  0.41939  0.20662  1.0000
  H   H206      1.0  0.27302  0.49827  0.16793  1.0000
  C   C119      1.0  0.43222  0.45123  0.11225  1.0000
  H   H207      1.0  0.40416  0.39512  0.25318  1.0000
  H   H208      1.0  0.07141  0.36147  0.41117  1.0000
  H   H209      1.0  0.25045  0.38179  0.28217  1.0000
  C   C120      1.0  0.07442  0.67735  0.32674  1.0000
  C   C121      1.0  0.26836  0.53449  0.44544  1.0000
  C   C122      1.0  0.46618  0.64134  0.19277  1.0000
  H   H210      1.0  0.23554  0.66203  0.20566  1.0000
  C   C123      1.0  0.09693  0.43750  0.46738  1.0000
  H   H211      1.0  0.49604  0.57104  0.13257  1.0000
  H   H212      1.0  0.53009  0.60244  0.17835  1.0000
  H   H213      1.0  0.25882  0.54041  0.42377  1.0000
  H   H214      1.0  0.17438  0.45920  0.19804  1.0000
  C   C124      1.0  0.46887  0.46658  0.20014  1.0000
  C   C125      1.0  0.27878  0.45603  0.03037  1.0000
  H   H215      1.0  0.38397  0.58384  0.11549  1.0000
  H   H216      1.0  0.37822  0.41186  0.21312  1.0000
  H   H217      1.0  0.09969  0.45752  0.45308  1.0000
  C   C126      1.0  0.39704  0.38410  0.22925  1.0000
  C   C127      1.0  0.21837  0.55216  0.23829  1.0000
  C   C128      1.0  0.08174  0.66942  0.35715  1.0000
  H   H218      1.0  0.06343  0.64320  0.40190  1.0000
  C   C129      1.0  0.40748  0.59936  0.10608  1.0000
  S   S42       1.0  0.19458  0.68987  0.35328  1.0000
  H   H219      1.0  0.51505  0.66208  0.08272  1.0000
  C   C130      1.0  0.10476  0.38340  0.46911  1.0000
  H   H220      1.0  0.41939  0.62061  0.15377  1.0000
  Fe  Fe23      1.0  0.19936  0.68211  0.29984  1.0000
  H   H221      1.0  0.24667  0.68948  0.13569  1.0000
  C   C131      1.0  0.04359  0.66616  0.31814  1.0000
  C   C132      1.0  0.30270  0.60415  0.43763  1.0000
  H   H222      1.0  0.04009  0.53050  0.39600  1.0000
  H   H223      1.0  0.40686  0.61775  0.09186  1.0000
  C   C133      1.0  0.05795  0.64949  0.37836  1.0000
  H   H224      1.0  0.29048  0.58918  0.41629  1.0000
  C   C134      1.0  0.45291  0.68101  0.13317  1.0000
  H   H225      1.0  0.12030  0.44221  0.47318  1.0000
  H   H226      1.0  0.22781  0.47195  0.06561  1.0000
  H   H227      1.0  0.07911  0.39199  0.35199  1.0000
  C   C135      1.0  0.48192  0.64376  0.15926  1.0000
  H   H228      1.0  0.29230  0.61842  0.44285  1.0000
  H   H229      1.0  0.29251  0.37020  0.18487  1.0000
  H   H230      1.0  0.33192  0.36113  0.27121  1.0000
  H   H231      1.0  0.44094  0.48795  0.20833  1.0000
  H   H232      1.0  0.36005  0.41122  0.27084  1.0000
  H   H233      1.0  0.17252  0.65936  0.45871  1.0000
  H   H234      1.0  0.45424  0.65446  0.19353  1.0000
  H   H235      1.0  0.32365  0.58479  0.46926  1.0000
  H   H236      1.0  0.45874  0.41949  0.13442  1.0000
  C   C136      1.0  0.27136  0.46793  0.49830  1.0000
  H   H237      1.0  0.19393  0.64981  0.48732  1.0000
  C   C137      1.0  0.21683  0.53186  0.48748  1.0000
  H   H238      1.0  0.19363  0.67043  0.20159  1.0000
  H   H239      1.0  0.11334  0.39575  0.49311  1.0000
  C   C138      1.0  0.28483  0.36781  0.29076  1.0000
  H   H240      1.0  0.47974  0.51494  0.19627  1.0000
  C   C139      1.0  0.06492  0.52976  0.31831  1.0000
  H   H241      1.0  0.16862  0.49066  0.20942  1.0000
  C   C140      1.0  0.49510  0.47871  0.14544  1.0000
  N   N10       1.0  0.46566  0.45855  0.16374  1.0000
  C   C141      1.0  0.46225  0.56855  0.21914  1.0000
  S   S43       1.0  0.43091  0.53227  0.12814  1.0000
  C   C142      1.0  0.43875  0.45957  0.14923  1.0000
  H   H242      1.0  0.51850  0.52099  0.11703  1.0000
  H   H243      1.0  0.29889  0.53876  0.50277  1.0000
  C   C143      1.0  0.27048  0.38771  0.29819  1.0000
  H   H244      1.0  0.05793  0.50576  0.31169  1.0000
  C   C144      1.0  0.49361  0.58805  0.21358  1.0000
  C   C145      1.0  0.50587  0.58802  0.18265  1.0000
  C   C146      1.0  0.48655  0.57010  0.15679  1.0000
  C   C147      1.0  0.45495  0.55186  0.16185  1.0000
  C   C148      1.0  0.44288  0.55061  0.19325  1.0000
  C   C149      1.0  0.05741  0.57842  0.35041  1.0000
  H   H245      1.0  0.20998  0.51269  0.46991  1.0000
  C   C150      1.0  0.21751  0.45256  0.49831  1.0000
  H   H246      1.0  0.50230  0.66723  0.15755  1.0000
  S   S44       1.0  0.12010  0.68445  0.37024  1.0000
  C   C151      1.0  0.50862  0.64027  0.09554  1.0000
  H   H247      1.0  0.10191  0.61941  0.34296  1.0000
  H   H248      1.0  0.16018  0.65037  0.49978  1.0000
  H   H249      1.0  0.07083  0.53231  0.34488  1.0000
  H   H250      1.0  0.08964  0.59425  0.30807  1.0000
  C   C152      1.0  0.22937  0.46378  0.01336  1.0000
  H   H251      1.0  0.25887  0.37143  0.23086  1.0000
  H   H252      1.0  0.07311  0.61789  0.31655  1.0000
  H   H253      1.0  0.30613  0.60204  0.48998  1.0000
  H   H254      1.0  0.51426  0.62672  0.07843  1.0000
  N   N11       1.0  0.29567  0.36928  0.25573  1.0000
  H   H255      1.0  0.52321  0.64499  0.11780  1.0000
  C   C153      1.0  0.30259  0.58644  0.46892  1.0000
  S   S45       1.0  0.51669  0.61324  0.24501  1.0000
  C   C154      1.0  0.18114  0.66210  0.48436  1.0000
  H   H256      1.0  0.25225  0.57895  0.49565  1.0000
  H   H257      1.0  0.26224  0.38377  0.32419  1.0000
  H   H258      1.0  0.50470  0.43245  0.17141  1.0000
  H   H259      1.0  0.46611  0.69034  0.15639  1.0000
  H   H260      1.0  0.17357  0.68973  0.19102  1.0000
  H   H261      1.0  0.27038  0.43532  0.91063  1.0000
  H   H262      1.0  0.36052  0.60696  0.75965  1.0000
  H   H263      1.0  0.26252  0.56142  0.54305  1.0000
  H   H264      1.0  0.25616  0.42874  0.78924  1.0000
  Fe  Fe24      1.0  0.38593  0.51347  0.63997  1.0000
  S   S46       1.0  0.36977  0.48589  0.68658  1.0000
  S   S47       1.0  0.43460  0.54961  0.62800  1.0000
  Fe  Fe25      1.0  0.32270  0.47915  0.60621  1.0000
  S   S48       1.0  0.30114  0.44803  0.65051  1.0000
  S   S49       1.0  0.30797  0.48161  0.55313  1.0000
  Fe  Fe26      1.0  0.32838  0.49106  0.68104  1.0000
  S   S50       1.0  0.31650  0.50934  0.72652  1.0000
  Fe  Fe27      1.0  0.34430  0.44526  0.65319  1.0000
  S   S51       1.0  0.34704  0.40189  0.65732  1.0000
  S   S52       1.0  0.34702  0.52229  0.63676  1.0000
  S   S53       1.0  0.36336  0.47267  0.60675  1.0000
  S   S54       1.0  0.24900  0.66619  0.83009  1.0000
  Fe  Fe28      1.0  0.19503  0.45775  0.91975  1.0000
  S   S55       1.0  0.16346  0.41863  0.88608  1.0000
  S   S56       1.0  0.23222  0.45246  0.94613  1.0000
  Fe  Fe29      1.0  0.17032  0.49790  0.89350  1.0000
  S   S57       1.0  0.13874  0.46233  0.85725  1.0000
  S   S58       1.0  0.16131  0.53714  0.89603  1.0000
  Fe  Fe30      1.0  0.12687  0.42945  0.89911  1.0000
  S   S59       1.0  0.07656  0.39782  0.91175  1.0000
  Fe  Fe31      1.0  0.17787  0.45493  0.84697  1.0000
  S   S60       1.0  0.18575  0.44533  0.79428  1.0000
  S   S61       1.0  0.15701  0.46533  0.93649  1.0000
  S   S62       1.0  0.21089  0.49369  0.87937  1.0000
  H   H265      1.0  0.28016  0.44757  0.97818  1.0000
  H   H266      1.0  0.32595  0.57940  0.74052  1.0000
  H   H267      1.0  0.07778  0.39472  0.83964  1.0000
  C   C155      1.0  0.22510  0.63091  0.84979  1.0000
  C   C156      1.0  0.19435  0.62111  0.85566  1.0000
  C   C157      1.0  0.17525  0.59253  0.87046  1.0000
  C   C158      1.0  0.18660  0.57333  0.87899  1.0000
  C   C159      1.0  0.21742  0.58314  0.87338  1.0000
  C   C160      1.0  0.23666  0.61196  0.85889  1.0000
  H   H268      1.0  0.18512  0.63540  0.84851  1.0000
  H   H269      1.0  0.15145  0.58513  0.87481  1.0000
  H   H270      1.0  0.22642  0.56863  0.88041  1.0000
  H   H271      1.0  0.26051  0.61960  0.85465  1.0000
  C   C161      1.0  0.07985  0.64552  0.83935  1.0000
  C   C162      1.0  0.07644  0.67097  0.83439  1.0000
  C   C163      1.0  0.27987  0.49131  0.74462  1.0000
  C   C164      1.0  0.25471  0.46630  0.72969  1.0000
  C   C165      1.0  0.22590  0.45255  0.74509  1.0000
  C   C166      1.0  0.22220  0.46337  0.77570  1.0000
  C   C167      1.0  0.24740  0.48834  0.79063  1.0000
  C   C168      1.0  0.27605  0.50245  0.77496  1.0000
  H   H272      1.0  0.25740  0.45758  0.70628  1.0000
  H   H273      1.0  0.20646  0.43324  0.73337  1.0000
  H   H274      1.0  0.24482  0.49666  0.81430  1.0000
  H   H275      1.0  0.29546  0.52182  0.78661  1.0000
  H   H276      1.0  0.27944  0.41341  0.77661  1.0000
  H   H277      1.0  0.11435  0.50248  0.79604  1.0000
  C   C169      1.0  0.24539  0.46040  0.55053  1.0000
  H   H278      1.0  0.06750  0.38978  0.51079  1.0000
  H   H279      1.0  0.43446  0.61203  0.74063  1.0000
  H   H280      1.0  0.48299  0.47880  0.59618  1.0000
  H   H281      1.0  0.24573  0.46069  0.57732  1.0000
  H   H282      1.0  0.31578  0.47398  0.85559  1.0000
  H   H283      1.0  0.14578  0.51803  0.82431  1.0000
  C   C170      1.0  0.38278  0.37748  0.67453  1.0000
  C   C171      1.0  0.37460  0.39945  0.68214  1.0000
  C   C172      1.0  0.38907  0.41944  0.70870  1.0000
  H   H284      1.0  0.13704  0.54302  0.80096  1.0000
  H   H285      1.0  0.34327  0.61942  0.72928  1.0000
  H   H286      1.0  0.38268  0.43614  0.71511  1.0000
  H   H287      1.0  0.45654  0.66377  0.68583  1.0000
  H   H288      1.0  0.42787  0.54201  0.69904  1.0000
  H   H289      1.0  0.50192  0.52137  0.67491  1.0000
  Fe  Fe32      1.0  0.46944  0.36471  0.73417  1.0000
  C   C173      1.0  0.44815  0.56371  0.69376  1.0000
  C   C174      1.0  0.40586  0.37607  0.69263  1.0000
  H   H290      1.0  0.19980  0.51031  0.70661  1.0000
  C   C175      1.0  0.48913  0.52393  0.59900  1.0000
  S   S63       1.0  0.45194  0.39794  0.74022  1.0000
  H   H291      1.0  0.19305  0.49642  0.74796  1.0000
  N   N12       1.0  0.19211  0.54495  0.77450  1.0000
  C   C176      1.0  0.19757  0.57650  0.78212  1.0000
  C   C177      1.0  0.20503  0.53520  0.80253  1.0000
  C   C178      1.0  0.15836  0.52200  0.77134  1.0000
  C   C179      1.0  0.20744  0.54617  0.74219  1.0000
  H   H292      1.0  0.29736  0.45255  0.78884  1.0000
  C   C180      1.0  0.13811  0.52171  0.79996  1.0000
  H   H293      1.0  0.15624  0.66257  0.93218  1.0000
  H   H294      1.0  0.18866  0.57703  0.80701  1.0000
  H   H295      1.0  0.19762  0.51046  0.80082  1.0000
  H   H296      1.0  0.19585  0.53732  0.82665  1.0000
  H   H297      1.0  0.14890  0.52545  0.74789  1.0000
  H   H298      1.0  0.15419  0.49825  0.76961  1.0000
  H   H299      1.0  0.19623  0.55121  0.72138  1.0000
  H   H300      1.0  0.23154  0.56559  0.74235  1.0000
  H   H301      1.0  0.19559  0.59444  0.73289  1.0000
  H   H302      1.0  0.47601  0.41858  0.65641  1.0000
  C   C181      1.0  0.47689  0.50905  0.66961  1.0000
  C   C182      1.0  0.27223  0.46846  0.53313  1.0000
  H   H303      1.0  0.30362  0.42493  0.83431  1.0000
  H   H304      1.0  0.42756  0.48662  0.63708  1.0000
  H   H305      1.0  0.04572  0.46853  0.81776  1.0000
  C   C183      1.0  0.27962  0.41943  0.83014  1.0000
  C   C184      1.0  0.05499  0.61830  0.85164  1.0000
  C   C185      1.0  0.21364  0.39410  0.84076  1.0000
  C   C186      1.0  0.44647  0.66677  0.70882  1.0000
  S   S64       1.0  0.50461  0.37311  0.69548  1.0000
  C   C187      1.0  0.49080  0.61214  0.71313  1.0000
  H   H306      1.0  0.07359  0.45223  0.87654  1.0000
  N   N13       1.0  0.46820  0.48321  0.64531  1.0000
  H   H307      1.0  0.09561  0.51813  0.90710  1.0000
  H   H308      1.0  0.25146  0.54909  0.78472  1.0000
  C   C188      1.0  0.18401  0.58959  0.75723  1.0000
  C   C189      1.0  0.20776  0.51672  0.73260  1.0000
  N   N14       1.0  0.39932  0.61216  0.71002  1.0000
  C   C190      1.0  0.41163  0.60265  0.68138  1.0000
  C   C191      1.0  0.40967  0.60430  0.74173  1.0000
  C   C192      1.0  0.41127  0.64612  0.70946  1.0000
  C   C193      1.0  0.36497  0.59548  0.70733  1.0000
  C   C194      1.0  0.40613  0.61133  0.64647  1.0000
  C   C195      1.0  0.39282  0.57003  0.75109  1.0000
  Fe  Fe33      1.0  0.53109  0.36857  0.73763  1.0000
  C   C196      1.0  0.34800  0.60091  0.73583  1.0000
  H   H309      1.0  0.43667  0.61237  0.68403  1.0000
  H   H310      1.0  0.40152  0.57735  0.68110  1.0000
  H   H311      1.0  0.40802  0.61706  0.76326  1.0000
  H   H312      1.0  0.09122  0.48901  0.85758  1.0000
  H   H313      1.0  0.40326  0.65305  0.73165  1.0000
  H   H314      1.0  0.35779  0.60227  0.68436  1.0000
  H   H315      1.0  0.35521  0.57039  0.70408  1.0000
  H   H316      1.0  0.38150  0.59937  0.63994  1.0000
  H   H317      1.0  0.41660  0.63640  0.64326  1.0000
  H   H318      1.0  0.41717  0.60367  0.62815  1.0000
  H   H319      1.0  0.36919  0.56208  0.75954  1.0000
  H   H320      1.0  0.39204  0.55525  0.73048  1.0000
  H   H321      1.0  0.40180  0.65248  0.68801  1.0000
  N   N15       1.0  0.05303  0.47938  0.88922  1.0000
  H   H322      1.0  0.52045  0.64248  0.67519  1.0000
  S   S65       1.0  0.18837  0.67538  0.77995  1.0000
  C   C197      1.0  0.04763  0.38495  0.88105  1.0000
  H   H323      1.0  0.19761  0.44661  0.54682  1.0000
  H   H324      1.0  0.23147  0.52091  0.73338  1.0000
  S   S66       1.0  0.11460  0.64640  0.83131  1.0000
  C   C198      1.0  0.14240  0.67295  0.92467  1.0000
  H   H325      1.0  0.46777  0.48729  0.71911  1.0000
  C   C199      1.0  0.47429  0.46017  0.66209  1.0000
  H   H326      1.0  0.39882  0.43996  0.60176  1.0000
  H   H327      1.0  0.40499  0.56660  0.77205  1.0000
  H   H328      1.0  0.21029  0.46674  0.00712  1.0000
  H   H329      1.0  0.22242  0.59367  0.78340  1.0000
  H   H330      1.0  0.30383  0.58055  0.53874  1.0000
  C   C200      1.0  0.28725  0.48762  0.88089  1.0000
  H   H331      1.0  0.45749  0.66293  0.73060  1.0000
  H   H332      1.0  0.26323  0.48212  0.88263  1.0000
  H   H333      1.0  0.15900  0.57466  0.75392  1.0000
  H   H334      1.0  0.10250  0.49254  0.95653  1.0000
  H   H335      1.0  0.23640  0.44276  0.83580  1.0000
  H   H336      1.0  0.29551  0.48548  0.90567  1.0000
  C   C201      1.0  0.46504  0.58347  0.71977  1.0000
  H   H337      1.0  0.42031  0.45211  0.65533  1.0000
  H   H338      1.0  0.28857  0.47672  0.83035  1.0000
  H   H339      1.0  0.22911  0.43019  0.87739  1.0000
  H   H340      1.0  0.46004  0.45067  0.68455  1.0000
  H   H341      1.0  0.24669  0.54518  0.82849  1.0000
  C   C202      1.0  0.23753  0.42650  0.85341  1.0000
  C   C203      1.0  0.24022  0.55317  0.80594  1.0000
  H   H342      1.0  0.30115  0.51217  0.87386  1.0000
  H   H343      1.0  0.43493  0.48667  0.70012  1.0000
  H   H344      1.0  0.24973  0.57808  0.80917  1.0000
  H   H345      1.0  0.28317  0.54411  0.55835  1.0000
  H   H346      1.0  0.49094  0.60720  0.62908  1.0000
  N   N16       1.0  0.27019  0.43371  0.85692  1.0000
  H   H347      1.0  0.46575  0.52119  0.71707  1.0000
  C   C204      1.0  0.27786  0.42929  0.79437  1.0000
  C   C205      1.0  0.48385  0.60042  0.65441  1.0000
  C   C206      1.0  0.45711  0.57250  0.66101  1.0000
  Fe  Fe34      1.0  0.16202  0.68550  0.81756  1.0000
  H   H348      1.0  0.20844  0.39488  0.81414  1.0000
  H   H349      1.0  0.44305  0.41612  0.63835  1.0000
  C   C207      1.0  0.24395  0.45682  0.98844  1.0000
  C   C208      1.0  0.42424  0.45326  0.60237  1.0000
  C   C209      1.0  0.08879  0.47883  0.93491  1.0000
  H   H350      1.0  0.04942  0.53362  0.91189  1.0000
  C   C210      1.0  0.05438  0.38589  0.84739  1.0000
  H   H351      1.0  0.10473  0.47570  0.91897  1.0000
  C   C211      1.0  0.28212  0.55823  0.53783  1.0000
  C   C212      1.0  0.25585  0.38938  0.89849  1.0000
  C   C213      1.0  0.41196  0.41791  0.72691  1.0000
  H   H352      1.0  0.26299  0.38532  0.92312  1.0000
  H   H353      1.0  0.21934  0.37605  0.84496  1.0000
  C   C214      1.0  0.43476  0.46919  0.63644  1.0000
  H   H354      1.0  0.43180  0.43678  0.59717  1.0000
  C   C215      1.0  0.29140  0.46800  0.85454  1.0000
  C   C216      1.0  0.42075  0.39652  0.71872  1.0000
  C   C217      1.0  0.26871  0.45300  0.99718  1.0000
  H   H355      1.0  0.42321  0.43366  0.74720  1.0000
  H   H356      1.0  0.49967  0.52777  0.57409  1.0000
  H   H357      1.0  0.45768  0.57691  0.74509  1.0000
  H   H358      1.0  0.47217  0.52647  0.65901  1.0000
  C   C218      1.0  0.50064  0.62033  0.68046  1.0000
  H   H359      1.0  0.19166  0.38636  0.85373  1.0000
  H   H360      1.0  0.29986  0.43057  0.89341  1.0000
  H   H361      1.0  0.06525  0.50374  0.93621  1.0000
  C   C219      1.0  0.46013  0.50003  0.70322  1.0000
  C   C220      1.0  0.48888  0.49634  0.61569  1.0000
  C   C221      1.0  0.21816  0.45248  0.53315  1.0000
  H   H362      1.0  0.37155  0.36178  0.65418  1.0000
  C   C222      1.0  0.07570  0.49653  0.91669  1.0000
  C   C223      1.0  0.46796  0.43183  0.64186  1.0000
  H   H363      1.0  0.43163  0.47015  0.58192  1.0000
  C   C224      1.0  0.04856  0.66928  0.84233  1.0000
  H   H364      1.0  0.05733  0.59844  0.85539  1.0000
  H   H365      1.0  0.12043  0.66023  0.93818  1.0000
  H   H366      1.0  0.48015  0.43757  0.61791  1.0000
  H   H367      1.0  0.13858  0.66901  0.89772  1.0000
  H   H368      1.0  0.06719  0.52109  0.86154  1.0000
  C   C225      1.0  0.27537  0.42374  0.89034  1.0000
  H   H369      1.0  0.06572  0.44816  0.81740  1.0000
  H   H370      1.0  0.18799  0.61187  0.76694  1.0000
  S   S67       1.0  0.50815  0.63839  0.74566  1.0000
  C   C226      1.0  0.06862  0.46918  0.86494  1.0000
  H   H371      1.0  0.51297  0.50398  0.62273  1.0000
  H   H372      1.0  0.03612  0.37529  0.79769  1.0000
  H   H373      1.0  0.49846  0.47144  0.67085  1.0000
  H   H374      1.0  0.50309  0.54530  0.61345  1.0000
  H   H375      1.0  0.07069  0.45629  0.94435  1.0000
  H   H376      1.0  0.46582  0.52028  0.59579  1.0000
  H   H377      1.0  0.26607  0.39411  0.83065  1.0000
  H   H378      1.0  0.45260  0.69116  0.70963  1.0000
  H   H379      1.0  0.23132  0.38219  0.90083  1.0000
  C   C227      1.0  0.04599  0.50182  0.87259  1.0000
  C   C228      1.0  0.05108  0.45363  0.83292  1.0000
  H   H380      1.0  0.09274  0.67374  0.90487  1.0000
  H   H381      1.0  0.07207  0.67162  0.94098  1.0000
  H   H382      1.0  0.25900  0.37468  0.88060  1.0000
  H   H383      1.0  0.21757  0.52393  0.51288  1.0000
  C   C229      1.0  0.08755  0.68760  0.92171  1.0000
  H   H384      1.0  0.09511  0.69177  0.82417  1.0000
  H   H385      1.0  0.04605  0.68903  0.83854  1.0000
  S   S68       1.0  0.49715  0.36264  0.77675  1.0000
  H   H386      1.0  0.41237  0.35946  0.68611  1.0000
  Fe  Fe35      1.0  0.34401  0.92152  0.05657  1.0000
  S   S69       1.0  0.37883  0.91902  0.08853  1.0000
  S   S70       1.0  0.34478  0.96684  0.05829  1.0000
  S   S71       1.0  0.34959  0.84814  0.06505  1.0000
  C   C230      1.0  0.31859  0.91235  0.42442  1.0000
  Fe  Fe36      1.0  0.34011  0.87301  0.10493  1.0000
  S   S72       1.0  0.33467  0.85888  0.15918  1.0000
  Fe  Fe37      1.0  0.38429  0.89434  0.04558  1.0000
  S   S73       1.0  0.30454  0.87697  0.07604  1.0000
  H   H387      1.0  0.33105  0.90028  0.43069  1.0000
  Fe  Fe38      1.0  0.23136  0.73862  0.34436  1.0000
  S   S74       1.0  0.23910  0.72948  0.29198  1.0000
  S   S75       1.0  0.27260  0.75996  0.37830  1.0000
  H   H388      1.0  0.28150  0.96863  0.10403  1.0000
  Fe  Fe39      1.0  0.20398  0.74201  0.27871  1.0000
  S   S76       1.0  0.20844  0.76766  0.23056  1.0000
  H   H389      1.0  0.35757  0.95588  0.41338  1.0000
  S   S77       1.0  0.19867  0.75461  0.33110  1.0000
  H   H390      1.0  0.27679  0.76842  0.17263  1.0000
  C   C231      1.0  0.24378  0.79298  0.21112  1.0000
  C   C232      1.0  0.27172  0.80453  0.22776  1.0000
  C   C233      1.0  0.29930  0.82466  0.21147  1.0000
  C   C234      1.0  0.29934  0.83315  0.17830  1.0000
  C   C235      1.0  0.27143  0.82131  0.16149  1.0000
  C   C236      1.0  0.24379  0.80157  0.17795  1.0000
  H   H391      1.0  0.27206  0.79823  0.25331  1.0000
  H   H392      1.0  0.32077  0.83370  0.22470  1.0000
  H   H393      1.0  0.27110  0.82759  0.13594  1.0000
  H   H394      1.0  0.22229  0.79276  0.16488  1.0000
  C   C237      1.0  0.29025  0.83157  0.45759  1.0000
  C   C238      1.0  0.26681  0.82360  0.43423  1.0000
  C   C239      1.0  0.26157  0.80228  0.40900  1.0000
  C   C240      1.0  0.28000  0.78913  0.40696  1.0000
  C   C241      1.0  0.30403  0.79795  0.42966  1.0000
  C   C242      1.0  0.30904  0.81893  0.45501  1.0000
  H   H395      1.0  0.25220  0.83333  0.43614  1.0000
  H   H396      1.0  0.24300  0.79561  0.39157  1.0000
  H   H397      1.0  0.31843  0.78795  0.42813  1.0000
  H   H398      1.0  0.32715  0.82489  0.47286  1.0000
  H   H399      1.0  0.35302  0.77924  0.03047  1.0000
  H   H400      1.0  0.38216  0.99900  0.49043  1.0000
  H   H401      1.0  0.53068  0.73779  0.18406  1.0000
  H   H402      1.0  0.29643  0.90158  0.43766  1.0000
  H   H403      1.0  0.37025  0.00964  0.41833  1.0000
  H   H404      1.0  0.09252  0.69274  0.31024  1.0000
  C   C243      1.0  0.44851  0.86438  0.49844  1.0000
  S   S78       1.0  0.49510  0.83184  0.03247  1.0000
  H   H405      1.0  0.24609  0.76851  0.46738  1.0000
  H   H406      1.0  0.46890  0.02081  0.50619  1.0000
  H   H407      1.0  0.26558  0.94153  0.19206  1.0000
  C   C244      1.0  0.23475  0.75032  0.48632  1.0000
  H   H408      1.0  0.35073  0.00049  0.47346  1.0000
  Fe  Fe40      1.0  0.16180  0.70472  0.33645  1.0000
  N   N17       1.0  0.22101  0.71902  0.47046  1.0000
  H   H409      1.0  0.22083  0.73591  0.17384  1.0000
  H   H410      1.0  0.24461  0.75189  0.12127  1.0000
  H   H411      1.0  0.45579  0.70097  0.11867  1.0000
  H   H412      1.0  0.48665  0.81554  0.48374  1.0000
  C   C245      1.0  0.49136  0.88198  0.01336  1.0000
  H   H413      1.0  0.30843  0.91928  0.48897  1.0000
  H   H414      1.0  0.28455  0.95080  0.23123  1.0000
  C   C246      1.0  0.49001  0.85915  0.47567  1.0000
  H   H415      1.0  0.32104  0.98504  0.11261  1.0000
  H   H416      1.0  0.28990  0.98069  0.20385  1.0000
  C   C247      1.0  0.39673  0.95205  0.45888  1.0000
  C   C248      1.0  0.47682  0.89924  0.01162  1.0000
  C   C249      1.0  0.37349  0.99957  0.03692  1.0000
  H   H417      1.0  0.21677  0.75393  0.49738  1.0000
  S   S79       1.0  0.29491  0.85614  0.49072  1.0000
  N   N18       1.0  0.25228  0.71892  0.17703  1.0000
  H   H418      1.0  0.15958  0.70759  0.46326  1.0000
  H   H419      1.0  0.41377  0.97678  0.46117  1.0000
  H   H420      1.0  0.21937  0.73689  0.42233  1.0000
  C   C250      1.0  0.29382  0.73044  0.22116  1.0000
  H   H421      1.0  0.26946  0.89924  0.21365  1.0000
  H   H422      1.0  0.28442  0.77318  0.11267  1.0000
  C   C251      1.0  0.38540  0.01014  0.43852  1.0000
  H   H423      1.0  0.32431  0.95749  0.42229  1.0000
  C   C252      1.0  0.33806  0.94721  0.43077  1.0000
  H   H424      1.0  0.40766  0.93981  0.46976  1.0000
  H   H425      1.0  0.48652  0.89966  0.47096  1.0000
  N   N19       1.0  0.31175  0.93840  0.16115  1.0000
  C   C253      1.0  0.34246  0.94973  0.14489  1.0000
  C   C254      1.0  0.29090  0.93911  0.13481  1.0000
  C   C255      1.0  0.29996  0.90568  0.17174  1.0000
  C   C256      1.0  0.31614  0.95870  0.19043  1.0000
  C   C257      1.0  0.36764  0.94952  0.16629  1.0000
  C   C258      1.0  0.29806  0.97129  0.12369  1.0000
  C   C259      1.0  0.26871  0.88896  0.18926  1.0000
  C   C260      1.0  0.28725  0.95753  0.20469  1.0000
  H   H426      1.0  0.33982  0.93601  0.12232  1.0000
  H   H427      1.0  0.35240  0.97373  0.13611  1.0000
  H   H428      1.0  0.26661  0.92657  0.14226  1.0000
  H   H429      1.0  0.29131  0.92668  0.11218  1.0000
  H   H430      1.0  0.29850  0.89148  0.14997  1.0000
  H   H431      1.0  0.31599  0.90422  0.18945  1.0000
  H   H432      1.0  0.32713  0.95334  0.21124  1.0000
  H   H433      1.0  0.33256  0.98313  0.18409  1.0000
  H   H434      1.0  0.37158  0.96194  0.19000  1.0000
  S   S80       1.0  0.35130  0.89906  0.01242  1.0000
  H   H435      1.0  0.38954  0.96135  0.15240  1.0000
  H   H436      1.0  0.29565  0.98448  0.14406  1.0000
  H   H437      1.0  0.52847  0.76569  0.15984  1.0000
  H   H438      1.0  0.26294  0.86514  0.19472  1.0000
  H   H439      1.0  0.24973  0.88699  0.17384  1.0000
  H   H440      1.0  0.36297  0.92593  0.17085  1.0000
  C   C261      1.0  0.20068  0.69571  0.49581  1.0000
  H   H441      1.0  0.26647  0.73588  0.45073  1.0000
  H   H442      1.0  0.53089  0.81113  0.19745  1.0000
  C   C262      1.0  0.24692  0.71415  0.46049  1.0000
  H   H443      1.0  0.23754  0.69827  0.40877  1.0000
  Fe  Fe41      1.0  0.31581  0.85432  0.03484  1.0000
  H   H444      1.0  0.30399  0.95052  0.47659  1.0000
  H   H445      1.0  0.21090  0.70382  0.14800  1.0000
  N   N20       1.0  0.34874  0.95692  0.46596  1.0000
  H   H446      1.0  0.31159  0.75301  0.21138  1.0000
  H   H447      1.0  0.25604  0.70793  0.48239  1.0000
  C   C263      1.0  0.44826  0.81674  0.50487  1.0000
  C   C264      1.0  0.27427  0.74816  0.15911  1.0000
  H   H448      1.0  0.26438  0.73263  0.10686  1.0000
  H   H449      1.0  0.18515  0.74839  0.45584  1.0000
  C   C265      1.0  0.17699  0.72492  0.44643  1.0000
  C   C266      1.0  0.47759  0.85415  0.03045  1.0000
  C   C267      1.0  0.47615  0.82923  0.48789  1.0000
  C   C268      1.0  0.36643  0.99156  0.46875  1.0000
  H   H450      1.0  0.43863  0.82227  0.05932  1.0000
  C   C269      1.0  0.20358  0.71915  0.44017  1.0000
  H   H451      1.0  0.27965  0.75875  0.50447  1.0000
  S   S81       1.0  0.43042  0.91043  0.02267  1.0000
  H   H452      1.0  0.40057  0.00235  0.42864  1.0000
  C   C270      1.0  0.26600  0.75108  0.12295  1.0000
  C   C271      1.0  0.44927  0.84373  0.04594  1.0000
  H   H453      1.0  0.39199  0.94502  0.43257  1.0000
  C   C272      1.0  0.44848  0.88881  0.02697  1.0000
  C   C273      1.0  0.36751  0.94352  0.47840  1.0000
  C   C274      1.0  0.43475  0.86108  0.04430  1.0000
  C   C275      1.0  0.47597  0.87657  0.48058  1.0000
  H   H454      1.0  0.41299  0.85300  0.05634  1.0000
  H   H455      1.0  0.29772  0.71203  0.21225  1.0000
  H   H456      1.0  0.37504  0.95065  0.50431  1.0000
  S   S82       1.0  0.52493  0.87520  0.45440  1.0000
  H   H457      1.0  0.27908  0.69917  0.15947  1.0000
  H   H458      1.0  0.29767  0.75144  0.15833  1.0000
  H   H459      1.0  0.35341  0.91810  0.47933  1.0000
  C   C276      1.0  0.32064  0.94472  0.48749  1.0000
  H   H460      1.0  0.31300  0.90835  0.39761  1.0000
  H   H461      1.0  0.25920  0.74303  0.22312  1.0000
  H   H462      1.0  0.46761  0.01778  0.05105  1.0000
  H   H463      1.0  0.33640  0.80053  0.01507  1.0000
  H   H464      1.0  0.52739  0.76662  0.20513  1.0000
  C   C277      1.0  0.26126  0.72367  0.21310  1.0000
  C   C278      1.0  0.22035  0.71369  0.17283  1.0000
  H   H465      1.0  0.43819  0.87817  0.50288  1.0000
  H   H466      1.0  0.16534  0.72310  0.42247  1.0000
  H   H467      1.0  0.29679  0.73163  0.24852  1.0000
  H   H468      1.0  0.24557  0.70372  0.22852  1.0000
  H   H469      1.0  0.20134  0.70484  0.22312  1.0000
  H   H470      1.0  0.19378  0.69744  0.42611  1.0000
  S   S83       1.0  0.16408  0.69349  0.28318  1.0000
  C   C279      1.0  0.25480  0.69315  0.16180  1.0000
  C   C280      1.0  0.19619  0.69329  0.19869  1.0000
  H   H471      1.0  0.18512  0.70234  0.50772  1.0000
  S   S84       1.0  0.28207  0.80923  0.01039  1.0000
  S   S85       1.0  0.38025  0.88213  0.50832  1.0000
  C   C281      1.0  0.39026  0.99675  0.01120  1.0000
  Fe  Fe42      1.0  0.39417  0.91521  0.55092  1.0000
  S   S86       1.0  0.39950  0.88367  0.58601  1.0000
  S   S87       1.0  0.43335  0.96354  0.53968  1.0000
  S   S88       1.0  0.33243  0.82809  0.55927  1.0000
  H   H472      1.0  0.38997  0.97855  0.56901  1.0000
  Fe  Fe43      1.0  0.34979  0.86426  0.59873  1.0000
  S   S89       1.0  0.33749  0.85349  0.65324  1.0000
  Fe  Fe44      1.0  0.38182  0.84955  0.54463  1.0000
  C   C282      1.0  0.52708  0.89920  0.57069  1.0000
  S   S90       1.0  0.34600  0.89911  0.56721  1.0000
  Fe  Fe45      1.0  0.21835  0.74715  0.83556  1.0000
  S   S91       1.0  0.24915  0.74123  0.80045  1.0000
  S   S92       1.0  0.23564  0.79242  0.86202  1.0000
  H   H473      1.0  0.21940  0.87017  0.81345  1.0000
  S   S93       1.0  0.40165  0.81921  0.53534  1.0000
  Fe  Fe46      1.0  0.21016  0.72489  0.76459  1.0000
  S   S94       1.0  0.21592  0.74016  0.71067  1.0000
  H   H474      1.0  0.45073  0.81409  0.57469  1.0000
  S   S95       1.0  0.18017  0.73348  0.79870  1.0000
  C   C283      1.0  0.25082  0.76940  0.69350  1.0000
  C   C284      1.0  0.27840  0.78219  0.71111  1.0000
  C   C285      1.0  0.30514  0.80708  0.69779  1.0000
  C   C286      1.0  0.30470  0.81923  0.66662  1.0000
  C   C287      1.0  0.27744  0.80560  0.64837  1.0000
  C   C288      1.0  0.25063  0.78086  0.66183  1.0000
  H   H475      1.0  0.27905  0.77315  0.73514  1.0000
  H   H476      1.0  0.32618  0.81734  0.71196  1.0000
  H   H477      1.0  0.27676  0.81481  0.62441  1.0000
  H   H478      1.0  0.22946  0.77101  0.64793  1.0000
  C   C289      1.0  0.27188  0.80577  0.96823  1.0000
  C   C290      1.0  0.25804  0.77668  0.95343  1.0000
  C   C291      1.0  0.24823  0.77262  0.92030  1.0000
  C   C292      1.0  0.25132  0.79750  0.90210  1.0000
  C   C293      1.0  0.26554  0.82670  0.91672  1.0000
  C   C294      1.0  0.27617  0.83093  0.94962  1.0000
  H   H479      1.0  0.25480  0.75716  0.96771  1.0000
  H   H480      1.0  0.23767  0.75014  0.90911  1.0000
  H   H481      1.0  0.26794  0.84604  0.90276  1.0000
  H   H482      1.0  0.28673  0.85341  0.96090  1.0000
  H   H483      1.0  0.39759  0.80813  0.92426  1.0000
  H   H484      1.0  0.38216  0.85609  0.98887  1.0000
  H   H485      1.0  0.19618  0.78184  0.73766  1.0000
  H   H486      1.0  0.21699  0.83369  0.81568  1.0000
  C   C295      1.0  0.42965  0.99642  0.53780  1.0000
  H   H487      1.0  0.27393  0.86318  0.68291  1.0000
  H   H488      1.0  0.33662  0.98126  0.52589  1.0000
  H   H489      1.0  0.52783  0.73157  0.55191  1.0000
  H   H490      1.0  0.51411  0.85565  0.55023  1.0000
  H   H491      1.0  0.38623  0.97434  0.00443  1.0000
  H   H492      1.0  0.11169  0.74173  0.88049  1.0000
  H   H493      1.0  0.13143  0.74312  0.84336  1.0000
  H   H494      1.0  0.24264  0.82870  0.69825  1.0000
  H   H495      1.0  0.52376  0.91007  0.59269  1.0000
  C   C296      1.0  0.45243  0.86047  0.61075  1.0000
  H   H496      1.0  0.49882  0.01297  0.55770  1.0000
  H   H497      1.0  0.49689  0.88133  0.63264  1.0000
  H   H498      1.0  0.19283  0.75579  0.97763  1.0000
  H   H499      1.0  0.37847  0.78454  0.97526  1.0000
  H   H500      1.0  0.20507  0.82038  0.73551  1.0000
  H   H501      1.0  0.30374  0.94558  0.53666  1.0000
  N   N21       1.0  0.49361  0.84609  0.59897  1.0000
  H   H502      1.0  0.43224  0.83766  0.60525  1.0000
  Fe  Fe47      1.0  0.33250  0.86406  0.52658  1.0000
  H   H503      1.0  0.43739  0.79345  0.51393  1.0000
  H   H504      1.0  0.15111  0.77185  0.87386  1.0000
  H   H505      1.0  0.31986  0.78756  0.95267  1.0000
  H   H506      1.0  0.24595  0.86565  0.70706  1.0000
  H   H507      1.0  0.24929  0.74164  0.53505  1.0000
  H   H508      1.0  0.34995  0.81542  0.88568  1.0000
  H   H509      1.0  0.18882  0.79789  0.77265  1.0000
  H   H510      1.0  0.45825  0.87543  0.58866  1.0000
  H   H511      1.0  0.16896  0.73519  0.87564  1.0000
  C   C297      1.0  0.34022  0.79579  0.93646  1.0000
  H   H512      1.0  0.31115  0.78758  0.89366  1.0000
  C   C298      1.0  0.36626  0.84502  0.96757  1.0000
  H   H513      1.0  0.32582  0.82472  0.91060  1.0000
  H   H514      1.0  0.34143  0.77512  0.92959  1.0000
  Fe  Fe48      1.0  0.22509  0.69245  0.81863  1.0000
  H   H515      1.0  0.51122  0.82327  0.62979  1.0000
  C   C299      1.0  0.50364  0.86472  0.56754  1.0000
  C   C300      1.0  0.42757  0.85133  0.94810  1.0000
  H   H516      1.0  0.24997  0.86759  0.83193  1.0000
  H   H517      1.0  0.18858  0.78845  0.97711  1.0000
  C   C301      1.0  0.33197  0.80713  0.90486  1.0000
  C   C302      1.0  0.40636  0.99791  0.55449  1.0000
  N   N22       1.0  0.26135  0.84532  0.76775  1.0000
  C   C303      1.0  0.28483  0.84988  0.79374  1.0000
  C   C304      1.0  0.24859  0.86538  0.77736  1.0000
  C   C305      1.0  0.27793  0.85631  0.73520  1.0000
  C   C306      1.0  0.23722  0.81172  0.76625  1.0000
  C   C307      1.0  0.30262  0.83303  0.78790  1.0000
  C   C308      1.0  0.23287  0.85849  0.81155  1.0000
  C   C309      1.0  0.25845  0.85314  0.70455  1.0000
  C   C310      1.0  0.20543  0.80336  0.75225  1.0000
  H   H518      1.0  0.30208  0.87470  0.79679  1.0000
  H   H519      1.0  0.27392  0.84193  0.81838  1.0000
  H   H520      1.0  0.23193  0.86443  0.75897  1.0000
  H   H521      1.0  0.26712  0.88995  0.77753  1.0000
  H   H522      1.0  0.29647  0.88079  0.73705  1.0000
  H   H523      1.0  0.28946  0.84348  0.72866  1.0000
  H   H524      1.0  0.24555  0.79889  0.75162  1.0000
  H   H525      1.0  0.23292  0.80157  0.79150  1.0000
  H   H526      1.0  0.31540  0.83436  0.81083  1.0000
  H   H527      1.0  0.28726  0.80840  0.78242  1.0000
  H   H528      1.0  0.31987  0.84393  0.76798  1.0000
  S   S96       1.0  0.19805  0.70001  0.85726  1.0000
  C   C311      1.0  0.15996  0.70713  0.93416  1.0000
  C   C312      1.0  0.11551  0.71503  0.93863  1.0000
  C   C313      1.0  0.39632  0.82846  0.93251  1.0000
  H   H529      1.0  0.44523  0.87081  0.63039  1.0000
  H   H530      1.0  0.11575  0.70870  0.96500  1.0000
  C   C314      1.0  0.46890  0.81387  0.58998  1.0000
  H   H531      1.0  0.16186  0.70719  0.96159  1.0000
  C   C315      1.0  0.45111  0.02196  0.51954  1.0000
  H   H532      1.0  0.35334  0.87557  0.94369  1.0000
  C   C316      1.0  0.51987  0.84446  0.61456  1.0000
  H   H533      1.0  0.34308  0.83660  0.97804  1.0000
  H   H534      1.0  0.39331  0.89277  0.95086  1.0000
  H   H535      1.0  0.18976  0.76919  0.92026  1.0000
  H   H536      1.0  0.49265  0.78756  0.58670  1.0000
  H   H537      1.0  0.49283  0.80607  0.54836  1.0000
  C   C317      1.0  0.37293  0.80210  0.98377  1.0000
  C   C318      1.0  0.13419  0.74713  0.87051  1.0000
  H   H538      1.0  0.11028  0.73389  0.93921  1.0000
  H   H539      1.0  0.48381  0.86227  0.55327  1.0000
  C   C319      1.0  0.47934  0.79443  0.57072  1.0000
  H   H540      1.0  0.42799  0.87181  0.95837  1.0000
  C   C320      1.0  0.47992  0.85820  0.62346  1.0000
  H   H541      1.0  0.39471  0.83892  0.90916  1.0000
  H   H542      1.0  0.43432  0.84044  0.96760  1.0000
  N   N23       1.0  0.14645  0.72624  0.92309  1.0000
  C   C321      1.0  0.53019  0.73697  0.52508  1.0000
  H   H543      1.0  0.47229  0.84350  0.64604  1.0000
  H   H544      1.0  0.15806  0.77364  0.92890  1.0000
  N   N24       1.0  0.36893  0.81854  0.95461  1.0000
  H   H545      1.0  0.45881  0.77293  0.56226  1.0000
  H   H546      1.0  0.49832  0.01697  0.60132  1.0000
  C   C322      1.0  0.37261  0.87110  0.94296  1.0000
  H   H547      1.0  0.44556  0.85951  0.92878  1.0000
  H   H548      1.0  0.37535  0.86684  0.91681  1.0000
  C   C323      1.0  0.16790  0.75884  0.93429  1.0000
  H   H549      1.0  0.52983  0.87010  0.66140  1.0000
  H   H550      1.0  0.07370  0.69543  0.90808  1.0000
  H   H551      1.0  0.52706  0.71310  0.89885  1.0000
  C   C324      1.0  0.32613  0.95607  0.52378  1.0000
  H   H552      1.0  0.45707  0.80053  0.61263  1.0000
  C   C325      1.0  0.17649  0.76353  0.97140  1.0000
  C   C326      1.0  0.14565  0.72682  0.88575  1.0000
  H   H553      1.0  0.52407  0.91128  0.54934  1.0000
  H   H554      1.0  0.32683  0.76419  0.99657  1.0000
  H   H555      1.0  0.13157  0.70372  0.87490  1.0000
  H   H556      1.0  0.39265  0.81833  0.99939  1.0000
  H   H557      1.0  0.51919  0.71173  0.94267  1.0000
  H   H558      1.0  0.48752  0.92069  0.99819  1.0000
  H   H559      1.0  0.15615  0.75206  0.98764  1.0000
  H   H560      1.0  0.18369  0.71715  0.92455  1.0000
  H   H561      1.0  0.26610  0.78102  0.52383  1.0000
  H   H562      1.0  0.42391  0.02020  0.97308  1.0000
  C   C327      1.0  0.25868  0.75778  0.51395  1.0000
  H   H563      1.0  0.51323  0.89023  0.00145  1.0000
  H   H564      1.0  0.52341  0.75446  0.52168  1.0000
  H   H565      1.0  0.51373  0.71658  0.51065  1.0000
  H   H566      1.0  0.34023  0.94882  0.53758  1.0000
  H   H567      1.0  0.21460  0.69531  0.51692  1.0000
  C   C328      1.0  0.41165  0.02285  0.99345  1.0000
  C   C329      1.0  0.40461  0.02477  0.55289  1.0000
  C   C330      1.0  0.43463  0.83442  0.51066  1.0000
  C   C331      1.0  0.34550  0.78572  0.00755  1.0000
  S   S97       1.0  0.56131  0.15376  0.46430  1.0000
  Fe  Fe49      1.0  0.69463  0.16006  0.02961  1.0000
  H   H568      1.0  0.79596  0.16179  0.35883  1.0000
  H   H569      1.0  0.78824  0.24683  0.09922  1.0000
  Fe  Fe50      1.0  0.72691  0.17475  0.09729  1.0000
  S   S98       1.0  0.75490  0.15375  0.08310  1.0000
  S   S99       1.0  0.73195  0.20087  0.14505  1.0000
  Fe  Fe51      1.0  0.76161  0.17798  0.03436  1.0000
  H   H570      1.0  0.61859  0.32424  0.10156  1.0000
  Fe  Fe52      1.0  0.71121  0.11575  0.06020  1.0000
  S   S100      1.0  0.69449  0.06546  0.07094  1.0000
  S   S101      1.0  0.73621  0.20134  0.04995  1.0000
  S   S102      1.0  0.68251  0.13515  0.07820  1.0000
  Fe  Fe53      1.0  0.86528  0.27924  0.27952  1.0000
  S   S103      1.0  0.88045  0.27093  0.32905  1.0000
  S   S104      1.0  0.84513  0.24034  0.24186  1.0000
  H   H571      1.0  0.75253  0.03768  0.04935  1.0000
  C   C332      1.0  0.56426  0.27107  0.09158  1.0000
  Fe  Fe54      1.0  0.92278  0.31730  0.32205  1.0000
  H   H572      1.0  0.54557  0.32715  0.08642  1.0000
  Fe  Fe55      1.0  0.85951  0.29684  0.35045  1.0000
  S   S105      1.0  0.82792  0.28606  0.39425  1.0000
  S   S106      1.0  0.90928  0.32357  0.27077  1.0000
  S   S107      1.0  0.84129  0.30183  0.30152  1.0000
  C   C333      1.0  0.87137  0.28797  0.08985  1.0000
  H   H573      1.0  0.60892  0.27638  0.10572  1.0000
  C   C334      1.0  0.79081  0.19677  0.45287  1.0000
  C   C335      1.0  0.81463  0.20521  0.43011  1.0000
  C   C336      1.0  0.82681  0.23297  0.41262  1.0000
  C   C337      1.0  0.81476  0.25210  0.41729  1.0000
  C   C338      1.0  0.79114  0.24380  0.44026  1.0000
  C   C339      1.0  0.77923  0.21624  0.45810  1.0000
  H   H574      1.0  0.82380  0.19030  0.42619  1.0000
  H   H575      1.0  0.84546  0.23952  0.39549  1.0000
  H   H576      1.0  0.78181  0.25857  0.44409  1.0000
  H   H577      1.0  0.76084  0.20986  0.47555  1.0000
  C   C340      1.0  0.81270  0.22917  0.21638  1.0000
  C   C341      1.0  0.79613  0.24436  0.21692  1.0000
  C   C342      1.0  0.77071  0.23476  0.19574  1.0000
  C   C343      1.0  0.76223  0.21053  0.17327  1.0000
  C   C344      1.0  0.77844  0.19502  0.17327  1.0000
  C   C345      1.0  0.80344  0.20421  0.19484  1.0000
  H   H578      1.0  0.80309  0.26371  0.23329  1.0000
  H   H579      1.0  0.75818  0.24680  0.19596  1.0000
  H   H580      1.0  0.77177  0.17598  0.15653  1.0000
  H   H581      1.0  0.81593  0.19213  0.19449  1.0000
  C   C346      1.0  0.76882  0.21341  0.29995  1.0000
  H   H582      1.0  0.88989  0.26149  0.13385  1.0000
  H   H583      1.0  0.75608  0.16300  0.38863  1.0000
  H   H584      1.0  0.81161  0.28734  0.08801  1.0000
  H   H585      1.0  0.78821  0.27559  0.12381  1.0000
  H   H586      1.0  0.87905  0.31174  0.09824  1.0000
  S   S108      1.0  0.90293  0.34252  0.34773  1.0000
  H   H587      1.0  0.83500  0.19186  0.35664  1.0000
  H   H588      1.0  0.65046  0.17860  0.05936  1.0000
  H   H589      1.0  0.81832  0.16742  0.32175  1.0000
  Fe  Fe56      1.0  0.88647  0.34566  0.29707  1.0000
  C   C347      1.0  0.53707  0.28942  0.48353  1.0000
  C   C348      1.0  0.55977  0.27698  0.27180  1.0000
  H   H590      1.0  0.86505  0.21492  0.10923  1.0000
  C   C349      1.0  0.80459  0.20195  0.32852  1.0000
  C   C350      1.0  0.61505  0.15717  0.48183  1.0000
  H   H591      1.0  0.81896  0.25999  0.15299  1.0000
  H   H592      1.0  0.61266  0.19242  0.07895  1.0000
  H   H593      1.0  0.76311  0.31738  0.41500  1.0000
  H   H594      1.0  0.74708  0.20413  0.28583  1.0000
  H   H595      1.0  0.76579  0.25332  0.31269  1.0000
  C   C351      1.0  0.77348  0.16966  0.28327  1.0000
  N   N25       1.0  0.85135  0.26505  0.11573  1.0000
  H   H596      1.0  0.61319  0.14601  0.45839  1.0000
  H   H597      1.0  0.60497  0.32069  0.06118  1.0000
  H   H598      1.0  0.56556  0.31868  0.03160  1.0000
  C   C352      1.0  0.58427  0.26160  0.11137  1.0000
  H   H599      1.0  0.84202  0.29813  0.13883  1.0000
  H   H600      1.0  0.87155  0.29690  0.18103  1.0000
  H   H601      1.0  0.83420  0.33922  0.36384  1.0000
  C   C353      1.0  0.60091  0.32586  0.08683  1.0000
  H   H602      1.0  0.85816  0.24599  0.16108  1.0000
  N   N26       1.0  0.56936  0.30263  0.09886  1.0000
  H   H603      1.0  0.03311  0.34250  0.33630  1.0000
  H   H604      1.0  0.54532  0.27460  0.47327  1.0000
  H   H605      1.0  0.77521  0.14961  0.29144  1.0000
  H   H606      1.0  0.89275  0.28715  0.08669  1.0000
  C   C354      1.0  0.56427  0.10029  0.03106  1.0000
  H   H607      1.0  0.86407  0.30706  0.04456  1.0000
  H   H608      1.0  0.65675  0.15862  0.49604  1.0000
  S   S109      1.0  0.56654  0.19912  0.04526  1.0000
  H   H609      1.0  0.90459  0.29336  0.18138  1.0000
  H   H610      1.0  0.74575  0.14397  0.33637  1.0000
  H   H611      1.0  0.72545  0.16281  0.32593  1.0000
  C   C355      1.0  0.55900  0.32930  0.14829  1.0000
  C   C356      1.0  0.67236  0.03565  0.04237  1.0000
  C   C357      1.0  0.59282  0.16445  0.49070  1.0000
  H   H612      1.0  0.74661  0.22275  0.34141  1.0000
  C   C358      1.0  0.56240  0.07465  0.48735  1.0000
  H   H613      1.0  0.74614  0.14011  0.24266  1.0000
  H   H614      1.0  0.01575  0.32764  0.40643  1.0000
  H   H615      1.0  0.82252  0.21680  0.31033  1.0000
  C   C359      1.0  0.83367  0.23268  0.10266  1.0000
  H   H616      1.0  0.56841  0.26866  0.06498  1.0000
  C   C360      1.0  0.81349  0.17905  0.34208  1.0000
  H   H617      1.0  0.90070  0.31561  0.14932  1.0000
  C   C361      1.0  0.63965  0.16415  0.50319  1.0000
  N   N27       1.0  0.77337  0.18800  0.31275  1.0000
  C   C362      1.0  0.54450  0.30517  0.08123  1.0000
  C   C363      1.0  0.82960  0.27382  0.13047  1.0000
  H   H618      1.0  0.79498  0.35032  0.33620  1.0000
  C   C364      1.0  0.56674  0.30522  0.13586  1.0000
  H   H619      1.0  0.56065  0.33032  0.17573  1.0000
  H   H620      1.0  0.54002  0.25313  0.09617  1.0000
  C   C365      1.0  0.61388  0.18826  0.05289  1.0000
  H   H621      1.0  0.78474  0.31478  0.38179  1.0000
  C   C366      1.0  0.78675  0.32602  0.40596  1.0000
  H   H622      1.0  0.72348  0.14438  0.27366  1.0000
  S   S110      1.0  0.72073  0.13833  0.01016  1.0000
  H   H623      1.0  0.78814  0.24657  0.34147  1.0000
  C   C367      1.0  0.75027  0.17705  0.37235  1.0000
  H   H624      1.0  0.58823  0.31005  0.14862  1.0000
  S   S111      1.0  0.77521  0.16121  0.47329  1.0000
  H   H625      1.0  0.79401  0.18357  0.26758  1.0000
  H   H626      1.0  0.76653  0.20147  0.37738  1.0000
  H   H627      1.0  0.55624  0.09251  0.48334  1.0000
  H   H628      1.0  0.54480  0.13521  0.07407  1.0000
  H   H629      1.0  0.60845  0.03494  0.43692  1.0000
  C   C368      1.0  0.76737  0.23490  0.32585  1.0000
  C   C369      1.0  0.88788  0.29472  0.16464  1.0000
  H   H630      1.0  0.74588  0.17495  0.24432  1.0000
  H   H631      1.0  0.54493  0.29323  0.38088  1.0000
  H   H632      1.0  0.80763  0.21770  0.34891  1.0000
  H   H633      1.0  0.83776  0.19742  0.07667  1.0000
  H   H634      1.0  0.79808  0.31847  0.42402  1.0000
  H   H635      1.0  0.83251  0.27001  0.05288  1.0000
  C   C370      1.0  0.74539  0.15670  0.26004  1.0000
  H   H636      1.0  0.72758  0.17252  0.38095  1.0000
  H   H637      1.0  0.81751  0.22995  0.08275  1.0000
  C   C371      1.0  0.74778  0.16692  0.33568  1.0000
  H   H638      1.0  0.78750  0.22807  0.28246  1.0000
  H   H639      1.0  0.57788  0.23795  0.10401  1.0000
  C   C372      1.0  0.59377  0.19025  0.03045  1.0000
  S   S112      1.0  0.96934  0.32285  0.33244  1.0000
  H   H640      1.0  0.86773  0.27455  0.03755  1.0000
  H   H641      1.0  0.58016  0.29529  0.28493  1.0000
  C   C373      1.0  0.63532  0.18049  0.04184  1.0000
  C   C374      1.0  0.85315  0.21969  0.08907  1.0000
  C   C375      1.0  0.53895  0.25282  0.29732  1.0000
  H   H642      1.0  0.86986  0.23494  0.07032  1.0000
  C   C376      1.0  0.61168  0.02593  0.46065  1.0000
  H   H643      1.0  0.81881  0.21678  0.12235  1.0000
  C   C377      1.0  0.80322  0.27047  0.10848  1.0000
  H   H644      1.0  0.54875  0.28849  0.25961  1.0000
  C   C378      1.0  0.87155  0.26525  0.14353  1.0000
  H   H645      1.0  0.56731  0.10422  0.05828  1.0000
  H   H646      1.0  0.54838  0.28299  0.14616  1.0000
  H   H647      1.0  0.58042  0.26094  0.13843  1.0000
  C   C379      1.0  0.85762  0.28415  0.05466  1.0000
  H   H648      1.0  0.58762  0.08511  0.48686  1.0000
  S   S113      1.0  0.80903  0.21114  0.01482  1.0000
  H   H649      1.0  0.55332  0.05893  0.46576  1.0000
  H   H650      1.0  0.53993  0.30586  0.46374  1.0000
  H   H651      1.0  0.53688  0.27828  0.03570  1.0000
  H   H652      1.0  0.84879  0.34789  0.41948  1.0000
  H   H653      1.0  0.55203  0.30159  0.50498  1.0000
  C   C380      1.0  0.54359  0.30189  0.04326  1.0000
  H   H654      1.0  0.00923  0.33608  0.44736  1.0000
  H   H655      1.0  0.53576  0.26540  0.31800  1.0000
  H   H656      1.0  0.55287  0.24344  0.30756  1.0000
  H   H657      1.0  0.57769  0.12350  0.02009  1.0000
  H   H658      1.0  0.57072  0.06055  0.03617  1.0000
  H   H659      1.0  0.56840  0.26711  0.25327  1.0000
  H   H660      1.0  0.60479  0.09623  0.02809  1.0000
  C   C381      1.0  0.02476  0.34573  0.42584  1.0000
  H   H661      1.0  0.63104  0.04548  0.47381  1.0000
  H   H662      1.0  0.82322  0.35129  0.30945  1.0000
  C   C382      1.0  0.58006  0.08214  0.02181  1.0000
  H   H663      1.0  0.57474  0.35268  0.13910  1.0000
  H   H664      1.0  0.53504  0.32258  0.14215  1.0000
  H   H665      1.0  0.93979  0.27971  0.93524  1.0000
  Fe  Fe57      1.0  0.69814  0.16189  0.55349  1.0000
  C   C383      1.0  0.94391  0.23687  0.90008  1.0000
  S   S114      1.0  0.67212  0.18660  0.56138  1.0000
  Fe  Fe58      1.0  0.74214  0.14903  0.59245  1.0000
  S   S115      1.0  0.74069  0.11669  0.55343  1.0000
  S   S116      1.0  0.76438  0.15268  0.64254  1.0000
  H   H666      1.0  0.72452  0.20812  0.97460  1.0000
  H   H667      1.0  0.59913  0.07781  0.55370  1.0000
  Fe  Fe59      1.0  0.69009  0.09793  0.55076  1.0000
  S   S117      1.0  0.65151  0.04829  0.55335  1.0000
  S   S118      1.0  0.74957  0.18602  0.55639  1.0000
  S   S119      1.0  0.69113  0.12756  0.59253  1.0000
  Fe  Fe60      1.0  0.86054  0.29070  0.76733  1.0000
  S   S120      1.0  0.89096  0.27534  0.79001  1.0000
  S   S121      1.0  0.84263  0.28203  0.71415  1.0000
  Fe  Fe61      1.0  0.86367  0.32648  0.82975  1.0000
  S   S122      1.0  0.89400  0.31376  0.85758  1.0000
  Fe  Fe62      1.0  0.91964  0.32354  0.80958  1.0000
  H   H668      1.0  0.65844  0.22296  0.64582  1.0000
  Fe  Fe63      1.0  0.86305  0.26696  0.83613  1.0000
  S   S123      1.0  0.84447  0.22189  0.86312  1.0000
  H   H669      1.0  0.98069  0.27711  0.80761  1.0000
  S   S124      1.0  0.83047  0.27880  0.81206  1.0000
  H   H670      1.0  0.91251  0.26629  0.87397  1.0000
  H   H671      1.0  0.59665  0.13112  0.58750  1.0000
  C   C384      1.0  0.81738  0.21402  0.97223  1.0000
  C   C385      1.0  0.80112  0.18923  0.95077  1.0000
  C   C386      1.0  0.80943  0.19193  0.91720  1.0000
  C   C387      1.0  0.83328  0.21970  0.90473  1.0000
  C   C388      1.0  0.84885  0.24477  0.92599  1.0000
  C   C389      1.0  0.84134  0.24174  0.95977  1.0000
  H   H672      1.0  0.78274  0.16772  0.96021  1.0000
  H   H673      1.0  0.79740  0.17241  0.90087  1.0000
  H   H674      1.0  0.86702  0.26627  0.91649  1.0000
  H   H675      1.0  0.85393  0.26104  0.97622  1.0000
  C   C390      1.0  0.82318  0.24564  0.69460  1.0000
  C   C391      1.0  0.81078  0.21827  0.71256  1.0000
  C   C392      1.0  0.79336  0.18988  0.69622  1.0000
  C   C393      1.0  0.78796  0.18863  0.66191  1.0000
  C   C394      1.0  0.80090  0.21595  0.64390  1.0000
  C   C395      1.0  0.81852  0.24426  0.66016  1.0000
  H   H676      1.0  0.81425  0.21899  0.73908  1.0000
  H   H677      1.0  0.78362  0.16885  0.71035  1.0000
  H   H678      1.0  0.79753  0.21527  0.61739  1.0000
  H   H679      1.0  0.82847  0.26528  0.64598  1.0000
  H   H680      1.0  0.59959  0.10971  0.53462  1.0000
  S   S125      1.0  0.66252  0.16391  0.99353  1.0000
  H   H681      1.0  0.99818  0.27160  0.85995  1.0000
  H   H682      1.0  0.55602  0.03912  0.52141  1.0000
  H   H683      1.0  0.54948  0.27460  0.62724  1.0000
  H   H684      1.0  0.78167  0.24900  0.99960  1.0000
  C   C396      1.0  0.62014  0.18617  0.54223  1.0000
  C   C397      1.0  0.73615  0.25302  0.59766  1.0000
  C   C398      1.0  0.00444  0.29188  0.90747  1.0000
  H   H685      1.0  0.77435  0.06159  0.56651  1.0000
  H   H686      1.0  0.70986  0.06093  0.58930  1.0000
  H   H687      1.0  0.99486  0.30126  0.92523  1.0000
  H   H688      1.0  0.77031  0.26126  0.71950  1.0000
  H   H689      1.0  0.71488  0.25410  0.59790  1.0000
  H   H690      1.0  0.71564  0.16226  0.94353  1.0000
  H   H691      1.0  0.95465  0.22295  0.89425  1.0000
  H   H692      1.0  0.62202  0.19742  0.56560  1.0000
  C   C399      1.0  0.61721  0.17753  0.98569  1.0000
  H   H693      1.0  0.77805  0.06687  0.62342  1.0000
  H   H694      1.0  0.59379  0.09836  0.60980  1.0000
  H   H695      1.0  0.68811  0.17207  0.66642  1.0000
  H   H696      1.0  0.70252  0.24482  0.69127  1.0000
  H   H697      1.0  0.80621  0.29921  0.91901  1.0000
  H   H698      1.0  0.57852  0.18496  0.52787  1.0000
  C   C400      1.0  0.64215  0.17850  0.53355  1.0000
  C   C401      1.0  0.73535  0.23035  0.62370  1.0000
  C   C402      1.0  0.76051  0.26788  0.66760  1.0000
  C   C403      1.0  0.67330  0.21394  0.65405  1.0000
  H   H699      1.0  0.69181  0.05221  0.66256  1.0000
  H   H700      1.0  0.76055  0.08792  0.61019  1.0000
  H   H701      1.0  0.69789  0.04677  0.51225  1.0000
  H   H702      1.0  0.90521  0.19764  0.92348  1.0000
  C   C404      1.0  0.60157  0.11218  0.58687  1.0000
  H   H703      1.0  0.75509  0.21757  0.68578  1.0000
  C   C405      1.0  0.69722  0.23637  0.93493  1.0000
  C   C406      1.0  0.79565  0.28105  0.89990  1.0000
  H   H704      1.0  0.69264  0.22214  0.95731  1.0000
  H   H705      1.0  0.76652  0.06886  0.68120  1.0000
  H   H706      1.0  0.76039  0.28710  0.65440  1.0000
  H   H707      1.0  0.71667  0.20744  0.61597  1.0000
  H   H708      1.0  0.67402  0.20086  0.63261  1.0000
  H   H709      1.0  0.94945  0.22850  0.83822  1.0000
  H   H710      1.0  0.91754  0.23402  0.83861  1.0000
  C   C407      1.0  0.75792  0.06968  0.62768  1.0000
  H   H711      1.0  0.81487  0.28267  0.88517  1.0000
  H   H712      1.0  0.69888  0.18085  0.92225  1.0000
  S   S126      1.0  0.84548  0.35405  0.85390  1.0000
  C   C408      1.0  0.90916  0.21464  0.90387  1.0000
  H   H713      1.0  0.62690  0.12334  0.58677  1.0000
  H   H714      1.0  0.74635  0.27821  0.71551  1.0000
  H   H715      1.0  0.89710  0.22670  0.91172  1.0000
  H   H716      1.0  0.73763  0.24472  0.57264  1.0000
  H   H717      1.0  0.78640  0.29999  0.70704  1.0000
  N   N28       1.0  0.95301  0.26182  0.87460  1.0000
  H   H718      1.0  0.71306  0.16489  0.69095  1.0000
  H   H719      1.0  0.94599  0.29929  0.86213  1.0000
  N   N29       1.0  0.73228  0.23752  0.65925  1.0000
  H   H720      1.0  0.67703  0.22323  0.91854  1.0000
  H   H721      1.0  0.95262  0.24622  0.92511  1.0000
  H   H722      1.0  0.72340  0.21499  0.70712  1.0000
  H   H723      1.0  0.00519  0.27234  0.91894  1.0000
  S   S127      1.0  0.89136  0.33984  0.78318  1.0000
  H   H724      1.0  0.75648  0.22912  0.62059  1.0000
  H   H725      1.0  0.54535  0.10343  0.60318  1.0000
  S   S128      1.0  0.97136  0.34935  0.80240  1.0000
  C   C409      1.0  0.93736  0.28000  0.88001  1.0000
  H   H726      1.0  0.99383  0.30425  0.86039  1.0000
  H   H727      1.0  0.80883  0.27771  0.97146  1.0000
  H   H728      1.0  0.69829  0.25797  0.94254  1.0000
  H   H729      1.0  0.70772  0.26204  0.65251  1.0000
  H   H730      1.0  0.89845  0.20149  0.88091  1.0000
  C   C410      1.0  0.54729  0.10620  0.96188  1.0000
  H   H731      1.0  0.72231  0.17520  0.64884  1.0000
  H   H732      1.0  0.54794  0.13344  0.57814  1.0000
  C   C411      1.0  0.76563  0.27690  0.70463  1.0000
  C   C412      1.0  0.69288  0.06077  0.63716  1.0000
  C   C413      1.0  0.94058  0.29436  0.91455  1.0000
  C   C414      1.0  0.75000  0.04450  0.56140  1.0000
  C   C415      1.0  0.70316  0.04568  0.61116  1.0000
  H   H733      1.0  0.79386  0.24414  0.92804  1.0000
  C   C416      1.0  0.78763  0.27023  0.98583  1.0000
  H   H734      1.0  0.78174  0.28609  0.88266  1.0000
  H   H735      1.0  0.70781  0.08611  0.63662  1.0000
  H   H736      1.0  0.74420  0.08661  0.67140  1.0000
  H   H737      1.0  0.57862  0.07703  0.99499  1.0000
  H   H738      1.0  0.96167  0.31712  0.91638  1.0000
  H   H739      1.0  0.66908  0.05489  0.63140  1.0000
  C   C417      1.0  0.95573  0.26746  0.81063  1.0000
  C   C418      1.0  0.70478  0.24094  0.66460  1.0000
  H   H740      1.0  0.58045  0.18684  0.97927  1.0000
  H   H741      1.0  0.61843  0.17337  0.95963  1.0000
  C   C419      1.0  0.73156  0.21345  0.68203  1.0000
  H   H742      1.0  0.78154  0.26831  0.65908  1.0000
  H   H743      1.0  0.68775  0.06429  0.99905  1.0000
  H   H744      1.0  0.75650  0.27622  0.60045  1.0000
  C   C420      1.0  0.94293  0.24631  0.84117  1.0000
  H   H745      1.0  0.78401  0.10608  0.66318  1.0000
  H   H746      1.0  0.55545  0.11436  0.53141  1.0000
  N   N30       1.0  0.75097  0.24233  0.93702  1.0000
  C   C421      1.0  0.77732  0.24853  0.91478  1.0000
  C   C422      1.0  0.73915  0.21130  0.95282  1.0000
  C   C423      1.0  0.76081  0.26609  0.96394  1.0000
  C   C424      1.0  0.72670  0.24331  0.91640  1.0000
  C   C425      1.0  0.59556  0.18497  0.99679  1.0000
  C   C426      1.0  0.71238  0.17968  0.67102  1.0000
  C   C427      1.0  0.58910  0.09293  0.55509  1.0000
  N   N31       1.0  0.72849  0.03991  0.62081  1.0000
  H   H747      1.0  0.95094  0.28639  0.81144  1.0000
  C   C428      1.0  0.72111  0.18345  0.92980  1.0000
  H   H748      1.0  0.73446  0.18446  0.90770  1.0000
  H   H749      1.0  0.75828  0.20921  0.96336  1.0000
  H   H750      1.0  0.76697  0.28886  0.95350  1.0000
  H   H751      1.0  0.74145  0.26029  0.98108  1.0000
  H   H752      1.0  0.73574  0.26644  0.90533  1.0000
  H   H753      1.0  0.72031  0.22796  0.89442  1.0000
  H   H754      1.0  0.75003  0.03240  0.00577  1.0000
  H   H755      1.0  0.92081  0.29755  0.91887  1.0000
  H   H756      1.0  0.76934  0.23235  0.89348  1.0000
  H   H757      1.0  0.57164  0.11278  0.96426  1.0000
  H   H758      1.0  0.66195  0.19801  0.67508  1.0000
  C   C429      1.0  0.98740  0.28261  0.87395  1.0000
  N   N32       1.0  0.55480  0.07428  0.55100  1.0000
  H   H759      1.0  0.02199  0.33398  0.52180  1.0000
  C   C430      1.0  0.59546  0.17908  0.52092  1.0000
  H   H760      1.0  0.94452  0.25397  0.78792  1.0000
  C   C431      1.0  0.76286  0.08312  0.66298  1.0000
  H   H761      1.0  0.54224  0.27257  0.85244  1.0000
  Fe  Fe64      1.0  0.74411  0.15204  0.51706  1.0000
  S   S129      1.0  0.69311  0.13070  0.51140  1.0000
  H   H762      1.0  0.02856  0.31020  0.90311  1.0000
  C   C432      1.0  0.53646  0.10809  0.58036  1.0000
  H   H763      1.0  0.73839  0.05645  0.55199  1.0000
  H   H764      1.0  0.54670  0.06236  0.60351  1.0000
  H   H765      1.0  0.71655  0.02899  0.67286  1.0000
  H   H766      1.0  0.55143  0.03642  0.57942  1.0000
  H   H767      1.0  0.54503  0.12654  0.96594  1.0000
  H   H768      1.0  0.54052  0.09900  0.93577  1.0000
  C   C433      1.0  0.54121  0.09466  0.54800  1.0000
  H   H769      1.0  0.97024  0.35492  0.87437  1.0000
  C   C434      1.0  0.54119  0.05137  0.57888  1.0000
  H   H770      1.0  0.74976  0.02970  0.54097  1.0000
  H   H771      1.0  0.79285  0.28826  0.00459  1.0000
  C   C435      1.0  0.67407  0.04114  0.00829  1.0000
  C   C436      1.0  0.54822  0.05605  0.51933  1.0000
  C   C437      1.0  0.63693  0.17498  0.00821  1.0000
  Fe  Fe65      1.0  0.76529  0.57434  0.16094  1.0000
  S   S130      1.0  0.76240  0.53780  0.12733  1.0000
  S   S131      1.0  0.80365  0.59902  0.19829  1.0000
  Fe  Fe66      1.0  0.71014  0.57400  0.12885  1.0000
  S   S132      1.0  0.70398  0.53779  0.09209  1.0000
  S   S133      1.0  0.67365  0.58747  0.12622  1.0000
  Fe  Fe67      1.0  0.71165  0.51505  0.13569  1.0000
  S   S134      1.0  0.68344  0.46408  0.14582  1.0000
  Fe  Fe68      1.0  0.75527  0.56397  0.08678  1.0000
  S   S135      1.0  0.78056  0.57888  0.03740  1.0000
  S   S136      1.0  0.71502  0.54964  0.17281  1.0000
  S   S137      1.0  0.76076  0.60210  0.12012  1.0000
  H   H772      1.0  0.90833  0.59069  0.04851  1.0000
  Fe  Fe69      1.0  0.87326  0.54628  0.33979  1.0000
  S   S138      1.0  0.86909  0.52075  0.38725  1.0000
  S   S139      1.0  0.83415  0.52464  0.30265  1.0000
  Fe  Fe70      1.0  0.94016  0.59432  0.35284  1.0000
  S   S140      1.0  0.94088  0.57302  0.40103  1.0000
  S   S141      1.0  0.98151  0.63437  0.32855  1.0000
  Fe  Fe71      1.0  0.91530  0.52835  0.37404  1.0000
  S   S142      1.0  0.93134  0.49474  0.38195  1.0000
  Fe  Fe72      1.0  0.89452  0.56744  0.41080  1.0000
  S   S143      1.0  0.88842  0.57673  0.46488  1.0000
  S   S144      1.0  0.91758  0.54989  0.32502  1.0000
  S   S145      1.0  0.89577  0.59281  0.36413  1.0000
  S   S146      1.0  0.88592  0.38728  0.27800  1.0000
  C   C438      1.0  0.64798  0.60088  0.25020  1.0000
  C   C439      1.0  0.90164  0.41930  0.30451  1.0000
  C   C440      1.0  0.89210  0.44076  0.30164  1.0000
  C   C441      1.0  0.90208  0.46484  0.32457  1.0000
  C   C442      1.0  0.92180  0.46758  0.35034  1.0000
  C   C443      1.0  0.93237  0.44690  0.35237  1.0000
  C   C444      1.0  0.92231  0.42281  0.32951  1.0000
  H   H773      1.0  0.87622  0.43824  0.28223  1.0000
  H   H774      1.0  0.89371  0.48063  0.32290  1.0000
  H   H775      1.0  0.94775  0.44901  0.37217  1.0000
  H   H776      1.0  0.93041  0.40684  0.33137  1.0000
  C   C445      1.0  0.61028  0.35997  0.08833  1.0000
  H   H777      1.0  0.72863  0.43857  0.47152  1.0000
  H   H778      1.0  0.00906  0.62205  0.38567  1.0000
  C   C446      1.0  0.80695  0.56917  0.02128  1.0000
  H   H779      1.0  0.72826  0.45385  0.31184  1.0000
  C   C447      1.0  0.83194  0.57328  0.46779  1.0000
  C   C448      1.0  0.85659  0.57496  0.48524  1.0000
  C   C449      1.0  0.54718  0.53502  0.26071  1.0000
  C   C450      1.0  0.80929  0.54470  0.03381  1.0000
  H   H780      1.0  0.72702  0.44644  0.26804  1.0000
  H   H781      1.0  0.83180  0.57273  0.44102  1.0000
  H   H782      1.0  0.99397  0.63700  0.43543  1.0000
  H   H783      1.0  0.79479  0.53121  0.05408  1.0000
  C   C451      1.0  0.81466  0.57903  0.22558  1.0000
  C   C452      1.0  0.80802  0.54923  0.21871  1.0000
  C   C453      1.0  0.81520  0.53317  0.24206  1.0000
  C   C454      1.0  0.82959  0.54699  0.27211  1.0000
  C   C455      1.0  0.83767  0.57736  0.27820  1.0000
  C   C456      1.0  0.83018  0.59329  0.25500  1.0000
  H   H784      1.0  0.79703  0.53841  0.19560  1.0000
  H   H785      1.0  0.80939  0.50987  0.23702  1.0000
  H   H786      1.0  0.84876  0.58821  0.30127  1.0000
  H   H787      1.0  0.83577  0.61651  0.26027  1.0000
  C   C457      1.0  0.64790  0.45233  0.16450  1.0000
  C   C458      1.0  0.62932  0.42181  0.17479  1.0000
  C   C459      1.0  0.60090  0.41223  0.18986  1.0000
  C   C460      1.0  0.59106  0.43321  0.19466  1.0000
  C   C461      1.0  0.60977  0.46371  0.18457  1.0000
  C   C462      1.0  0.63806  0.47325  0.16950  1.0000
  H   H788      1.0  0.63693  0.40559  0.17104  1.0000
  H   H789      1.0  0.58662  0.38872  0.19773  1.0000
  H   H790      1.0  0.60221  0.47994  0.18806  1.0000
  H   H791      1.0  0.65200  0.49668  0.16122  1.0000
  C   C463      1.0  0.67369  0.61781  0.14791  1.0000
  C   C464      1.0  0.64991  0.62373  0.14178  1.0000
  C   C465      1.0  0.64756  0.64606  0.16011  1.0000
  C   C466      1.0  0.66900  0.66270  0.18483  1.0000
  C   C467      1.0  0.69315  0.65720  0.19055  1.0000
  C   C468      1.0  0.69546  0.63477  0.17227  1.0000
  H   H792      1.0  0.63310  0.61085  0.12284  1.0000
  H   H793      1.0  0.62916  0.65037  0.15510  1.0000
  H   H794      1.0  0.89451  0.66569  0.41835  1.0000
  H   H795      1.0  0.71389  0.63044  0.17721  1.0000
  H   H796      1.0  0.89327  0.56846  0.08504  1.0000
  N   N33       1.0  0.59571  0.56007  0.22444  1.0000
  H   H797      1.0  0.93336  0.64817  0.11807  1.0000
  H   H798      1.0  0.99936  0.54207  0.37410  1.0000
  H   H799      1.0  0.80169  0.36981  0.42782  1.0000
  C   C469      1.0  0.58711  0.58184  0.20908  1.0000
  H   H800      1.0  0.64643  0.62126  0.24371  1.0000
  H   H801      1.0  0.95769  0.65137  0.38589  1.0000
  H   H802      1.0  0.82566  0.42159  0.42658  1.0000
  C   C470      1.0  0.98366  0.54371  0.29750  1.0000
  H   H803      1.0  0.67265  0.60840  0.24817  1.0000
  S   S147      1.0  0.58122  0.66367  0.18013  1.0000
  H   H804      1.0  0.93490  0.68239  0.46081  1.0000
  C   C471      1.0  0.62998  0.57411  0.22590  1.0000
  H   H805      1.0  0.89747  0.38631  0.39092  1.0000
  H   H806      1.0  0.64027  0.58322  0.20126  1.0000
  H   H807      1.0  0.69316  0.43681  0.47825  1.0000
  H   H808      1.0  0.97596  0.55690  0.28237  1.0000
  H   H809      1.0  0.58390  0.51490  0.15344  1.0000
  C   C472      1.0  0.99883  0.38417  0.35019  1.0000
  C   C473      1.0  0.85475  0.37226  0.41847  1.0000
  H   H810      1.0  0.60853  0.63084  0.22026  1.0000
  C   C474      1.0  0.58304  0.53183  0.20278  1.0000
  H   H811      1.0  0.86338  0.37562  0.35139  1.0000
  C   C475      1.0  0.91164  0.65830  0.41625  1.0000
  H   H812      1.0  0.89903  0.41625  0.41655  1.0000
  H   H813      1.0  0.81936  0.61536  0.09591  1.0000
  C   C476      1.0  0.01409  0.56642  0.31479  1.0000
  C   C477      1.0  0.00165  0.35890  0.34203  1.0000
  H   H814      1.0  0.59692  0.55494  0.15379  1.0000
  C   C478      1.0  0.83020  0.53743  0.01978  1.0000
  H   H815      1.0  0.82712  0.38658  0.32224  1.0000
  H   H816      1.0  0.72901  0.56733  0.27305  1.0000
  Fe  Fe73      1.0  0.55635  0.65849  0.22761  1.0000
  C   C479      1.0  0.84886  0.42881  0.41721  1.0000
  C   C480      1.0  0.02486  0.41209  0.35935  1.0000
  H   H817      1.0  0.99786  0.65225  0.47689  1.0000
  H   H818      1.0  0.76028  0.51234  0.27552  1.0000
  H   H819      1.0  0.03419  0.37456  0.48688  1.0000
  H   H820      1.0  0.91920  0.65756  0.15458  1.0000
  H   H821      1.0  0.87070  0.42163  0.37530  1.0000
  H   H822      1.0  0.53472  0.51283  0.24744  1.0000
  C   C481      1.0  0.98145  0.63693  0.45781  1.0000
  S   S148      1.0  0.55564  0.42245  0.21309  1.0000
  H   H823      1.0  0.74518  0.55905  0.23873  1.0000
  H   H824      1.0  0.64752  0.43079  0.29036  1.0000
  H   H825      1.0  0.75478  0.55383  0.28048  1.0000
  H   H826      1.0  0.56299  0.56926  0.20010  1.0000
  H   H827      1.0  0.53959  0.55079  0.25164  1.0000
  H   H828      1.0  0.68167  0.45713  0.31222  1.0000
  H   H829      1.0  0.74732  0.52020  0.21966  1.0000
  H   H830      1.0  0.65620  0.46923  0.29575  1.0000
  H   H831      1.0  0.73218  0.50020  0.30678  1.0000
  H   H832      1.0  0.74340  0.48062  0.18334  1.0000
  H   H833      1.0  0.55806  0.52168  0.19872  1.0000
  H   H834      1.0  0.75490  0.47589  0.22336  1.0000
  H   H835      1.0  0.56903  0.60903  0.23042  1.0000
  H   H836      1.0  0.78872  0.57170  0.47135  1.0000
  N   N34       1.0  0.87118  0.60621  0.11277  1.0000
  C   C482      1.0  0.86591  0.63294  0.11555  1.0000
  C   C483      1.0  0.89234  0.60894  0.14058  1.0000
  C   C484      1.0  0.84064  0.57743  0.11777  1.0000
  C   C485      1.0  0.88390  0.60669  0.07882  1.0000
  C   C486      1.0  0.84316  0.63339  0.09042  1.0000
  C   C487      1.0  0.92273  0.63984  0.14269  1.0000
  C   C488      1.0  0.84030  0.54686  0.11824  1.0000
  H   H837      1.0  0.02244  0.43145  0.36589  1.0000
  H   H838      1.0  0.85766  0.63397  0.14087  1.0000
  H   H839      1.0  0.88760  0.65508  0.11192  1.0000
  H   H840      1.0  0.89838  0.59079  0.13920  1.0000
  H   H841      1.0  0.88068  0.60535  0.16498  1.0000
  H   H842      1.0  0.83018  0.57887  0.14146  1.0000
  H   H843      1.0  0.82433  0.57479  0.09783  1.0000
  H   H844      1.0  0.86505  0.59531  0.06035  1.0000
  H   H845      1.0  0.89816  0.63060  0.06953  1.0000
  H   H846      1.0  0.97654  0.38209  0.34978  1.0000
  C   C489      1.0  0.94114  0.68161  0.43452  1.0000
  H   H847      1.0  0.59656  0.60837  0.25694  1.0000
  H   H848      1.0  0.85956  0.45334  0.41004  1.0000
  C   C490      1.0  0.83937  0.36310  0.36014  1.0000
  H   H849      1.0  0.62100  0.54075  0.16919  1.0000
  H   H850      1.0  0.85636  0.54637  0.13648  1.0000
  H   H851      1.0  0.84414  0.54067  0.09316  1.0000
  H   H852      1.0  0.81711  0.52832  0.12560  1.0000
  H   H853      1.0  0.98596  0.52783  0.28055  1.0000
  S   S149      1.0  0.59846  0.68639  0.25870  1.0000
  H   H854      1.0  0.63587  0.55626  0.23213  1.0000
  C   C491      1.0  0.71740  0.44842  0.48655  1.0000
  H   H855      1.0  0.59219  0.56792  0.27705  1.0000
  C   C492      1.0  0.59724  0.53636  0.16795  1.0000
  N   N35       1.0  0.83627  0.37672  0.39204  1.0000
  H   H856      1.0  0.91568  0.65719  0.38946  1.0000
  H   H857      1.0  0.76243  0.47027  0.28843  1.0000
  H   H858      1.0  0.93917  0.63716  0.15854  1.0000
  H   H859      1.0  0.98794  0.51131  0.34559  1.0000
  H   H860      1.0  0.71586  0.45064  0.20854  1.0000
  C   C493      1.0  0.02712  0.63755  0.36929  1.0000
  N   N36       1.0  0.71403  0.49256  0.25692  1.0000
  C   C494      1.0  0.70797  0.51827  0.26424  1.0000
  C   C495      1.0  0.68358  0.46301  0.25770  1.0000
  C   C496      1.0  0.72654  0.49740  0.22228  1.0000
  C   C497      1.0  0.73676  0.49375  0.28200  1.0000
  C   C498      1.0  0.73608  0.55117  0.26397  1.0000
  C   C499      1.0  0.66668  0.45496  0.29115  1.0000
  C   C500      1.0  0.73545  0.47446  0.20932  1.0000
  C   C501      1.0  0.73805  0.46415  0.28738  1.0000
  H   H861      1.0  0.69088  0.51782  0.24641  1.0000
  H   H862      1.0  0.69781  0.51547  0.28925  1.0000
  H   H863      1.0  0.68549  0.44304  0.25034  1.0000
  H   H864      1.0  0.66776  0.46357  0.23879  1.0000
  H   H865      1.0  0.70967  0.49715  0.20449  1.0000
  H   H866      1.0  0.56688  0.68617  0.49235  1.0000
  H   H867      1.0  0.58787  0.53218  0.26807  1.0000
  H   H868      1.0  0.84868  0.63103  0.06444  1.0000
  C   C502      1.0  0.01982  0.64632  0.33940  1.0000
  C   C503      1.0  0.84761  0.41020  0.38642  1.0000
  H   H869      1.0  0.92666  0.60618  0.08726  1.0000
  C   C504      1.0  0.97579  0.67268  0.39801  1.0000
  H   H870      1.0  0.60065  0.59222  0.18629  1.0000
  C   C505      1.0  0.88985  0.39125  0.41452  1.0000
  H   H871      1.0  0.58570  0.51358  0.21510  1.0000
  H   H872      1.0  0.86309  0.42777  0.43743  1.0000
  H   H873      1.0  0.70996  0.67014  0.20949  1.0000
  H   H874      1.0  0.83307  0.41332  0.36802  1.0000
  C   C506      1.0  0.90402  0.59204  0.07528  1.0000
  C   C507      1.0  0.59066  0.60865  0.23072  1.0000
  N   N37       1.0  0.03030  0.55251  0.33288  1.0000
  C   C508      1.0  0.80759  0.57279  0.48508  1.0000
  C   C509      1.0  0.58219  0.54935  0.25845  1.0000
  H   H875      1.0  0.83191  0.51848  0.02965  1.0000
  H   H876      1.0  0.90062  0.38499  0.43467  1.0000
  H   H877      1.0  0.97014  0.61331  0.46811  1.0000
  H   H878      1.0  0.64173  0.59437  0.27641  1.0000
  H   H879      1.0  0.54024  0.53014  0.28711  1.0000
  H   H880      1.0  0.93922  0.62593  0.43461  1.0000
  H   H881      1.0  0.90100  0.63511  0.42741  1.0000
  C   C510      1.0  0.00822  0.53039  0.35807  1.0000
  H   H882      1.0  0.72819  0.47282  0.47971  1.0000
  N   N38       1.0  0.96725  0.67546  0.43305  1.0000
  H   H883      1.0  0.94500  0.64373  0.47392  1.0000
  C   C511      1.0  0.95660  0.64508  0.45001  1.0000
  H   H884      1.0  0.78973  0.36712  0.38614  1.0000
  H   H885      1.0  0.01887  0.51375  0.30104  1.0000
  H   H886      1.0  0.96517  0.53049  0.31565  1.0000
  H   H887      1.0  0.62080  0.37021  0.11266  1.0000
  H   H888      1.0  0.84382  0.65559  0.09239  1.0000
  H   H889      1.0  0.84922  0.37720  0.44352  1.0000
  H   H890      1.0  0.00152  0.50013  0.39905  1.0000
  H   H891      1.0  0.02331  0.36516  0.41536  1.0000
  H   H892      1.0  0.59147  0.36434  0.08307  1.0000
  H   H893      1.0  0.99595  0.66956  0.39784  1.0000
  H   H894      1.0  0.00903  0.58051  0.33198  1.0000
  H   H895      1.0  0.62745  0.37273  0.06873  1.0000
  H   H896      1.0  0.02885  0.58240  0.29507  1.0000
  H   H897      1.0  0.02445  0.49813  0.36727  1.0000
  C   C512      1.0  0.01994  0.51431  0.38110  1.0000
  C   C513      1.0  0.81978  0.36302  0.33077  1.0000
  C   C514      1.0  0.03076  0.36194  0.34268  1.0000
  C   C515      1.0  0.80339  0.36126  0.40302  1.0000
  H   H898      1.0  0.77868  0.47612  0.49638  1.0000
  H   H899      1.0  0.77625  0.51057  0.49900  1.0000
  S   S150      1.0  0.66587  0.68980  0.20966  1.0000
  H   H900      1.0  0.97790  0.69056  0.34854  1.0000
  H   H901      1.0  0.53581  0.68340  0.44557  1.0000
  Fe  Fe74      1.0  0.77026  0.57264  0.67029  1.0000
  S   S151      1.0  0.76470  0.53637  0.63380  1.0000
  S   S152      1.0  0.80690  0.59447  0.71018  1.0000
  Fe  Fe75      1.0  0.72028  0.58104  0.63935  1.0000
  S   S153      1.0  0.71125  0.54571  0.60077  1.0000
  S   S154      1.0  0.68986  0.60179  0.63358  1.0000
  Fe  Fe76      1.0  0.71436  0.51785  0.64175  1.0000
  S   S155      1.0  0.67793  0.46794  0.63670  1.0000
  Fe  Fe77      1.0  0.76202  0.56689  0.59500  1.0000
  S   S156      1.0  0.77516  0.57109  0.54016  1.0000
  S   S157      1.0  0.71983  0.55153  0.68122  1.0000
  S   S158      1.0  0.77102  0.60476  0.63069  1.0000
  S   S159      1.0  0.58025  0.40305  0.75051  1.0000
  Fe  Fe78      1.0  0.88351  0.54661  0.85090  1.0000
  S   S160      1.0  0.87784  0.51367  0.89135  1.0000
  S   S161      1.0  0.84346  0.52446  0.81484  1.0000
  Fe  Fe79      1.0  0.94714  0.59426  0.87603  1.0000
  S   S162      1.0  0.94555  0.56481  0.91850  1.0000
  S   S163      1.0  0.98918  0.64069  0.86525  1.0000
  Fe  Fe80      1.0  0.92617  0.52673  0.88107  1.0000
  S   S164      1.0  0.94407  0.49431  0.87375  1.0000
  Fe  Fe81      1.0  0.89698  0.55423  0.92552  1.0000
  S   S165      1.0  0.87494  0.54436  0.97673  1.0000
  S   S166      1.0  0.93075  0.55682  0.83811  1.0000
  S   S167      1.0  0.89973  0.58674  0.88573  1.0000
  H   H902      1.0  0.58576  0.51813  0.76618  1.0000
  C   C516      1.0  0.72316  0.45751  0.58188  1.0000
  C   C517      1.0  0.87352  0.39246  0.86152  1.0000
  C   C518      1.0  0.86542  0.41176  0.87773  1.0000
  C   C519      1.0  0.88701  0.44301  0.88199  1.0000
  C   C520      1.0  0.91687  0.45501  0.87035  1.0000
  C   C521      1.0  0.92509  0.43556  0.85472  1.0000
  C   C522      1.0  0.90350  0.40434  0.85034  1.0000
  H   H903      1.0  0.84230  0.40262  0.88659  1.0000
  H   H904      1.0  0.88059  0.45773  0.89447  1.0000
  H   H905      1.0  0.94799  0.44483  0.84520  1.0000
  H   H906      1.0  0.90993  0.38962  0.83780  1.0000
  H   H907      1.0  0.69530  0.42517  0.53165  1.0000
  C   C523      1.0  0.02374  0.64201  0.85476  1.0000
  H   H908      1.0  0.00815  0.59535  0.86866  1.0000
  C   C524      1.0  0.73273  0.43532  0.59618  1.0000
  H   H909      1.0  0.62108  0.48589  0.70747  1.0000
  H   H910      1.0  0.70565  0.68637  0.63753  1.0000
  C   C525      1.0  0.76785  0.48527  0.54631  1.0000
  N   N39       1.0  0.73337  0.46899  0.54703  1.0000
  C   C526      1.0  0.83184  0.57486  0.53739  1.0000
  C   C527      1.0  0.03198  0.51610  0.89508  1.0000
  H   H911      1.0  0.57083  0.46463  0.76640  1.0000
  H   H912      1.0  0.77781  0.50579  0.56286  1.0000
  H   H913      1.0  0.83199  0.57543  0.56418  1.0000
  C   C528      1.0  0.81716  0.57447  0.73849  1.0000
  C   C529      1.0  0.80159  0.54244  0.73964  1.0000
  C   C530      1.0  0.81024  0.52748  0.76290  1.0000
  C   C531      1.0  0.83456  0.54436  0.78505  1.0000
  C   C532      1.0  0.85017  0.57635  0.78389  1.0000
  C   C533      1.0  0.84142  0.59130  0.76074  1.0000
  H   H914      1.0  0.78281  0.52929  0.72273  1.0000
  H   H915      1.0  0.79789  0.50271  0.76384  1.0000
  H   H916      1.0  0.86887  0.58959  0.80086  1.0000
  H   H917      1.0  0.85358  0.61609  0.75996  1.0000
  C   C534      1.0  0.65083  0.45057  0.66846  1.0000
  C   C535      1.0  0.65873  0.45906  0.70154  1.0000
  C   C536      1.0  0.63706  0.44373  0.72658  1.0000
  C   C537      1.0  0.60717  0.42059  0.71859  1.0000
  C   C538      1.0  0.59916  0.41239  0.68547  1.0000
  C   C539      1.0  0.62110  0.42710  0.66050  1.0000
  H   H918      1.0  0.68172  0.47691  0.70786  1.0000
  H   H919      1.0  0.64341  0.44995  0.75222  1.0000
  H   H920      1.0  0.57621  0.39447  0.67916  1.0000
  H   H921      1.0  0.61498  0.42034  0.63494  1.0000
  C   C540      1.0  0.67726  0.61522  0.66669  1.0000
  C   C541      1.0  0.65469  0.62288  0.66056  1.0000
  C   C542      1.0  0.64496  0.63500  0.68585  1.0000
  H   H922      1.0  0.61005  0.47376  0.75978  1.0000
  C   C543      1.0  0.67992  0.63134  0.72382  1.0000
  C   C544      1.0  0.68963  0.61917  0.69851  1.0000
  H   H923      1.0  0.64493  0.61971  0.63600  1.0000
  C   C545      1.0  0.80727  0.57335  0.51994  1.0000
  H   H924      1.0  0.69000  0.63490  0.74826  1.0000
  H   H925      1.0  0.70707  0.61338  0.70345  1.0000
  H   H926      1.0  0.57943  0.67823  0.54366  1.0000
  H   H927      1.0  0.78597  0.58669  0.89185  1.0000
  C   C546      1.0  0.60276  0.51321  0.75489  1.0000
  H   H928      1.0  0.57655  0.46069  0.67272  1.0000
  H   H929      1.0  0.78352  0.52808  0.95449  1.0000
  H   H930      1.0  0.61251  0.50801  0.65136  1.0000
  H   H931      1.0  0.72711  0.41585  0.57944  1.0000
  H   H932      1.0  0.82167  0.60244  0.84559  1.0000
  H   H933      1.0  0.67803  0.47198  0.56338  1.0000
  H   H934      1.0  0.74453  0.51803  0.95904  1.0000
  C   C547      1.0  0.59535  0.48215  0.76960  1.0000
  H   H935      1.0  0.61062  0.55087  0.68185  1.0000
  H   H936      1.0  0.75731  0.44743  0.60304  1.0000
  H   H937      1.0  0.02323  0.52810  0.87942  1.0000
  H   H938      1.0  0.56768  0.44898  0.71516  1.0000
  C   C548      1.0  0.83003  0.60119  0.87068  1.0000
  H   H939      1.0  0.73157  0.47701  0.59957  1.0000
  H   H940      1.0  0.76582  0.55031  0.84445  1.0000
  H   H941      1.0  0.64652  0.50603  0.65724  1.0000
  H   H942      1.0  0.56689  0.50305  0.68056  1.0000
  H   H943      1.0  0.87551  0.57740  0.53382  1.0000
  H   H944      1.0  0.84763  0.59458  0.86852  1.0000
  C   C549      1.0  0.80341  0.57955  0.89364  1.0000
  C   C550      1.0  0.84859  0.55415  0.99279  1.0000
  Fe  Fe82      1.0  0.62075  0.68077  0.74112  1.0000
  N   N40       1.0  0.60252  0.51535  0.71761  1.0000
  C   C551      1.0  0.61125  0.54787  0.70911  1.0000
  C   C552      1.0  0.62686  0.50986  0.70368  1.0000
  H   H945      1.0  0.75079  0.68677  0.65894  1.0000
  C   C553      1.0  0.57103  0.49364  0.70366  1.0000
  C   C554      1.0  0.59101  0.55939  0.72432  1.0000
  C   C555      1.0  0.56357  0.46088  0.69465  1.0000
  H   H946      1.0  0.63529  0.56420  0.71683  1.0000
  H   H947      1.0  0.77635  0.47040  0.55584  1.0000
  C   C556      1.0  0.76617  0.53369  0.94591  1.0000
  C   C557      1.0  0.85647  0.57594  0.52008  1.0000
  H   H948      1.0  0.66040  0.68045  0.62536  1.0000
  H   H949      1.0  0.59553  0.58067  0.71147  1.0000
  H   H950      1.0  0.56625  0.54260  0.72169  1.0000
  H   H951      1.0  0.59684  0.56564  0.75079  1.0000
  C   C558      1.0  0.01708  0.37331  0.89067  1.0000
  C   C559      1.0  0.82566  0.58618  0.99458  1.0000
  C   C560      1.0  0.65791  0.63973  0.71748  1.0000
  H   H952      1.0  0.73160  0.42909  0.52555  1.0000
  H   H953      1.0  0.86072  0.59206  0.95992  1.0000
  H   H954      1.0  0.59948  0.48482  0.79675  1.0000
  H   H955      1.0  0.64898  0.52397  0.71707  1.0000
  C   C561      1.0  0.00018  0.36317  0.83326  1.0000
  H   H956      1.0  0.91947  0.49704  0.74679  1.0000
  H   H957      1.0  0.73272  0.51007  0.55969  1.0000
  H   H958      1.0  0.81261  0.58529  0.91935  1.0000
  H   H959      1.0  0.93755  0.49039  0.78206  1.0000
  C   C562      1.0  0.76070  0.52956  0.90821  1.0000
  H   H960      1.0  0.98245  0.41320  0.88625  1.0000
  H   H961      1.0  0.74092  0.49230  0.85160  1.0000
  C   C563      1.0  0.72353  0.49203  0.54016  1.0000
  C   C564      1.0  0.99485  0.43859  0.88427  1.0000
  H   H962      1.0  0.80078  0.55188  0.83499  1.0000
  C   C565      1.0  0.63359  0.51681  0.66644  1.0000
  H   H963      1.0  0.64832  0.54182  0.66223  1.0000
  H   H964      1.0  0.77280  0.55725  0.95378  1.0000
  H   H965      1.0  0.74462  0.53766  0.90163  1.0000
  H   H966      1.0  0.01173  0.37275  0.91666  1.0000
  S   S168      1.0  0.58796  0.67188  0.69946  1.0000
  C   C566      1.0  0.03072  0.37482  0.82367  1.0000
  C   C567      1.0  0.02518  0.45217  0.90409  1.0000
  H   H967      1.0  0.53891  0.44677  0.68818  1.0000
  N   N41       1.0  0.78906  0.54557  0.88709  1.0000
  C   C568      1.0  0.78018  0.54016  0.85097  1.0000
  C   C569      1.0  0.81237  0.53639  0.89527  1.0000
  H   H968      1.0  0.82409  0.60525  0.98486  1.0000
  C   C570      1.0  0.76297  0.50670  0.83882  1.0000
  C   C571      1.0  0.80062  0.50186  0.90059  1.0000
  H   H969      1.0  0.74723  0.50463  0.90362  1.0000
  H   H970      1.0  0.62550  0.53088  0.76492  1.0000
  S   S169      1.0  0.64809  0.65699  0.74932  1.0000
  H   H971      1.0  0.83008  0.54450  0.87564  1.0000
  H   H972      1.0  0.82545  0.54836  0.91802  1.0000
  H   H973      1.0  0.84147  0.62479  0.88101  1.0000
  H   H974      1.0  0.97941  0.44563  0.89554  1.0000
  H   H975      1.0  0.62768  0.64096  0.68083  1.0000
  H   H976      1.0  0.77751  0.49624  0.84015  1.0000
  H   H977      1.0  0.75740  0.50660  0.81216  1.0000
  H   H978      1.0  0.81191  0.49417  0.88269  1.0000
  H   H979      1.0  0.77583  0.48624  0.89752  1.0000
  H   H980      1.0  0.80714  0.49816  0.92575  1.0000
  N   N42       1.0  0.86383  0.45490  0.77516  1.0000
  C   C572      1.0  0.84165  0.43257  0.80026  1.0000
  C   C573      1.0  0.87231  0.43679  0.75239  1.0000
  C   C574      1.0  0.84709  0.46724  0.75552  1.0000
  C   C575      1.0  0.89094  0.48035  0.79327  1.0000
  C   C576      1.0  0.82860  0.44567  0.82567  1.0000
  C   C577      1.0  0.88798  0.42088  0.76914  1.0000
  C   C578      1.0  0.86573  0.49167  0.72922  1.0000
  C   C579      1.0  0.92145  0.49795  0.77401  1.0000
  H   H981      1.0  0.82185  0.41284  0.78771  1.0000
  H   H982      1.0  0.85271  0.42249  0.81525  1.0000
  H   H983      1.0  0.88740  0.45094  0.73201  1.0000
  H   H984      1.0  0.85154  0.41854  0.73952  1.0000
  H   H985      1.0  0.82667  0.44820  0.74300  1.0000
  H   H986      1.0  0.83817  0.47839  0.77196  1.0000
  H   H987      1.0  0.88526  0.49753  0.80268  1.0000
  H   H988      1.0  0.89618  0.47107  0.81570  1.0000
  H   H989      1.0  0.84677  0.46642  0.83822  1.0000
  H   H990      1.0  0.81163  0.45062  0.81436  1.0000
  H   H991      1.0  0.81636  0.42827  0.84526  1.0000
  H   H992      1.0  0.89817  0.41317  0.74987  1.0000
  H   H993      1.0  0.90661  0.43629  0.78620  1.0000
  H   H994      1.0  0.87124  0.40000  0.78281  1.0000
  H   H995      1.0  0.87557  0.48347  0.71022  1.0000
  H   H996      1.0  0.88378  0.51318  0.74087  1.0000
  H   H997      1.0  0.85027  0.49776  0.71606  1.0000
  H   H998      1.0  0.93297  0.52260  0.78070  1.0000
  Fe  Fe83      1.0  0.55790  0.67415  0.73874  1.0000
  H   H999      1.0  0.55300  0.49111  0.72121  1.0000
  H   H1000     1.0  0.01239  0.49871  0.90972  1.0000
  C   C580      1.0  0.71916  0.44189  0.52380  1.0000
  C   C581      1.0  0.99352  0.36292  0.86685  1.0000
  H   H1001     1.0  0.03017  0.43139  0.83814  1.0000
  H   H1002     1.0  0.71992  0.42546  0.61957  1.0000
  H   H1003     1.0  0.02021  0.45840  0.92879  1.0000
  C   C582      1.0  0.68872  0.47919  0.53863  1.0000
  S   S170      1.0  0.58915  0.67923  0.78088  1.0000
  C   C583      1.0  0.84629  0.57866  0.98028  1.0000
  H   H1004     1.0  0.99710  0.44388  0.85758  1.0000
  H   H1005     1.0  0.69778  0.44504  0.58358  1.0000
  C   C584      1.0  0.02707  0.61648  0.85919  1.0000
  H   H1006     1.0  0.63326  0.68937  0.64181  1.0000
  H   H1007     1.0  0.02975  0.43321  0.90894  1.0000
  H   H1008     1.0  0.70592  0.68492  0.68112  1.0000
  H   H1009     1.0  0.67690  0.45999  0.52092  1.0000
  H   H1010     1.0  0.03014  0.49153  0.85138  1.0000
  H   H1011     1.0  0.68467  0.49776  0.53034  1.0000
  H   H1012     1.0  0.73351  0.50515  0.51712  1.0000
  H   H1013     1.0  0.80825  0.50974  0.51563  1.0000
  C   C585      1.0  0.78306  0.49583  0.51216  1.0000
  H   H1014     1.0  0.54982  0.94116  0.38632  1.0000
  S   S171      1.0  0.58526  0.88393  0.03096  1.0000
  Fe  Fe84      1.0  0.59298  0.82709  0.45662  1.0000
  Fe  Fe85      1.0  0.55619  0.85842  0.47114  1.0000
  S   S172      1.0  0.59885  0.79112  0.42889  1.0000
  H   H1015     1.0  0.62574  0.95751  0.04076  1.0000
  S   S173      1.0  0.62883  0.83974  0.04736  1.0000
  Fe  Fe86      1.0  0.62211  0.88979  0.49244  1.0000
  C   C586      1.0  0.54925  0.70586  0.45829  1.0000
  H   H1016     1.0  0.58350  0.85634  0.11125  1.0000
  S   S174      1.0  0.59943  0.87306  0.44272  1.0000
  C   C587      1.0  0.62205  0.82845  0.17832  1.0000
  H   H1017     1.0  0.59978  0.85473  0.21093  1.0000
  Fe  Fe87      1.0  0.59423  0.72721  0.24486  1.0000
  S   S175      1.0  0.62269  0.73735  0.19855  1.0000
  S   S176      1.0  0.59702  0.76770  0.27316  1.0000
  C   C588      1.0  0.00244  0.73332  0.44775  1.0000
  S   S177      1.0  0.55861  0.71408  0.12582  1.0000
  H   H1018     1.0  0.97108  0.71138  0.37850  1.0000
  H   H1019     1.0  0.62843  0.81923  0.15668  1.0000
  H   H1020     1.0  0.64196  0.01188  0.44191  1.0000
  H   H1021     1.0  0.54832  0.93757  0.44075  1.0000
  C   C589      1.0  0.60963  0.80411  0.06799  1.0000
  C   C590      1.0  0.57835  0.78391  0.06314  1.0000
  C   C591      1.0  0.56319  0.75613  0.08056  1.0000
  C   C592      1.0  0.57909  0.74846  0.10336  1.0000
  C   C593      1.0  0.61045  0.76845  0.10813  1.0000
  C   C594      1.0  0.62571  0.79614  0.09031  1.0000
  H   H1022     1.0  0.56558  0.78987  0.04651  1.0000
  C   C595      1.0  0.74953  0.02115  0.02952  1.0000
  H   H1023     1.0  0.62295  0.76258  0.12551  1.0000
  H   H1024     1.0  0.64996  0.81158  0.09413  1.0000
  C   C596      1.0  0.59746  0.78463  0.38548  1.0000
  C   C597      1.0  0.59916  0.75936  0.37381  1.0000
  C   C598      1.0  0.59858  0.75352  0.33958  1.0000
  C   C599      1.0  0.59663  0.77313  0.31660  1.0000
  C   C600      1.0  0.59490  0.79839  0.32827  1.0000
  C   C601      1.0  0.59516  0.80405  0.36251  1.0000
  H   H1025     1.0  0.62913  0.82902  0.23264  1.0000
  H   H1026     1.0  0.60008  0.73411  0.33098  1.0000
  H   H1027     1.0  0.59345  0.81374  0.31072  1.0000
  H   H1028     1.0  0.59391  0.82360  0.37110  1.0000
  H   H1029     1.0  0.58045  0.80594  0.12683  1.0000
  C   C602      1.0  0.53788  0.76245  0.18325  1.0000
  H   H1030     1.0  0.74372  0.96154  0.06561  1.0000
  C   C603      1.0  0.63913  0.98071  0.03159  1.0000
  H   H1031     1.0  0.57901  0.77674  0.21009  1.0000
  H   H1032     1.0  0.58196  0.77114  0.16744  1.0000
  H   H1033     1.0  0.59961  0.87094  0.15150  1.0000
  C   C604      1.0  0.55169  0.83328  0.20294  1.0000
  Fe  Fe88      1.0  0.57844  0.70615  0.17254  1.0000
  H   H1034     1.0  0.66784  0.94741  0.06789  1.0000
  C   C605      1.0  0.60759  0.74500  0.50002  1.0000
  C   C606      1.0  0.67235  0.93026  0.05620  1.0000
  C   C607      1.0  0.58063  0.83080  0.20692  1.0000
  H   H1035     1.0  0.60901  0.94398  0.46560  1.0000
  H   H1036     1.0  0.58516  0.99630  0.40066  1.0000
  H   H1037     1.0  0.61597  0.72875  0.49624  1.0000
  H   H1038     1.0  0.71848  0.98477  0.06110  1.0000
  H   H1039     1.0  0.55585  0.97486  0.44901  1.0000
  H   H1040     1.0  0.68974  0.92825  0.07062  1.0000
  C   C608      1.0  0.59441  0.98059  0.40198  1.0000
  H   H1041     1.0  0.64079  0.93802  0.42546  1.0000
  H   H1042     1.0  0.53533  0.71706  0.45728  1.0000
  H   H1043     1.0  0.56543  0.75997  0.48805  1.0000
  H   H1044     1.0  0.61761  0.99361  0.39077  1.0000
  C   C609      1.0  0.59624  0.85385  0.13233  1.0000
  H   H1045     1.0  0.56812  0.93348  0.49547  1.0000
  S   S178      1.0  0.66360  0.93784  0.49669  1.0000
  C   C610      1.0  0.63619  0.82271  0.20941  1.0000
  N   N43       1.0  0.58788  0.81550  0.17917  1.0000
  H   H1046     1.0  0.66152  0.83680  0.20797  1.0000
  C   C611      1.0  0.56513  0.95938  0.45297  1.0000
  H   H1047     1.0  0.65301  0.00093  0.08027  1.0000
  C   C612      1.0  0.65453  0.00537  0.05393  1.0000
  H   H1048     1.0  0.61880  0.85910  0.12244  1.0000
  H   H1049     1.0  0.63418  0.95893  0.39436  1.0000
  H   H1050     1.0  0.01552  0.69906  0.44560  1.0000
  C   C613      1.0  0.63577  0.95671  0.42147  1.0000
  H   H1051     1.0  0.00896  0.71640  0.37493  1.0000
  N   N44       1.0  0.71151  0.96539  0.01128  1.0000
  H   H1052     1.0  0.99114  0.69533  0.47913  1.0000
  H   H1053     1.0  0.65075  0.90781  0.05803  1.0000
  S   S179      1.0  0.54995  0.69835  0.21773  1.0000
  C   C614      1.0  0.57303  0.78146  0.18518  1.0000
  H   H1054     1.0  0.58524  0.72569  0.03553  1.0000
  H   H1055     1.0  0.63044  0.79852  0.21084  1.0000
  N   N45       1.0  0.59624  0.97229  0.43743  1.0000
  H   H1056     1.0  0.58732  0.92605  0.42975  1.0000
  H   H1057     1.0  0.58227  0.93699  0.37650  1.0000
  H   H1058     1.0  0.65566  0.97779  0.43153  1.0000
  C   C615      1.0  0.60573  0.94853  0.43942  1.0000
  H   H1059     1.0  0.55368  0.81366  0.14483  1.0000
  C   C616      1.0  0.57823  0.82070  0.14555  1.0000
  H   H1060     1.0  0.63450  0.85377  0.17506  1.0000
  H   H1061     1.0  0.60117  0.74431  0.39130  1.0000
  C   C617      1.0  0.61978  0.00071  0.45532  1.0000
  H   H1062     1.0  0.54751  0.84183  0.22652  1.0000
  H   H1063     1.0  0.60763  0.75401  0.47493  1.0000
  H   H1064     1.0  0.76919  0.01741  0.03122  1.0000
  C   C618      1.0  0.57415  0.95351  0.37868  1.0000
  H   H1065     1.0  0.57849  0.81893  0.23091  1.0000
  H   H1066     1.0  0.98513  0.73727  0.45985  1.0000
  H   H1067     1.0  0.57037  0.71960  0.44369  1.0000
  C   C619      1.0  0.68069  0.93773  0.01931  1.0000
  H   H1068     1.0  0.70221  0.00309  0.49090  1.0000
  S   S180      1.0  0.54750  0.81110  0.48105  1.0000
  H   H1069     1.0  0.00525  0.74072  0.42165  1.0000
  H   H1070     1.0  0.02457  0.74861  0.46039  1.0000
  C   C620      1.0  0.59831  0.73519  0.01225  1.0000
  H   H1071     1.0  0.57495  0.96256  0.35340  1.0000
  S   S181      1.0  0.62017  0.84522  0.50400  1.0000
  C   C621      1.0  0.56326  0.95210  0.49031  1.0000
  Fe  Fe89      1.0  0.60010  0.85128  0.01393  1.0000
  H   H1072     1.0  0.94746  0.70438  0.42434  1.0000
  H   H1073     1.0  0.62498  0.99472  0.47988  1.0000
  H   H1074     1.0  0.61647  0.75910  0.01778  1.0000
  C   C622      1.0  0.71873  0.99130  0.03488  1.0000
  H   H1075     1.0  0.55468  0.85005  0.18348  1.0000
  H   H1076     1.0  0.53948  0.94368  0.49872  1.0000
  H   H1077     1.0  0.72913  0.92327  0.04936  1.0000
  H   H1078     1.0  0.70064  0.99742  0.03330  1.0000
  C   C623      1.0  0.74427  0.94814  0.04436  1.0000
  Fe  Fe90      1.0  0.62330  0.69398  0.21015  1.0000
  C   C624      1.0  0.98401  0.69960  0.37423  1.0000
  H   H1079     1.0  0.53891  0.74086  0.07684  1.0000
  C   C625      1.0  0.99455  0.69980  0.45196  1.0000
  H   H1080     1.0  0.76830  0.95328  0.04342  1.0000
  H   H1081     1.0  0.59131  0.01818  0.47656  1.0000
  C   C626      1.0  0.55603  0.70046  0.49421  1.0000
  H   H1082     1.0  0.57849  0.97246  0.50551  1.0000
  H   H1083     1.0  0.65444  0.78205  0.50690  1.0000
  C   C627      1.0  0.68309  0.99873  0.50645  1.0000
  C   C628      1.0  0.73603  0.95698  0.01098  1.0000
  H   H1084     1.0  0.73825  0.79450  0.63794  1.0000
  H   H1085     1.0  0.66838  0.69770  0.68605  1.0000
  Fe  Fe91      1.0  0.57110  0.84238  0.94525  1.0000
  S   S182      1.0  0.61825  0.87472  0.96493  1.0000
  S   S183      1.0  0.55587  0.81382  0.89802  1.0000
  H   H1086     1.0  0.60880  0.72126  0.00609  1.0000
  H   H1087     1.0  0.60578  0.79572  0.99249  1.0000
  Fe  Fe92      1.0  0.59956  0.90487  0.98037  1.0000
  S   S184      1.0  0.62637  0.95585  0.96813  1.0000
  H   H1088     1.0  0.75338  0.76027  0.68678  1.0000
  S   S185      1.0  0.55343  0.87412  0.95686  1.0000
  C   C629      1.0  0.57630  0.73373  0.98490  1.0000
  C   C630      1.0  0.72332  0.74582  0.63030  1.0000
  Fe  Fe93      1.0  0.60951  0.72984  0.77331  1.0000
  S   S186      1.0  0.64396  0.73193  0.73692  1.0000
  S   S187      1.0  0.62849  0.76391  0.81613  1.0000
  Fe  Fe94      1.0  0.60888  0.72316  0.69778  1.0000
  S   S188      1.0  0.62766  0.74950  0.64987  1.0000
  H   H1089     1.0  0.76220  0.72094  0.63606  1.0000
  C   C631      1.0  0.63371  0.98775  0.54621  1.0000
  S   S189      1.0  0.57592  0.72488  0.73370  1.0000
  H   H1090     1.0  0.72894  0.71477  0.72613  1.0000
  C   C632      1.0  0.57716  0.79107  0.59716  1.0000
  C   C633      1.0  0.60777  0.80128  0.58987  1.0000
  C   C634      1.0  0.62331  0.78897  0.60688  1.0000
  C   C635      1.0  0.60838  0.76646  0.63130  1.0000
  C   C636      1.0  0.57797  0.75672  0.63907  1.0000
  C   C637      1.0  0.56242  0.76902  0.62203  1.0000
  H   H1091     1.0  0.61948  0.81864  0.57117  1.0000
  H   H1092     1.0  0.64692  0.79677  0.60097  1.0000
  H   H1093     1.0  0.56628  0.73938  0.65784  1.0000
  H   H1094     1.0  0.75752  0.97527  0.99945  1.0000
  C   C638      1.0  0.57719  0.80231  0.87360  1.0000
  C   C639      1.0  0.56187  0.77964  0.84927  1.0000
  C   C640      1.0  0.57737  0.76806  0.83096  1.0000
  C   C641      1.0  0.60845  0.77921  0.83671  1.0000
  C   C642      1.0  0.62394  0.80236  0.86052  1.0000
  C   C643      1.0  0.60844  0.81395  0.87884  1.0000
  C   C644      1.0  0.71858  0.77357  0.62710  1.0000
  H   H1095     1.0  0.56522  0.75027  0.81270  1.0000
  H   H1096     1.0  0.64805  0.81126  0.86490  1.0000
  H   H1097     1.0  0.62060  0.83173  0.89709  1.0000
  H   H1098     1.0  0.55215  0.70561  0.55937  1.0000
  H   H1099     1.0  0.74786  0.01403  0.59966  1.0000
  S   S190      1.0  0.57912  0.87708  0.51991  1.0000
  C   C645      1.0  0.64175  0.98615  0.99744  1.0000
  H   H1100     1.0  0.61452  0.98335  0.56164  1.0000
  N   N46       1.0  0.59004  0.74355  0.95090  1.0000
  C   C646      1.0  0.61830  0.77501  0.95169  1.0000
  C   C647      1.0  0.59913  0.72124  0.93832  1.0000
  C   C648      1.0  0.56668  0.74440  0.92855  1.0000
  C   C649      1.0  0.66044  0.96835  0.51354  1.0000
  C   C650      1.0  0.65604  0.01806  0.53857  1.0000
  H   H1101     1.0  0.53771  0.77058  0.84499  1.0000
  S   S191      1.0  0.55635  0.80469  0.57516  1.0000
  H   H1102     1.0  0.62727  0.78268  0.92627  1.0000
  H   H1103     1.0  0.67351  0.93390  0.95335  1.0000
  H   H1104     1.0  0.71398  0.73119  0.60780  1.0000
  H   H1105     1.0  0.69264  0.97330  0.62615  1.0000
  H   H1106     1.0  0.57631  0.75348  0.90373  1.0000
  H   H1107     1.0  0.59037  0.69595  0.58350  1.0000
  H   H1108     1.0  0.69741  0.77004  0.63893  1.0000
  H   H1109     1.0  0.63724  0.77472  0.96537  1.0000
  C   C651      1.0  0.61440  0.80074  0.96680  1.0000
  H   H1110     1.0  0.53879  0.76113  0.62791  1.0000
  H   H1111     1.0  0.66102  0.02092  0.95962  1.0000
  H   H1112     1.0  0.71623  0.77774  0.60053  1.0000
  N   N47       1.0  0.57578  0.72890  0.51438  1.0000
  N   N48       1.0  0.71154  0.72732  0.66161  1.0000
  H   H1113     1.0  0.63551  0.76622  0.54517  1.0000
  H   H1114     1.0  0.55112  0.89368  0.62643  1.0000
  C   C652      1.0  0.59142  0.70069  0.55648  1.0000
  C   C653      1.0  0.69059  0.98709  0.64619  1.0000
  H   H1115     1.0  0.69702  0.72078  0.73129  1.0000
  H   H1116     1.0  0.61997  0.72464  0.95140  1.0000
  C   C654      1.0  0.65893  0.01649  0.98598  1.0000
  C   C655      1.0  0.70970  0.97635  0.97695  1.0000
  C   C656      1.0  0.60618  0.72304  0.90091  1.0000
  H   H1117     1.0  0.69477  0.98656  0.97687  1.0000
  S   S192      1.0  0.55440  0.81677  0.99314  1.0000
  H   H1118     1.0  0.71197  0.94147  0.94581  1.0000
  C   C657      1.0  0.54144  0.87083  0.63788  1.0000
  Fe  Fe95      1.0  0.54053  0.85096  0.00643  1.0000
  H   H1119     1.0  0.72919  0.93691  0.99453  1.0000
  H   H1120     1.0  0.74842  0.75555  0.62812  1.0000
  H   H1121     1.0  0.58682  0.74003  0.56625  1.0000
  C   C658      1.0  0.63219  0.77258  0.51991  1.0000
  H   H1122     1.0  0.67008  0.98912  0.64201  1.0000
  C   C659      1.0  0.67770  0.71484  0.66574  1.0000
  H   H1123     1.0  0.61848  0.93982  0.53971  1.0000
  C   C660      1.0  0.56352  0.75046  0.51334  1.0000
  H   H1124     1.0  0.59933  0.80575  0.95148  1.0000
  H   H1125     1.0  0.69789  0.96315  0.92544  1.0000
  H   H1126     1.0  0.58546  0.71563  0.88545  1.0000
  Fe  Fe96      1.0  0.57502  0.83125  0.52747  1.0000
  H   H1127     1.0  0.76355  0.72161  0.68106  1.0000
  H   H1128     1.0  0.56016  0.76094  0.93792  1.0000
  H   H1129     1.0  0.61595  0.71315  0.54974  1.0000
  H   H1130     1.0  0.72234  0.76621  0.69292  1.0000
  C   C661      1.0  0.57589  0.71963  0.54985  1.0000
  C   C662      1.0  0.72819  0.74785  0.69062  1.0000
  H   H1131     1.0  0.66220  0.71624  0.61498  1.0000
  H   H1132     1.0  0.68660  0.97387  0.66947  1.0000
  C   C663      1.0  0.72153  0.73188  0.72468  1.0000
  H   H1133     1.0  0.67295  0.73293  0.67397  1.0000
  H   H1134     1.0  0.63706  0.82217  0.96773  1.0000
  H   H1135     1.0  0.62422  0.74628  0.89316  1.0000
  C   C664      1.0  0.63581  0.96300  0.53364  1.0000
  H   H1136     1.0  0.73440  0.74935  0.74407  1.0000
  H   H1137     1.0  0.56104  0.86783  0.64458  1.0000
  C   C665      1.0  0.73382  0.02422  0.59189  1.0000
  C   C666      1.0  0.65767  0.69939  0.63492  1.0000
  H   H1138     1.0  0.73252  0.99493  0.96855  1.0000
  C   C667      1.0  0.75043  0.70855  0.65896  1.0000
  C   C668      1.0  0.69762  0.95196  0.94923  1.0000
  H   H1139     1.0  0.71180  0.00475  0.58250  1.0000
  C   C669      1.0  0.68080  0.02351  0.51869  1.0000
  H   H1140     1.0  0.55083  0.90351  0.57031  1.0000
  H   H1141     1.0  0.61470  0.70726  0.89509  1.0000
  H   H1142     1.0  0.62715  0.79138  0.52127  1.0000
  C   C670      1.0  0.53624  0.71383  0.92409  1.0000
  H   H1143     1.0  0.56603  0.74745  0.99334  1.0000
  H   H1144     1.0  0.55681  0.70966  0.98434  1.0000
  H   H1145     1.0  0.57751  0.77084  0.52916  1.0000
  H   H1146     1.0  0.58140  0.69713  0.94395  1.0000
  H   H1147     1.0  0.53441  0.84285  0.59506  1.0000
  H   H1148     1.0  0.73897  0.01468  0.65645  1.0000
  C   C671      1.0  0.71680  0.70061  0.65985  1.0000
  H   H1149     1.0  0.68255  0.02452  0.60209  1.0000
  C   C672      1.0  0.71988  0.01873  0.65021  1.0000
  H   H1150     1.0  0.53870  0.69341  0.92584  1.0000
  H   H1151     1.0  0.66193  0.94041  0.00872  1.0000
  H   H1152     1.0  0.67815  0.91666  0.00755  1.0000
