data_image0
_chemical_formula_structural       FeHCHFeCSFeS2FeSHS3FeS2FeS2FeSFeS3C2H2C7H4C6H3C6HCH2C3H4CH5CHNC5HC2H11CFeH7CHCH3CSCH2C2H4CH4C3HCH2NC2HC3HCH4NH3CH12C2HC2HSCH11CH2CH3C4H2CHNH3CHCH2CHCSC2NH3SH7CHNH2SCH6CH3CH4FeCH2FeS2FeS2FeSHS3FeS2FeS2FeSFeS3C3HC7H4C6H4CHC2H2C5H2CHNCH4CH2NC2HCHC4HCHCH4CH7CH2NC8H20NH6CNH2CHC2H7C3HCHSH5CHSCHC2HCH3C2H4CH7CH3NCHCH10CHCFeCH2CH2CH3CH5FeS2FeS2FeSFeS3FeS2FeS2FeSFeS3HSHCNHSCHCHC2FeS2H4C2HC6H4C4HCH4C6H4C6H4C6H4C2H3C3FeH2NC4HCH2C2H5SCHCHNC6H15CSH3CH3NH3NCH5CH9NC3H3CH2CH4CH7CNC8H21C2H3CFeCHCHC3HCH4CHCHC2H2CH2FeHCHCH3CHC2H4CH4SHFe2SH2CHC2HSHFeS2FeS2FeSFeS3FeS2FeS2FeSFeS3FeS2H2FeSH2SC2SHCSH3C3HC6H4C6H4C6H4C6H4C6H5C2HCHC2H3CH2CSHCHNC7SH20NC5H7CH4CNH6FeH2C2H2CH2CH6CH6CH4CH2CH5CHCH5CH3CH3C2HNCHNH2C3HCHFeS2H3CH2CHFeHCH3C3H2CH7CHCH3FeSCFeS2FeS2FeSFeHS2FeS2FeS2FeSFeS3H2CH2C6H4C6H4CHCH2C6H5C2H3NC6H13CH3CH2CH3SH2CH2SC2H3C2HCH3NC8H20C2NC2H4SCH3CH4CH6SH2SFeSHFeS2FeS2FeSFeHS2FeS2FeS2FeSFeS3CHCH2C6H4C5H4C2HC2HC6H6CH5NCH2CH8CNH2NC5HC2HCH6CH2CHCH10C3HCH3C2H4CH2CNCH6C3H6C2SH6CHC2H3SH5NH5C3H4C3H4CH2C2HCH2C3FeH2FeSHFeS2FeSCFeSFeS3FeS2FeS2FeSFeS3C2HC7H4C6H5C2HSC6H5C3H3CH2CH2C3HCH3C3N2H2CHCH6CH2C2HNC8H20NC8H25C2H15CHCHCH3CH2CHFeSCFeS2FeSCFeSFeS3FeS2FeS2FeSFeS3CH2C7H3NC6H4C2H3C6H6C2HNC8H20SH3C2H10CHNC2HCNH2C5H8CH4CH2C2H2CH2CHC2H2CH4CH5CNH4CH5CH4C2HNH2C2H2CH5C2H5SHCH4CHC3HSH3FeSFeS2FeS2CH4FeS2FeSHFeSFeS3FeS2FeHSFeSFeCS2CH4CH4C6H4C6HCH3CHC6H4C6H4C2H2CH3C3HSCHNC6H8CH8C2HSC3H2FeHCHCSCH2FeHCH3SHCSNHC2HC2H13CH2NCHC3HC2H10SH10SC3H9C2H2CH2CFeH3CH2NC2HCNC4H3CH3CHCH4C3H2CH3SH3CH4CSFeHFeSFeS2FeS2H2FeSHFeS2FeSCFeSFeS2CFeS2FeHSFeSHCS2CH2C3HNH2C6H4C6H4CHC7HCH2C6H7C2H2SC3HCH3NHCHC2H2CHCH2SH3CH5CHC3HCNC6HCH9CH7CHCNHC2H3CH3CNH2CH2C2H3FeC2H2CH2SC2H5CHCH3NHCHC2HCHCH6CH12CH2CH5CH3CH2SCH3CH3CH2C2H2SHSFeCH4CH7SHFeHSHFeS2FeS2FeSFeS3FeSH2SCFeSFeSCSH3C8H4C6H5CH3C6H6C2H3SH3CHNH5C2HCHCH2C2H2SHCH3CH3C4H2SCH4CNH2CNHCHSH4NC8H27C2H6CH5C2H2NC8H4C2FeHSH4CH2FeHSHFeS2FeS2FeSFeS3FeS2HSHFeSFeSCSHSH2C7H4C6H4C3H2C6H4CHC2H2NC3HCSH4CH6CHNH3C3H4NH3CH3CH3CH6C3H3C2H3CH2CH3C2H5SC2H2CNC8H18SCH2CH5C2S2H2CH2FeH5CH4CHNFeHSCFeS2FeS2FeSFeS3FeS2HSNFeSFeS2H3NH3NCH2C6H4C6H5C3HC7H5NHCH4CH12C2HFeH2CHC2H4SCH2NC4HC3H7CH2CH10CHCHCH2SHCH2SHCHCHC2HSC3H5C3H8C2HCHCH7CHC3H10CH2FeCSHFeS2FeS2FeSFeS3FeS2FeSCFeSFeS2HCH3CH2SHC7H3C7H5C2H2SC6H5CNH2C3HC4H5CH2C2H4C2HSCH2CH5CH13CH3C2H3CH2CNH2CH4CH3CHCNC2H3CHCH4C2H2CHNC2H6CH2SH2SH4CH2FeS2HSH3FeHSFeS2FeSH2S2FeSCFeS2FeSFeS3FeHSCSFeS2HCH3CHSHFeHCH3C6H4C6H4C5H2CHC7H4C6H2SH2CHNHCH4C3HCHCHC3HC3SHNC5HCH12CNHCH2FeCH2CSNC6HCH5CH10CH4CHCHSHCH2CHNH2SH5FeH6CHC3H2CH3C2H3C2HC2H6FeHNH3C3NH2CH16CH2CH2CHCS2FeSHCHFeHSFeS2FeSFeHS2FeSHFeS2FeSFeS3FeCS2HFeS2FeHCH3CSCHCHCH2C6H4C6H6C3NH3C7H4C7HCH3CNCHC3SH7CH7CHCH2C3H3C3HCHC3H2C2H11CHC3H3CH2CH2NC4H4CH3CH5CH4CH2NH3CH5NCSHCHC2H4C2HCH4CH5CHCNH3CSCH7SH4CFe2H2CH5CHC2HSH2SC2H3CFeSHFeHSFeS2CHFeS3FeS2FeS2FeSFeS3FeC2H5C2SC7H3C6H4CHC9H5CH3CHC2HCH6C2NHNC8H14CH5C2H3SHCH3SH2CNC7H23CH6NH8CHC3H3NH3C2H3C2H2CHCH4CHCFeSCFeHSFeS2HCFeCS2FeS2FeS2FeSFeS3HC2H3C2H3C7H3C6H4C2HCHC6H8CH5NH7C2H3C2HCSHCH5C2HCSNHC2H3CNHSHCH2SH3C2FeH2CHC2H2CNC4HC3H10CH2CH7C2H4CH3CH9CH3CH3NC2HNHC2H3CH8CH10CHCH3FeSCFeS2FeS2FeSFeS3FeS2FeS2FeSFeS3C3H2C3HC7H4C6H5CH2C6H2CH2CH4CHCH2CH5SCHNC4H2CH3CH5CH2C2HNC2H7CH2CH9CH5NH6C3H7CHCH3C2H2CHNC6H17CH4NC2HCHCH9CFeSHFeS2FeS2FeSFeS3FeS2FeS2FeSFeS3C3H2C3HC7H4C6H5CH2C6H4CNC5H2CH13CH6NC8H21CH3SHCH2CH4C3HCHCNH3CHCH3NH5CH2CH2C2H2CHCH2C2H5NH6C2H2CHCH6FeSH2FeS2FeS2FeS2FeSFeS3FeS2FeS2FeSFeS3FeS2NHFeC2HC2HCH2CFeNHC7H4C6HSH2C6H4C6H4C6H6SHCHFeCH4CH4NH2CH3C3H2CH4CH2C2HCH6NC3HCHC2H2CH3CH2SHSCSH6NC8H19CH6C2H2CH2C2H5CH2CSC3H5CH3CNHC2H4CH7CH9C2H2FeHFeS2FeS2FeS2FeSFeS3FeS2FeS2FeSFeS3FeS2H4CH2CHCH2C2H2C7H4C6H4C6H4C6H4C6H5CH2C2HC2H4CNC5H11NHC3H7CS2H3CH2CSFeH4CHC2H3C3HSHCH3CSH4CNCH3CH3C2H3CH2CHCHCH3NHCNCH6NC2H2FeH2CH2SH2FeH3CH4CHCHSCH6CHC3H2C2H10CHCH4CH2C2H3CH2FeHSHFeS2FeS2FeSFeS3FeS2FeS2FeHFeS3H3C4H2C6H4C6H4C3H2C6H6NC4H11CH6C3H8CHCH5NCH2CNHCHC2HCH4C3H2CHC3H5C2H4CH7CH3SHCHCNC8H13CH2C4HCNCH3NH11SHCH4CHCSFeHSHFeS2FeS2FeSFeS3FeS2FeS2FeHFeS3H4C2H3C6H4C6H2CH2C2H2C6H5CNHC3HCHC2H8CHCH10C3H4C2HNH3CH2CH10C2HC2H5CH3CHC3HSNHC2NCH2C2H2CH5CH8CHCH2CH2SCH7CHCHC2S
_chemical_formula_sum              "Fe256 H3072 C1792 S512 N128"
_cell_length_a       76.309
_cell_length_b       76.3722
_cell_length_c       42.499
_cell_angle_alpha    89.7127
_cell_angle_beta     89.6332
_cell_angle_gamma    89.093

_space_group_name_H-M_alt    "P 1"
_space_group_IT_number       1

loop_
  _space_group_symop_operation_xyz
  'x, y, z'

loop_
  _atom_site_type_symbol
  _atom_site_label
  _atom_site_symmetry_multiplicity
  _atom_site_fract_x
  _atom_site_fract_y
  _atom_site_fract_z
  _atom_site_occupancy
  Fe  Fe1       1.0  0.16929  0.31600  0.03333  1.0000
  H   H1        1.0  0.15381  0.09539  0.38487  1.0000
  C   C1        1.0  0.01177  0.10442  0.28078  1.0000
  H   H2        1.0  0.03291  0.03235  0.32530  1.0000
  Fe  Fe2       1.0  0.15166  0.18785  0.05051  1.0000
  C   C2        1.0  0.14457  0.08822  0.36970  1.0000
  S   S1        1.0  0.14598  0.21526  0.06978  1.0000
  Fe  Fe3       1.0  0.14692  0.14898  0.06670  1.0000
  S   S2        1.0  0.16451  0.14038  0.02655  1.0000
  S   S3        1.0  0.13597  0.12631  0.09547  1.0000
  Fe  Fe4       1.0  0.18213  0.16219  0.04192  1.0000
  S   S4        1.0  0.21202  0.15901  0.04427  1.0000
  H   H3        1.0  0.04729  0.08519  0.21856  1.0000
  S   S5        1.0  0.14922  0.15288  0.46354  1.0000
  S   S6        1.0  0.16560  0.16923  0.08378  1.0000
  S   S7        1.0  0.13131  0.16805  0.03709  1.0000
  Fe  Fe5       1.0  0.09131  0.09897  0.33421  1.0000
  S   S8        1.0  0.07292  0.11289  0.30071  1.0000
  S   S9        1.0  0.09495  0.10614  0.38624  1.0000
  Fe  Fe6       1.0  0.09849  0.06910  0.28635  1.0000
  S   S10       1.0  0.08141  0.08136  0.24927  1.0000
  S   S11       1.0  0.11107  0.04187  0.28480  1.0000
  Fe  Fe7       1.0  0.09364  0.10668  0.26387  1.0000
  S   S12       1.0  0.10134  0.12940  0.23221  1.0000
  Fe  Fe8       1.0  0.06209  0.08652  0.28864  1.0000
  S   S13       1.0  0.03458  0.07557  0.28272  1.0000
  S   S14       1.0  0.11249  0.09408  0.29811  1.0000
  S   S15       1.0  0.07872  0.07296  0.32500  1.0000
  C   C3        1.0  0.10091  0.03257  0.22452  1.0000
  C   C4        1.0  0.10714  0.02690  0.25380  1.0000
  H   H4        1.0  0.07226  0.03536  0.27065  1.0000
  H   H5        1.0  0.09870  0.04639  0.22020  1.0000
  C   C5        1.0  0.11017  0.00888  0.25878  1.0000
  C   C6        1.0  0.11129  0.12814  0.19449  1.0000
  C   C7        1.0  0.11620  0.14372  0.17929  1.0000
  C   C8        1.0  0.12377  0.14341  0.14898  1.0000
  C   C9        1.0  0.12636  0.12748  0.13347  1.0000
  C   C10       1.0  0.12144  0.11188  0.14866  1.0000
  C   C11       1.0  0.11396  0.11218  0.17906  1.0000
  H   H6        1.0  0.11413  0.15613  0.19104  1.0000
  H   H7        1.0  0.12750  0.15550  0.13756  1.0000
  H   H8        1.0  0.12344  0.09949  0.13682  1.0000
  H   H9        1.0  0.11021  0.10010  0.19047  1.0000
  C   C12       1.0  0.13354  0.14023  0.44271  1.0000
  C   C13       1.0  0.13477  0.13929  0.40963  1.0000
  C   C14       1.0  0.12292  0.12931  0.39192  1.0000
  C   C15       1.0  0.10973  0.11986  0.40708  1.0000
  C   C16       1.0  0.10851  0.12074  0.44017  1.0000
  C   C17       1.0  0.12026  0.13087  0.45786  1.0000
  H   H10       1.0  0.14492  0.14649  0.39757  1.0000
  H   H11       1.0  0.12401  0.12899  0.36655  1.0000
  H   H12       1.0  0.09839  0.11353  0.45227  1.0000
  C   C18       1.0  0.17760  0.31132  0.43789  1.0000
  C   C19       1.0  0.22703  0.16376  0.07491  1.0000
  C   C20       1.0  0.14047  0.31935  0.40062  1.0000
  C   C21       1.0  0.25201  0.17042  0.12266  1.0000
  C   C22       1.0  0.22160  0.17061  0.10393  1.0000
  C   C23       1.0  0.14273  0.08574  0.43956  1.0000
  H   H13       1.0  0.20785  0.17325  0.10819  1.0000
  C   C24       1.0  0.16369  0.26827  0.02894  1.0000
  H   H14       1.0  0.24291  0.23020  0.03603  1.0000
  H   H15       1.0  0.19656  0.22407  0.01207  1.0000
  C   C25       1.0  0.15267  0.23550  0.05316  1.0000
  C   C26       1.0  0.15056  0.25093  0.07086  1.0000
  C   C27       1.0  0.15606  0.26722  0.05888  1.0000
  H   H16       1.0  0.10846  0.04052  0.36002  1.0000
  H   H17       1.0  0.20196  0.12204  0.05834  1.0000
  H   H18       1.0  0.14464  0.25026  0.09403  1.0000
  H   H19       1.0  0.15434  0.27896  0.07279  1.0000
  C   C28       1.0  0.24503  0.16056  0.06979  1.0000
  H   H20       1.0  0.18914  0.10411  0.07138  1.0000
  H   H21       1.0  0.16962  0.29723  0.47952  1.0000
  H   H22       1.0  0.13653  0.08563  0.46331  1.0000
  H   H23       1.0  0.01525  0.01741  0.32398  1.0000
  H   H24       1.0  0.17466  0.32503  0.44462  1.0000
  C   C29       1.0  0.07058  0.02253  0.31529  1.0000
  H   H25       1.0  0.02318  0.11255  0.28232  1.0000
  N   N1        1.0  0.18605  0.11947  0.13580  1.0000
  C   C30       1.0  0.17553  0.10297  0.13237  1.0000
  C   C31       1.0  0.18877  0.12682  0.10313  1.0000
  C   C32       1.0  0.17515  0.13230  0.15483  1.0000
  C   C33       1.0  0.20304  0.11488  0.15222  1.0000
  C   C34       1.0  0.16897  0.09441  0.16317  1.0000
  H   H26       1.0  0.22582  0.21856  0.09808  1.0000
  C   C35       1.0  0.18321  0.15025  0.16126  1.0000
  C   C36       1.0  0.21860  0.12734  0.14673  1.0000
  H   H27       1.0  0.16379  0.10542  0.11746  1.0000
  H   H28       1.0  0.18329  0.09263  0.11992  1.0000
  H   H29       1.0  0.19623  0.13912  0.10316  1.0000
  H   H30       1.0  0.17591  0.13057  0.09259  1.0000
  H   H31       1.0  0.16231  0.13477  0.14319  1.0000
  H   H32       1.0  0.17206  0.12692  0.17853  1.0000
  H   H33       1.0  0.20085  0.11380  0.17809  1.0000
  H   H34       1.0  0.20787  0.10173  0.14448  1.0000
  H   H35       1.0  0.15776  0.10191  0.17345  1.0000
  H   H36       1.0  0.16395  0.08118  0.15783  1.0000
  H   H37       1.0  0.17952  0.09277  0.18079  1.0000
  C   C37       1.0  0.16029  0.23655  0.02319  1.0000
  Fe  Fe9       1.0  0.14976  0.16037  0.99754  1.0000
  H   H38       1.0  0.22930  0.20258  0.06957  1.0000
  H   H39       1.0  0.18693  0.15728  0.13950  1.0000
  H   H40       1.0  0.19449  0.14908  0.17750  1.0000
  H   H41       1.0  0.17321  0.15863  0.17329  1.0000
  H   H42       1.0  0.22661  0.12777  0.16846  1.0000
  H   H43       1.0  0.21496  0.14101  0.14114  1.0000
  H   H44       1.0  0.22760  0.12218  0.12820  1.0000
  C   C38       1.0  0.04053  0.02934  0.24300  1.0000
  H   H45       1.0  0.12263  0.28772  0.46678  1.0000
  C   C39       1.0  0.05250  0.03644  0.21660  1.0000
  H   H46       1.0  0.15600  0.10036  0.32836  1.0000
  H   H47       1.0  0.20205  0.20759  0.11976  1.0000
  H   H48       1.0  0.21015  0.10834  0.08936  1.0000
  C   C40       1.0  0.19809  0.11444  0.07957  1.0000
  S   S16       1.0  0.16908  0.18170  0.00919  1.0000
  C   C41       1.0  0.16567  0.29798  0.45434  1.0000
  H   H49       1.0  0.15605  0.07993  0.44188  1.0000
  H   H50       1.0  0.07922  0.03246  0.32586  1.0000
  C   C42       1.0  0.15402  0.08690  0.33767  1.0000
  C   C43       1.0  0.24283  0.22688  0.06134  1.0000
  H   H51       1.0  0.06203  0.04596  0.22565  1.0000
  H   H52       1.0  0.18898  0.24174  0.06628  1.0000
  H   H53       1.0  0.01923  0.11347  0.17250  1.0000
  H   H54       1.0  0.18470  0.33231  0.18680  1.0000
  C   C44       1.0  0.14203  0.26775  0.45856  1.0000
  H   H55       1.0  0.17465  0.04618  0.36065  1.0000
  H   H56       1.0  0.09317  0.02488  0.17783  1.0000
  H   H57       1.0  0.16723  0.08080  0.34014  1.0000
  H   H58       1.0  0.11403  0.31869  0.45238  1.0000
  C   C45       1.0  0.12176  0.32173  0.47359  1.0000
  C   C46       1.0  0.06155  0.03066  0.28617  1.0000
  C   C47       1.0  0.03578  0.01119  0.28989  1.0000
  H   H59       1.0  0.25221  0.29111  0.16381  1.0000
  C   C48       1.0  0.19560  0.20939  0.06899  1.0000
  H   H60       1.0  0.12669  0.29666  0.41578  1.0000
  H   H61       1.0  0.10752  0.04965  0.39855  1.0000
  N   N2        1.0  0.04405  0.11949  0.19390  1.0000
  C   C49       1.0  0.05198  0.10333  0.17858  1.0000
  C   C50       1.0  0.04804  0.13476  0.17246  1.0000
  H   H62       1.0  0.16622  0.06649  0.39686  1.0000
  C   C51       1.0  0.05193  0.12122  0.22619  1.0000
  C   C52       1.0  0.04649  0.08552  0.19258  1.0000
  C   C53       1.0  0.06765  0.13891  0.16829  1.0000
  H   H63       1.0  0.02130  0.10595  0.21212  1.0000
  C   C54       1.0  0.05018  0.13925  0.24262  1.0000
  H   H64       1.0  0.04877  0.10293  0.15303  1.0000
  H   H65       1.0  0.06658  0.10348  0.17967  1.0000
  H   H66       1.0  0.04159  0.14706  0.18018  1.0000
  H   H67       1.0  0.04257  0.13250  0.14858  1.0000
  N   N3        1.0  0.20922  0.22206  0.05734  1.0000
  H   H68       1.0  0.18318  0.21114  0.05564  1.0000
  H   H69       1.0  0.04644  0.11127  0.24254  1.0000
  H   H70       1.0  0.06620  0.11803  0.22533  1.0000
  C   C55       1.0  0.19074  0.21057  0.10432  1.0000
  H   H71       1.0  0.18063  0.20071  0.10978  1.0000
  H   H72       1.0  0.03301  0.08214  0.18536  1.0000
  H   H73       1.0  0.06898  0.15061  0.15287  1.0000
  H   H74       1.0  0.07383  0.14215  0.19098  1.0000
  H   H75       1.0  0.07514  0.12814  0.15674  1.0000
  H   H76       1.0  0.16952  0.28517  0.44390  1.0000
  H   H77       1.0  0.20695  0.24261  0.09241  1.0000
  H   H78       1.0  0.04370  0.13763  0.26592  1.0000
  H   H79       1.0  0.04273  0.14945  0.22976  1.0000
  H   H80       1.0  0.06341  0.14450  0.24738  1.0000
  H   H81       1.0  0.11967  0.33584  0.47898  1.0000
  H   H82       1.0  0.20447  0.25646  0.02432  1.0000
  C   C56       1.0  0.12471  0.06344  0.36524  1.0000
  C   C57       1.0  0.13113  0.07548  0.41664  1.0000
  H   H83       1.0  0.23177  0.18409  0.48285  1.0000
  C   C58       1.0  0.14154  0.31797  0.46901  1.0000
  C   C59       1.0  0.11651  0.04662  0.37860  1.0000
  H   H84       1.0  0.17716  0.30989  0.41196  1.0000
  S   S17       1.0  0.14540  0.33370  0.03197  1.0000
  C   C60       1.0  0.17469  0.33846  0.17138  1.0000
  H   H85       1.0  0.20646  0.26828  0.05993  1.0000
  H   H86       1.0  0.12904  0.06050  0.34091  1.0000
  H   H87       1.0  0.11377  0.07314  0.36214  1.0000
  H   H88       1.0  0.13240  0.25846  0.46861  1.0000
  H   H89       1.0  0.03376  0.04103  0.25316  1.0000
  H   H90       1.0  0.11869  0.08308  0.41408  1.0000
  H   H91       1.0  0.01422  0.14438  0.19304  1.0000
  H   H92       1.0  0.24447  0.23893  0.07545  1.0000
  H   H93       1.0  0.14356  0.09976  0.43273  1.0000
  H   H94       1.0  0.01619  0.13565  0.23294  1.0000
  H   H95       1.0  0.25182  0.28911  0.10292  1.0000
  C   C61       1.0  0.22646  0.21686  0.07213  1.0000
  H   H96       1.0  0.05447  0.04276  0.29387  1.0000
  H   H97       1.0  0.19138  0.30860  0.44491  1.0000
  C   C62       1.0  0.20973  0.22083  0.02191  1.0000
  H   H98       1.0  0.14638  0.07990  0.31977  1.0000
  H   H99       1.0  0.11659  0.31416  0.49393  1.0000
  H   H100      1.0  0.15609  0.05212  0.33787  1.0000
  C   C63       1.0  0.13712  0.28651  0.46915  1.0000
  C   C64       1.0  0.02448  0.11702  0.19600  1.0000
  C   C65       1.0  0.14034  0.30147  0.41800  1.0000
  C   C66       1.0  0.23401  0.17384  0.12767  1.0000
  H   H101      1.0  0.19984  0.19559  0.06479  1.0000
  H   H102      1.0  0.24942  0.15532  0.04744  1.0000
  C   C67       1.0  0.16577  0.25285  0.01120  1.0000
  H   H103      1.0  0.22964  0.17891  0.15017  1.0000
  N   N4        1.0  0.14616  0.30125  0.45195  1.0000
  H   H104      1.0  0.16184  0.22484  0.00918  1.0000
  H   H105      1.0  0.15183  0.04974  0.40929  1.0000
  H   H106      1.0  0.05542  0.07507  0.18343  1.0000
  C   C68       1.0  0.09786  0.02035  0.20047  1.0000
  H   H107      1.0  0.12649  0.03681  0.38610  1.0000
  C   C69       1.0  0.20351  0.24028  0.06736  1.0000
  H   H108      1.0  0.18474  0.22343  0.11055  1.0000
  H   H109      1.0  0.11909  0.13139  0.48321  1.0000
  C   C70       1.0  0.21048  0.25589  0.04806  1.0000
  H   H110      1.0  0.14848  0.29216  0.40382  1.0000
  C   C71       1.0  0.01372  0.08618  0.28142  1.0000
  S   S18       1.0  0.17877  0.32548  0.08024  1.0000
  C   C72       1.0  0.15455  0.05898  0.38953  1.0000
  C   C73       1.0  0.16011  0.04732  0.36131  1.0000
  N   N5        1.0  0.13905  0.07124  0.38479  1.0000
  H   H111      1.0  0.15542  0.03374  0.36465  1.0000
  H   H112      1.0  0.24090  0.30742  0.11984  1.0000
  H   H113      1.0  0.13006  0.32838  0.40947  1.0000
  S   S19       1.0  0.17114  0.28834  0.01274  1.0000
  H   H114      1.0  0.06107  0.01869  0.33376  1.0000
  H   H115      1.0  0.13297  0.09707  0.36657  1.0000
  H   H116      1.0  0.04427  0.04356  0.19913  1.0000
  H   H117      1.0  0.12745  0.06330  0.42938  1.0000
  H   H118      1.0  0.22490  0.25585  0.04587  1.0000
  H   H119      1.0  0.14747  0.31783  0.49288  1.0000
  H   H120      1.0  0.13775  0.31723  0.37529  1.0000
  C   C74       1.0  0.01328  0.13256  0.20812  1.0000
  H   H121      1.0  0.07188  0.00901  0.24206  1.0000
  N   N6        1.0  0.04953  0.01878  0.26842  1.0000
  H   H122      1.0  0.07912  0.01118  0.30906  1.0000
  H   H123      1.0  0.14717  0.32957  0.45718  1.0000
  S   S20       1.0  0.18546  0.33550  0.00662  1.0000
  C   C75       1.0  0.25402  0.30120  0.11646  1.0000
  H   H124      1.0  0.17084  0.32841  0.15400  1.0000
  H   H125      1.0  0.21854  0.23059  0.01114  1.0000
  H   H126      1.0  0.14186  0.26634  0.43262  1.0000
  H   H127      1.0  0.13969  0.28718  0.49486  1.0000
  H   H128      1.0  0.15314  0.32612  0.40195  1.0000
  H   H129      1.0  0.20597  0.19264  0.01375  1.0000
  C   C76       1.0  0.02480  0.02458  0.30912  1.0000
  H   H130      1.0  0.02999  0.02169  0.23178  1.0000
  H   H131      1.0  0.01709  0.03357  0.29382  1.0000
  H   H132      1.0  0.15501  0.26357  0.46793  1.0000
  C   C77       1.0  0.21556  0.20295  0.00839  1.0000
  H   H133      1.0  0.22873  0.19876  0.01664  1.0000
  H   H134      1.0  0.05956  0.02589  0.20366  1.0000
  H   H135      1.0  0.25458  0.21829  0.06465  1.0000
  H   H136      1.0  0.22539  0.24228  0.49493  1.0000
  Fe  Fe10      1.0  0.16099  0.32767  0.54823  1.0000
  C   C78       1.0  0.24342  0.18784  0.52978  1.0000
  H   H137      1.0  0.22685  0.31856  0.65409  1.0000
  H   H138      1.0  0.15053  0.30804  0.96874  1.0000
  Fe  Fe11      1.0  0.16692  0.19818  0.54307  1.0000
  S   S21       1.0  0.18064  0.17710  0.51508  1.0000
  S   S22       1.0  0.17698  0.22550  0.53037  1.0000
  Fe  Fe12      1.0  0.14890  0.17023  0.58357  1.0000
  S   S23       1.0  0.16159  0.14757  0.55782  1.0000
  S   S24       1.0  0.13319  0.16827  0.62931  1.0000
  Fe  Fe13      1.0  0.18611  0.16362  0.56106  1.0000
  S   S25       1.0  0.21343  0.15219  0.57106  1.0000
  H   H139      1.0  0.05442  0.15551  0.88844  1.0000
  S   S26       1.0  0.13923  0.15757  0.94694  1.0000
  S   S27       1.0  0.17392  0.18529  0.58904  1.0000
  S   S28       1.0  0.14075  0.18497  0.53931  1.0000
  Fe  Fe14      1.0  0.09870  0.09039  0.81458  1.0000
  S   S29       1.0  0.08433  0.10972  0.78341  1.0000
  S   S30       1.0  0.11325  0.09379  0.86150  1.0000
  Fe  Fe15      1.0  0.08498  0.05830  0.77651  1.0000
  S   S31       1.0  0.06926  0.07559  0.74393  1.0000
  S   S32       1.0  0.08369  0.02831  0.77971  1.0000
  Fe  Fe16      1.0  0.09347  0.09250  0.74309  1.0000
  S   S33       1.0  0.10599  0.09836  0.69526  1.0000
  Fe  Fe17      1.0  0.06127  0.09136  0.78661  1.0000
  S   S34       1.0  0.03474  0.09930  0.80852  1.0000
  S   S35       1.0  0.10941  0.07429  0.77415  1.0000
  S   S36       1.0  0.07543  0.07291  0.81925  1.0000
  C   C79       1.0  0.09826  0.01758  0.72244  1.0000
  C   C80       1.0  0.08989  0.01275  0.75047  1.0000
  C   C81       1.0  0.13330  0.32091  0.64768  1.0000
  H   H140      1.0  0.10102  0.03123  0.71793  1.0000
  C   C82       1.0  0.24976  0.30358  0.67013  1.0000
  C   C83       1.0  0.11315  0.11808  0.67739  1.0000
  C   C84       1.0  0.12007  0.11742  0.64662  1.0000
  C   C85       1.0  0.12615  0.13266  0.63147  1.0000
  C   C86       1.0  0.12530  0.14876  0.64694  1.0000
  C   C87       1.0  0.11839  0.14943  0.67771  1.0000
  C   C88       1.0  0.11239  0.13418  0.69294  1.0000
  H   H141      1.0  0.12068  0.10504  0.63438  1.0000
  H   H142      1.0  0.13137  0.13194  0.60777  1.0000
  H   H143      1.0  0.11766  0.16184  0.68985  1.0000
  H   H144      1.0  0.10709  0.13488  0.71657  1.0000
  C   C89       1.0  0.13191  0.13959  0.92382  1.0000
  C   C90       1.0  0.12592  0.14283  0.89296  1.0000
  C   C91       1.0  0.12024  0.12908  0.87351  1.0000
  C   C92       1.0  0.12039  0.11180  0.88468  1.0000
  C   C93       1.0  0.12623  0.10856  0.91561  1.0000
  C   C94       1.0  0.13191  0.12232  0.93506  1.0000
  H   H145      1.0  0.12592  0.15609  0.88390  1.0000
  H   H146      1.0  0.11600  0.13185  0.84975  1.0000
  H   H147      1.0  0.12646  0.09529  0.92462  1.0000
  H   H148      1.0  0.13646  0.11955  0.95865  1.0000
  C   C95       1.0  0.22843  0.15833  0.60077  1.0000
  H   H149      1.0  0.12942  0.31091  0.66545  1.0000
  C   C96       1.0  0.23578  0.17315  0.64949  1.0000
  C   C97       1.0  0.22337  0.16864  0.62652  1.0000
  H   H150      1.0  0.23174  0.18102  0.66943  1.0000
  H   H151      1.0  0.20994  0.17319  0.62867  1.0000
  C   C98       1.0  0.15549  0.28101  0.55193  1.0000
  C   C99       1.0  0.17211  0.27848  0.53853  1.0000
  C   C100      1.0  0.17840  0.26141  0.53210  1.0000
  C   C101      1.0  0.16833  0.24664  0.53948  1.0000
  C   C102      1.0  0.15177  0.24917  0.55319  1.0000
  H   H152      1.0  0.17161  0.25351  0.98797  1.0000
  H   H153      1.0  0.18011  0.28967  0.53301  1.0000
  C   C103      1.0  0.10274  0.31958  0.63047  1.0000
  H   H154      1.0  0.21875  0.21226  0.60844  1.0000
  N   N7        1.0  0.13706  0.31989  0.92862  1.0000
  C   C104      1.0  0.25349  0.16789  0.64647  1.0000
  H   H155      1.0  0.09981  0.31140  0.65154  1.0000
  H   H156      1.0  0.20782  0.15271  0.72198  1.0000
  H   H157      1.0  0.25014  0.14487  0.57828  1.0000
  H   H158      1.0  0.12427  0.02139  0.91339  1.0000
  C   C105      1.0  0.12729  0.02443  0.88829  1.0000
  H   H159      1.0  0.06631  0.11903  0.95501  1.0000
  H   H160      1.0  0.02065  0.09519  0.74471  1.0000
  N   N8        1.0  0.11200  0.03378  0.87306  1.0000
  C   C106      1.0  0.11536  0.03707  0.83853  1.0000
  C   C107      1.0  0.09602  0.02247  0.87614  1.0000
  H   H161      1.0  0.21033  0.13019  0.73078  1.0000
  C   C108      1.0  0.10934  0.05118  0.88906  1.0000
  H   H162      1.0  0.14364  0.27821  0.92566  1.0000
  C   C109      1.0  0.07827  0.03166  0.86958  1.0000
  C   C110      1.0  0.22700  0.23561  0.51805  1.0000
  C   C111      1.0  0.03404  0.14010  0.86639  1.0000
  C   C112      1.0  0.12280  0.32826  0.94850  1.0000
  H   H163      1.0  0.10466  0.04532  0.82836  1.0000
  C   C113      1.0  0.00978  0.09597  0.76114  1.0000
  H   H164      1.0  0.21813  0.17691  0.51544  1.0000
  C   C114      1.0  0.23171  0.17798  0.50658  1.0000
  H   H165      1.0  0.24545  0.17870  0.54994  1.0000
  H   H166      1.0  0.23668  0.24321  0.53135  1.0000
  H   H167      1.0  0.09925  0.05943  0.87697  1.0000
  H   H168      1.0  0.07700  0.09655  0.91950  1.0000
  C   C115      1.0  0.23291  0.21653  0.51229  1.0000
  H   H169      1.0  0.23689  0.16438  0.50382  1.0000
  H   H170      1.0  0.02839  0.15322  0.86066  1.0000
  H   H171      1.0  0.06363  0.12097  0.83954  1.0000
  H   H172      1.0  0.09764  0.03882  0.93181  1.0000
  H   H173      1.0  0.10768  0.31331  0.58022  1.0000
  H   H174      1.0  0.11726  0.05095  0.93871  1.0000
  H   H175      1.0  0.09660  0.06198  0.93088  1.0000
  C   C116      1.0  0.07714  0.13248  0.91296  1.0000
  H   H176      1.0  0.14516  0.33763  0.68414  1.0000
  H   H177      1.0  0.07613  0.09330  0.87746  1.0000
  N   N9        1.0  0.17801  0.13862  0.67589  1.0000
  C   C117      1.0  0.17814  0.14022  0.64041  1.0000
  C   C118      1.0  0.17018  0.15541  0.68873  1.0000
  C   C119      1.0  0.16625  0.12357  0.68431  1.0000
  C   C120      1.0  0.19656  0.13517  0.68682  1.0000
  C   C121      1.0  0.18407  0.12369  0.62218  1.0000
  C   C122      1.0  0.17982  0.17227  0.67952  1.0000
  C   C123      1.0  0.16261  0.12026  0.71948  1.0000
  C   C124      1.0  0.20088  0.14004  0.72121  1.0000
  H   H178      1.0  0.16489  0.14408  0.63159  1.0000
  H   H179      1.0  0.18704  0.15078  0.63244  1.0000
  H   H180      1.0  0.16922  0.15531  0.71469  1.0000
  H   H181      1.0  0.15636  0.15705  0.68085  1.0000
  H   H182      1.0  0.15326  0.12540  0.67291  1.0000
  H   H183      1.0  0.17170  0.11099  0.67519  1.0000
  H   H184      1.0  0.20024  0.12112  0.68357  1.0000
  H   H185      1.0  0.20593  0.14264  0.67184  1.0000
  H   H186      1.0  0.19668  0.11817  0.63076  1.0000
  H   H187      1.0  0.17381  0.11355  0.62259  1.0000
  H   H188      1.0  0.18619  0.12719  0.59708  1.0000
  H   H189      1.0  0.19418  0.17112  0.68277  1.0000
  H   H190      1.0  0.17695  0.17602  0.65486  1.0000
  H   H191      1.0  0.17491  0.18324  0.69440  1.0000
  H   H192      1.0  0.17458  0.11571  0.73190  1.0000
  H   H193      1.0  0.15302  0.10948  0.72156  1.0000
  H   H194      1.0  0.15643  0.13167  0.73138  1.0000
  H   H195      1.0  0.24634  0.19779  0.60307  1.0000
  H   H196      1.0  0.18963  0.14041  0.73766  1.0000
  H   H197      1.0  0.13733  0.00871  0.84819  1.0000
  N   N10       1.0  0.06333  0.12823  0.88904  1.0000
  H   H198      1.0  0.08869  0.12351  0.91063  1.0000
  H   H199      1.0  0.06148  0.14239  0.95324  1.0000
  H   H200      1.0  0.21395  0.23623  0.52960  1.0000
  H   H201      1.0  0.08292  0.13455  0.96268  1.0000
  H   H202      1.0  0.04255  0.14203  0.91382  1.0000
  H   H203      1.0  0.09042  0.32712  0.62576  1.0000
  C   C125      1.0  0.21984  0.20264  0.55971  1.0000
  N   N11       1.0  0.23650  0.20541  0.54104  1.0000
  H   H204      1.0  0.21957  0.22994  0.57981  1.0000
  H   H205      1.0  0.08415  0.11948  0.85771  1.0000
  C   C126      1.0  0.21477  0.21664  0.58453  1.0000
  H   H206      1.0  0.14440  0.03907  0.83827  1.0000
  C   C127      1.0  0.11498  0.31690  0.97497  1.0000
  C   C128      1.0  0.10573  0.30661  0.60314  1.0000
  H   H207      1.0  0.06772  0.02181  0.87061  1.0000
  H   H208      1.0  0.15974  0.32204  0.66636  1.0000
  H   H209      1.0  0.08243  0.14578  0.90876  1.0000
  H   H210      1.0  0.13275  0.05998  0.83903  1.0000
  H   H211      1.0  0.24501  0.30702  0.69406  1.0000
  H   H212      1.0  0.13211  0.28778  0.95867  1.0000
  H   H213      1.0  0.12895  0.33288  0.59010  1.0000
  C   C129      1.0  0.01308  0.09764  0.79334  1.0000
  C   C130      1.0  0.13261  0.04636  0.83011  1.0000
  C   C131      1.0  0.05521  0.11072  0.89568  1.0000
  H   H214      1.0  0.22075  0.19011  0.57293  1.0000
  C   C132      1.0  0.07197  0.12764  0.85703  1.0000
  H   H215      1.0  0.13893  0.31324  0.62767  1.0000
  S   S37       1.0  0.14652  0.30232  0.55839  1.0000
  H   H216      1.0  0.24475  0.21689  0.49679  1.0000
  H   H217      1.0  0.24429  0.29039  0.66552  1.0000
  H   H218      1.0  0.20846  0.20118  0.54370  1.0000
  H   H219      1.0  0.11694  0.30507  0.90551  1.0000
  H   H220      1.0  0.09393  0.29840  0.60071  1.0000
  C   C133      1.0  0.07131  0.13199  0.94777  1.0000
  H   H221      1.0  0.05288  0.01847  0.68238  1.0000
  S   S38       1.0  0.18224  0.33233  0.51277  1.0000
  C   C134      1.0  0.14865  0.33125  0.66154  1.0000
  H   H222      1.0  0.04604  0.10720  0.87647  1.0000
  C   C135      1.0  0.04906  0.14206  0.89034  1.0000
  C   C136      1.0  0.06819  0.09516  0.89906  1.0000
  H   H223      1.0  0.11875  0.32930  0.87304  1.0000
  C   C137      1.0  0.24074  0.31641  0.64692  1.0000
  H   H224      1.0  0.08464  0.14328  0.82075  1.0000
  H   H225      1.0  0.24709  0.22656  0.56924  1.0000
  H   H226      1.0  0.03835  0.13456  0.84357  1.0000
  C   C138      1.0  0.24606  0.15285  0.59807  1.0000
  C   C139      1.0  0.07717  0.14550  0.84293  1.0000
  H   H227      1.0  0.07790  0.03753  0.84575  1.0000
  H   H228      1.0  0.16666  0.29845  0.91641  1.0000
  H   H229      1.0  0.06069  0.08296  0.90273  1.0000
  H   H230      1.0  0.14384  0.23794  0.55886  1.0000
  C   C140      1.0  0.10746  0.33670  0.69454  1.0000
  H   H231      1.0  0.20024  0.21782  0.58565  1.0000
  H   H232      1.0  0.17934  0.30552  0.94912  1.0000
  H   H233      1.0  0.09513  0.01629  0.89985  1.0000
  H   H234      1.0  0.11831  0.32868  0.70449  1.0000
  H   H235      1.0  0.04690  0.11120  0.91729  1.0000
  H   H236      1.0  0.13894  0.03301  0.88925  1.0000
  H   H237      1.0  0.19119  0.25965  0.52137  1.0000
  C   C141      1.0  0.13079  0.30335  0.91324  1.0000
  H   H238      1.0  0.12495  0.31160  0.99138  1.0000
  H   H239      1.0  0.13853  0.30071  0.89139  1.0000
  H   H240      1.0  0.11510  0.02467  0.82485  1.0000
  N   N12       1.0  0.11767  0.33170  0.63705  1.0000
  C   C142      1.0  0.15306  0.31695  0.94873  1.0000
  H   H241      1.0  0.10585  0.32516  0.98926  1.0000
  C   C143      1.0  0.13201  0.28619  0.93287  1.0000
  H   H242      1.0  0.15195  0.32693  0.88680  1.0000
  H   H243      1.0  0.08583  0.15291  0.85872  1.0000
  H   H244      1.0  0.24060  0.31101  0.62269  1.0000
  H   H245      1.0  0.15685  0.32942  0.96010  1.0000
  H   H246      1.0  0.06550  0.15361  0.83671  1.0000
  H   H247      1.0  0.12050  0.27800  0.92754  1.0000
  H   H248      1.0  0.13244  0.26807  0.56943  1.0000
  H   H249      1.0  0.24709  0.32932  0.64630  1.0000
  H   H250      1.0  0.11694  0.29754  0.60763  1.0000
  H   H251      1.0  0.13373  0.04726  0.80408  1.0000
  C   C144      1.0  0.14207  0.33281  0.90315  1.0000
  H   H252      1.0  0.07502  0.04179  0.88738  1.0000
  C   C145      1.0  0.14536  0.26628  0.55920  1.0000
  Fe  Fe18      1.0  0.15494  0.16294  0.51362  1.0000
  C   C146      1.0  0.10505  0.05051  0.92462  1.0000
  H   H253      1.0  0.12140  0.05911  0.88706  1.0000
  H   H254      1.0  0.09536  0.32886  0.69380  1.0000
  C   C147      1.0  0.16950  0.30984  0.93142  1.0000
  H   H255      1.0  0.02354  0.13166  0.87605  1.0000
  H   H256      1.0  0.11134  0.33223  0.93401  1.0000
  C   C148      1.0  0.25089  0.21351  0.56005  1.0000
  H   H257      1.0  0.10714  0.30611  0.96526  1.0000
  H   H258      1.0  0.17574  0.32026  0.91713  1.0000
  H   H259      1.0  0.10971  0.00863  0.67864  1.0000
  C   C149      1.0  0.13295  0.00696  0.87291  1.0000
  H   H260      1.0  0.09689  0.01121  0.85958  1.0000
  H   H261      1.0  0.21627  0.20396  0.98233  1.0000
  H   H262      1.0  0.05352  0.00620  0.71772  1.0000
  H   H263      1.0  0.22228  0.21082  0.49795  1.0000
  H   H264      1.0  0.25602  0.33686  0.69488  1.0000
  Fe  Fe19      1.0  0.07049  0.42418  0.26995  1.0000
  S   S39       1.0  0.07934  0.43752  0.31392  1.0000
  S   S40       1.0  0.04233  0.42383  0.25175  1.0000
  Fe  Fe20      1.0  0.10850  0.41836  0.24661  1.0000
  S   S41       1.0  0.11965  0.43117  0.28957  1.0000
  S   S42       1.0  0.12794  0.41419  0.20617  1.0000
  Fe  Fe21      1.0  0.09990  0.41576  0.31720  1.0000
  S   S43       1.0  0.10410  0.40420  0.36694  1.0000
  Fe  Fe22      1.0  0.09850  0.45168  0.28271  1.0000
  S   S44       1.0  0.10601  0.48041  0.28727  1.0000
  S   S45       1.0  0.08982  0.40146  0.27444  1.0000
  S   S46       1.0  0.08848  0.43977  0.23868  1.0000
  Fe  Fe23      1.0  0.09691  0.56699  0.17593  1.0000
  S   S47       1.0  0.09033  0.58752  0.21241  1.0000
  S   S48       1.0  0.09154  0.53762  0.17992  1.0000
  Fe  Fe24      1.0  0.10651  0.59473  0.12493  1.0000
  S   S49       1.0  0.10024  0.61676  0.15790  1.0000
  S   S50       1.0  0.11420  0.59769  0.07275  1.0000
  Fe  Fe25      1.0  0.11462  0.60088  0.19455  1.0000
  S   S51       1.0  0.13536  0.61604  0.22077  1.0000
  Fe  Fe26      1.0  0.07649  0.60161  0.17276  1.0000
  S   S52       1.0  0.05087  0.61705  0.17851  1.0000
  S   S53       1.0  0.12228  0.57937  0.16060  1.0000
  S   S54       1.0  0.08161  0.58059  0.13723  1.0000
  H   H265      1.0  0.24208  0.63348  0.00194  1.0000
  S   S55       1.0  0.17122  0.36610  0.05362  1.0000
  H   H266      1.0  0.09167  0.64920  0.44544  1.0000
  C   C150      1.0  0.19640  0.61533  0.04737  1.0000
  N   N13       1.0  0.20536  0.64068  0.00938  1.0000
  H   H267      1.0  0.18622  0.66178  0.00652  1.0000
  S   S56       1.0  0.16360  0.36249  0.44514  1.0000
  C   C151      1.0  0.09673  0.65603  0.31887  1.0000
  H   H268      1.0  0.22937  0.37309  0.20737  1.0000
  C   C152      1.0  0.22935  0.66677  0.35381  1.0000
  H   H269      1.0  0.05384  0.59702  0.04114  1.0000
  C   C153      1.0  0.24634  0.34359  0.14090  1.0000
  C   C154      1.0  0.23812  0.35059  0.08701  1.0000
  Fe  Fe27      1.0  0.15338  0.65337  0.39120  1.0000
  S   S57       1.0  0.13553  0.63399  0.36684  1.0000
  S   S58       1.0  0.16992  0.64377  0.43182  1.0000
  H   H270      1.0  0.02232  0.60544  0.10566  1.0000
  H   H271      1.0  0.12714  0.60863  0.41566  1.0000
  H   H272      1.0  0.05160  0.63172  0.25588  1.0000
  H   H273      1.0  0.17481  0.36433  0.21755  1.0000
  C   C155      1.0  0.13585  0.62731  0.00247  1.0000
  C   C156      1.0  0.17420  0.39235  0.21171  1.0000
  H   H274      1.0  0.12737  0.63584  0.47014  1.0000
  C   C157      1.0  0.13569  0.62027  0.26165  1.0000
  C   C158      1.0  0.12438  0.61189  0.28267  1.0000
  C   C159      1.0  0.12467  0.61608  0.31490  1.0000
  C   C160      1.0  0.13623  0.62868  0.32637  1.0000
  C   C161      1.0  0.14760  0.63699  0.30538  1.0000
  C   C162      1.0  0.14735  0.63274  0.27317  1.0000
  H   H275      1.0  0.11550  0.60212  0.27409  1.0000
  H   H276      1.0  0.11591  0.60951  0.33101  1.0000
  H   H277      1.0  0.15657  0.64669  0.31392  1.0000
  H   H278      1.0  0.15618  0.63924  0.25705  1.0000
  C   C163      1.0  0.12439  0.61535  0.05226  1.0000
  C   C164      1.0  0.12822  0.63120  0.06689  1.0000
  C   C165      1.0  0.13578  0.64498  0.04940  1.0000
  C   C166      1.0  0.13963  0.64318  0.01708  1.0000
  H   H279      1.0  0.02309  0.38434  0.23918  1.0000
  C   C167      1.0  0.12830  0.61352  0.01996  1.0000
  H   H280      1.0  0.12530  0.63288  0.09164  1.0000
  H   H281      1.0  0.13863  0.65718  0.06101  1.0000
  H   H282      1.0  0.00727  0.53170  0.19788  1.0000
  H   H283      1.0  0.13998  0.59711  0.48161  1.0000
  C   C168      1.0  0.12110  0.39291  0.38815  1.0000
  C   C169      1.0  0.13657  0.38681  0.37376  1.0000
  C   C170      1.0  0.14938  0.37762  0.39157  1.0000
  C   C171      1.0  0.14708  0.37455  0.42408  1.0000
  C   C172      1.0  0.13168  0.38079  0.43852  1.0000
  C   C173      1.0  0.11880  0.38983  0.42065  1.0000
  H   H284      1.0  0.13858  0.38899  0.34884  1.0000
  H   H285      1.0  0.16120  0.37286  0.38006  1.0000
  H   H286      1.0  0.12963  0.37855  0.46341  1.0000
  H   H287      1.0  0.10690  0.39441  0.43211  1.0000
  C   C174      1.0  0.12896  0.39587  0.18087  1.0000
  C   C175      1.0  0.13892  0.39697  0.15297  1.0000
  C   C176      1.0  0.14117  0.38231  0.13331  1.0000
  C   C177      1.0  0.13367  0.36633  0.14164  1.0000
  C   C178      1.0  0.12346  0.36534  0.16923  1.0000
  C   C179      1.0  0.12106  0.38005  0.18873  1.0000
  H   H288      1.0  0.14506  0.40917  0.14668  1.0000
  H   H289      1.0  0.14888  0.38327  0.11195  1.0000
  H   H290      1.0  0.11757  0.35304  0.17579  1.0000
  H   H291      1.0  0.11340  0.37903  0.21017  1.0000
  C   C180      1.0  0.10069  0.49675  0.25872  1.0000
  C   C181      1.0  0.10802  0.51350  0.26111  1.0000
  C   C182      1.0  0.10491  0.52643  0.23782  1.0000
  C   C183      1.0  0.09442  0.52272  0.21186  1.0000
  C   C184      1.0  0.08680  0.50611  0.20990  1.0000
  C   C185      1.0  0.08987  0.49322  0.23316  1.0000
  H   H292      1.0  0.11640  0.51640  0.28077  1.0000
  H   H293      1.0  0.11093  0.53912  0.23959  1.0000
  H   H294      1.0  0.07861  0.50312  0.19001  1.0000
  H   H295      1.0  0.08398  0.48049  0.23112  1.0000
  C   C186      1.0  0.02164  0.41771  0.30473  1.0000
  C   C187      1.0  0.02265  0.42470  0.27430  1.0000
  H   H296      1.0  0.07247  0.59503  0.06464  1.0000
  H   H297      1.0  0.03335  0.41255  0.31586  1.0000
  H   H298      1.0  0.10966  0.64863  0.19261  1.0000
  C   C188      1.0  0.09329  0.61371  0.43624  1.0000
  C   C189      1.0  0.03018  0.60710  0.17361  1.0000
  C   C190      1.0  0.02885  0.58950  0.16511  1.0000
  Fe  Fe28      1.0  0.16215  0.35392  0.00822  1.0000
  H   H299      1.0  0.04060  0.58156  0.16212  1.0000
  H   H300      1.0  0.08792  0.62217  0.28426  1.0000
  N   N14       1.0  0.18822  0.36943  0.17325  1.0000
  C   C191      1.0  0.19102  0.38481  0.15144  1.0000
  C   C192      1.0  0.23361  0.34453  0.11701  1.0000
  C   C193      1.0  0.20493  0.36330  0.18885  1.0000
  C   C194      1.0  0.20495  0.38206  0.12537  1.0000
  H   H301      1.0  0.16422  0.39301  0.23087  1.0000
  C   C195      1.0  0.01227  0.58220  0.15997  1.0000
  H   H302      1.0  0.19482  0.39674  0.16424  1.0000
  H   H303      1.0  0.17848  0.38854  0.13971  1.0000
  C   C196      1.0  0.07147  0.66161  0.25521  1.0000
  C   C197      1.0  0.09397  0.61942  0.40132  1.0000
  H   H304      1.0  0.20222  0.35252  0.20579  1.0000
  H   H305      1.0  0.21412  0.35706  0.17171  1.0000
  H   H306      1.0  0.20625  0.39440  0.11165  1.0000
  H   H307      1.0  0.21807  0.37887  0.13511  1.0000
  H   H308      1.0  0.13578  0.48538  0.43485  1.0000
  S   S59       1.0  0.21903  0.66196  0.41651  1.0000
  C   C198      1.0  0.10651  0.61060  0.48831  1.0000
  H   H309      1.0  0.02635  0.63716  0.02595  1.0000
  C   C199      1.0  0.01474  0.61720  0.17738  1.0000
  H   H310      1.0  0.09705  0.64268  0.32934  1.0000
  N   N15       1.0  0.10393  0.46219  0.39510  1.0000
  C   C200      1.0  0.09834  0.44361  0.40136  1.0000
  C   C201      1.0  0.11436  0.46205  0.36480  1.0000
  C   C202      1.0  0.08749  0.47332  0.39141  1.0000
  C   C203      1.0  0.08575  0.44082  0.42948  1.0000
  C   C204      1.0  0.13150  0.45105  0.36509  1.0000
  C   C205      1.0  0.08916  0.49078  0.37331  1.0000
  H   H311      1.0  0.09171  0.43823  0.38032  1.0000
  H   H312      1.0  0.10986  0.43486  0.40589  1.0000
  H   H313      1.0  0.11796  0.47537  0.35695  1.0000
  H   H314      1.0  0.10620  0.45709  0.34528  1.0000
  H   H315      1.0  0.07728  0.46595  0.37851  1.0000
  H   H316      1.0  0.08164  0.47647  0.41481  1.0000
  H   H317      1.0  0.07308  0.44791  0.42646  1.0000
  H   H318      1.0  0.08267  0.42665  0.43093  1.0000
  H   H319      1.0  0.09179  0.44432  0.45219  1.0000
  H   H320      1.0  0.13856  0.45317  0.34248  1.0000
  H   H321      1.0  0.12894  0.43680  0.36661  1.0000
  H   H322      1.0  0.07675  0.49846  0.37599  1.0000
  H   H323      1.0  0.16097  0.37236  0.18735  1.0000
  H   H324      1.0  0.09987  0.49902  0.38180  1.0000
  H   H325      1.0  0.10100  0.63181  0.39753  1.0000
  C   C206      1.0  0.06276  0.62281  0.26155  1.0000
  S   S60       1.0  0.13752  0.34709  0.11944  1.0000
  H   H326      1.0  0.07028  0.61570  0.00164  1.0000
  H   H327      1.0  0.07195  0.63537  0.30291  1.0000
  H   H328      1.0  0.10263  0.66900  0.27501  1.0000
  C   C207      1.0  0.07743  0.63212  0.27944  1.0000
  H   H329      1.0  0.11518  0.49663  0.42824  1.0000
  H   H330      1.0  0.11196  0.64777  0.27965  1.0000
  H   H331      1.0  0.07968  0.59447  0.00841  1.0000
  N   N16       1.0  0.08514  0.64785  0.26314  1.0000
  H   H332      1.0  0.22460  0.65825  0.02877  1.0000
  H   H333      1.0  0.06333  0.64188  0.03344  1.0000
  H   H334      1.0  0.19537  0.61935  0.07241  1.0000
  N   N17       1.0  0.10999  0.61563  0.45451  1.0000
  C   C208      1.0  0.12391  0.60400  0.43986  1.0000
  H   H335      1.0  0.12533  0.60137  0.00831  1.0000
  H   H336      1.0  0.19945  0.65057  0.07237  1.0000
  H   H337      1.0  0.03578  0.61583  0.02105  1.0000
  H   H338      1.0  0.14782  0.61566  0.45934  1.0000
  H   H339      1.0  0.08453  0.66296  0.32588  1.0000
  C   C209      1.0  0.25246  0.66486  0.39227  1.0000
  H   H340      1.0  0.21906  0.61595  0.01648  1.0000
  H   H341      1.0  0.06806  0.63990  0.12639  1.0000
  H   H342      1.0  0.20009  0.60120  0.04797  1.0000
  H   H343      1.0  0.08936  0.59975  0.43583  1.0000
  H   H344      1.0  0.11909  0.59046  0.43663  1.0000
  H   H345      1.0  0.03083  0.59626  0.07052  1.0000
  H   H346      1.0  0.08197  0.62043  0.44794  1.0000
  H   H347      1.0  0.17013  0.40236  0.19406  1.0000
  H   H348      1.0  0.08045  0.62219  0.39295  1.0000
  N   N18       1.0  0.06014  0.62077  0.06704  1.0000
  C   C210      1.0  0.21525  0.37692  0.20757  1.0000
  C   C211      1.0  0.06530  0.60446  0.04902  1.0000
  C   C212      1.0  0.04765  0.61603  0.09332  1.0000
  H   H349      1.0  0.08648  0.63120  0.06383  1.0000
  H   H350      1.0  0.08283  0.63778  0.21550  1.0000
  H   H351      1.0  0.08318  0.61675  0.09598  1.0000
  C   C213      1.0  0.14145  0.60278  0.45770  1.0000
  H   H352      1.0  0.10016  0.60910  0.38643  1.0000
  H   H353      1.0  0.05395  0.60630  0.10951  1.0000
  C   C214      1.0  0.03887  0.62989  0.02167  1.0000
  H   H354      1.0  0.01146  0.56866  0.15294  1.0000
  H   H355      1.0  0.02156  0.61844  0.07135  1.0000
  H   H356      1.0  0.08800  0.64780  0.11039  1.0000
  H   H357      1.0  0.22032  0.34066  0.12177  1.0000
  C   C215      1.0  0.21105  0.62558  0.03021  1.0000
  H   H358      1.0  0.21560  0.66647  0.34791  1.0000
  H   H359      1.0  0.04433  0.62765  0.10797  1.0000
  H   H360      1.0  0.21980  0.63040  0.04908  1.0000
  H   H361      1.0  0.12448  0.45790  0.42977  1.0000
  H   H362      1.0  0.12875  0.48875  0.39608  1.0000
  H   H363      1.0  0.21489  0.39020  0.19722  1.0000
  H   H364      1.0  0.06794  0.65458  0.09252  1.0000
  C   C216      1.0  0.10254  0.64845  0.46259  1.0000
  N   N19       1.0  0.13131  0.46934  0.17385  1.0000
  C   C217      1.0  0.14268  0.48526  0.17091  1.0000
  C   C218      1.0  0.14046  0.45430  0.15731  1.0000
  C   C219      1.0  0.12840  0.46436  0.20779  1.0000
  C   C220      1.0  0.11376  0.47351  0.15935  1.0000
  C   C221      1.0  0.13652  0.50160  0.18943  1.0000
  C   C222      1.0  0.14054  0.45511  0.12105  1.0000
  C   C223      1.0  0.14508  0.46123  0.22741  1.0000
  C   C224      1.0  0.10046  0.45842  0.15909  1.0000
  H   H365      1.0  0.15638  0.48219  0.17815  1.0000
  H   H366      1.0  0.14372  0.48951  0.14591  1.0000
  H   H367      1.0  0.13477  0.44154  0.16414  1.0000
  H   H368      1.0  0.15439  0.45317  0.16477  1.0000
  H   H369      1.0  0.12016  0.47430  0.22007  1.0000
  H   H370      1.0  0.12077  0.45212  0.20957  1.0000
  H   H371      1.0  0.10712  0.48440  0.17217  1.0000
  H   H372      1.0  0.11520  0.47880  0.13501  1.0000
  H   H373      1.0  0.14637  0.51205  0.18648  1.0000
  H   H374      1.0  0.12402  0.50710  0.18025  1.0000
  H   H375      1.0  0.13529  0.49911  0.21505  1.0000
  H   H376      1.0  0.14622  0.46740  0.11192  1.0000
  H   H377      1.0  0.14872  0.44408  0.11186  1.0000
  H   H378      1.0  0.12719  0.45344  0.11144  1.0000
  H   H379      1.0  0.15321  0.47308  0.22890  1.0000
  H   H380      1.0  0.15297  0.44999  0.21839  1.0000
  H   H381      1.0  0.14112  0.45788  0.25188  1.0000
  H   H382      1.0  0.09049  0.46037  0.17798  1.0000
  H   H383      1.0  0.10639  0.44523  0.16236  1.0000
  H   H384      1.0  0.09357  0.45825  0.13616  1.0000
  H   H385      1.0  0.12192  0.63772  0.43045  1.0000
  C   C225      1.0  0.07471  0.64333  0.10395  1.0000
  C   C226      1.0  0.07671  0.62735  0.08200  1.0000
  H   H386      1.0  0.18689  0.39588  0.22205  1.0000
  H   H387      1.0  0.20112  0.37190  0.10831  1.0000
  H   H388      1.0  0.21065  0.37746  0.23241  1.0000
  C   C227      1.0  0.11627  0.63424  0.45376  1.0000
  Fe  Fe29      1.0  0.18905  0.66457  0.41611  1.0000
  C   C228      1.0  0.19018  0.65109  0.02299  1.0000
  H   H389      1.0  0.19214  0.34948  0.13737  1.0000
  C   C229      1.0  0.23446  0.66476  0.38523  1.0000
  H   H390      1.0  0.06778  0.61654  0.23979  1.0000
  C   C230      1.0  0.10503  0.65465  0.21495  1.0000
  C   C231      1.0  0.18169  0.35455  0.15337  1.0000
  C   C232      1.0  0.11454  0.46803  0.42284  1.0000
  H   H391      1.0  0.17102  0.35919  0.13755  1.0000
  C   C233      1.0  0.02976  0.60862  0.08390  1.0000
  H   H392      1.0  0.15064  0.59406  0.44447  1.0000
  H   H393      1.0  0.06246  0.65712  0.23645  1.0000
  H   H394      1.0  0.09087  0.48845  0.34772  1.0000
  H   H395      1.0  0.20151  0.67155  0.05259  1.0000
  C   C234      1.0  0.17426  0.37379  0.19753  1.0000
  H   H396      1.0  0.10607  0.46917  0.44415  1.0000
  C   C235      1.0  0.07684  0.60735  0.01952  1.0000
  H   H397      1.0  0.04637  0.64551  0.06128  1.0000
  C   C236      1.0  0.09957  0.65544  0.28289  1.0000
  C   C237      1.0  0.12386  0.48575  0.41997  1.0000
  H   H398      1.0  0.10897  0.66141  0.46225  1.0000
  H   H399      1.0  0.14043  0.45497  0.38416  1.0000
  C   C238      1.0  0.05261  0.63514  0.04647  1.0000
  H   H400      1.0  0.10116  0.62943  0.23639  1.0000
  H   H401      1.0  0.18057  0.66418  0.06510  1.0000
  Fe  Fe30      1.0  0.15634  0.66487  0.46007  1.0000
  H   H402      1.0  0.08970  0.61296  0.02522  1.0000
  C   C239      1.0  0.09315  0.64154  0.23251  1.0000
  H   H403      1.0  0.01561  0.63083  0.18389  1.0000
  C   C240      1.0  0.19338  0.65970  0.05516  1.0000
  H   H404      1.0  0.17829  0.64315  0.02580  1.0000
  H   H405      1.0  0.05754  0.61211  0.27651  1.0000
  H   H406      1.0  0.18326  0.61615  0.03664  1.0000
  C   C241      1.0  0.06025  0.66894  0.28255  1.0000
  H   H407      1.0  0.01426  0.53030  0.15795  1.0000
  C   C242      1.0  0.24212  0.66871  0.32983  1.0000
  C   C243      1.0  0.01116  0.38724  0.22507  1.0000
  H   H408      1.0  0.23801  0.67002  0.30562  1.0000
  H   H409      1.0  0.16265  0.34165  0.18513  1.0000
  H   H410      1.0  0.04339  0.63373  0.99773  1.0000
  H   H411      1.0  0.09734  0.64663  0.48676  1.0000
  C   C244      1.0  0.10220  0.59122  0.49459  1.0000
  H   H412      1.0  0.01220  0.40113  0.21759  1.0000
  H   H413      1.0  0.11704  0.65759  0.22840  1.0000
  H   H414      1.0  0.10779  0.66312  0.32963  1.0000
  H   H415      1.0  0.05685  0.65909  0.30059  1.0000
  S   S61       1.0  0.22234  0.35341  0.05677  1.0000
  H   H416      1.0  0.09801  0.66695  0.20861  1.0000
  Fe  Fe31      1.0  0.15590  0.34468  0.07727  1.0000
  Fe  Fe32      1.0  0.19343  0.34615  0.05344  1.0000
  S   S62       1.0  0.14927  0.66114  0.99655  1.0000
  H   H417      1.0  0.11291  0.58217  0.48712  1.0000
  H   H418      1.0  0.08972  0.58743  0.48351  1.0000
  C   C245      1.0  0.25566  0.35503  0.08088  1.0000
  H   H419      1.0  0.01171  0.37866  0.20426  1.0000
  C   C246      1.0  0.22044  0.65315  0.00557  1.0000
  C   C247      1.0  0.00722  0.43118  0.26010  1.0000
  H   H420      1.0  0.00788  0.43665  0.23661  1.0000
  S   S63       1.0  0.17347  0.67239  0.37349  1.0000
  H   H421      1.0  0.24267  0.33917  0.16420  1.0000
  Fe  Fe33      1.0  0.06590  0.41845  0.77677  1.0000
  S   S64       1.0  0.07420  0.43482  0.81768  1.0000
  S   S65       1.0  0.03818  0.41913  0.75678  1.0000
  Fe  Fe34      1.0  0.10372  0.40662  0.76220  1.0000
  S   S66       1.0  0.11442  0.42261  0.80190  1.0000
  S   S67       1.0  0.12439  0.38956  0.73782  1.0000
  Fe  Fe35      1.0  0.09217  0.41198  0.83054  1.0000
  S   S68       1.0  0.09384  0.40186  0.88157  1.0000
  Fe  Fe36      1.0  0.09576  0.44396  0.78542  1.0000
  S   S69       1.0  0.10522  0.47230  0.78436  1.0000
  S   S70       1.0  0.08217  0.39491  0.79165  1.0000
  S   S71       1.0  0.08682  0.42871  0.74369  1.0000
  Fe  Fe37      1.0  0.09135  0.56237  0.68421  1.0000
  S   S72       1.0  0.08222  0.58021  0.72299  1.0000
  S   S73       1.0  0.08621  0.53281  0.68472  1.0000
  Fe  Fe38      1.0  0.10332  0.59379  0.64214  1.0000
  S   S74       1.0  0.09463  0.61355  0.67857  1.0000
  S   S75       1.0  0.11997  0.59844  0.59734  1.0000
  Fe  Fe39      1.0  0.10694  0.59534  0.71424  1.0000
  S   S76       1.0  0.12721  0.60126  0.75206  1.0000
  Fe  Fe40      1.0  0.07047  0.59682  0.68422  1.0000
  S   S77       1.0  0.04325  0.60883  0.69329  1.0000
  S   S78       1.0  0.11686  0.57627  0.67770  1.0000
  S   S79       1.0  0.07830  0.57826  0.64554  1.0000
  Fe  Fe41      1.0  0.15946  0.36632  0.56673  1.0000
  S   S80       1.0  0.18108  0.37363  0.53266  1.0000
  S   S81       1.0  0.14181  0.38633  0.59151  1.0000
  H   H422      1.0  0.17100  0.61613  0.65925  1.0000
  H   H423      1.0  0.11490  0.63770  0.63701  1.0000
  Fe  Fe42      1.0  0.19466  0.34891  0.55022  1.0000
  S   S82       1.0  0.15733  0.36827  0.96114  1.0000
  H   H424      1.0  0.11887  0.34977  0.89474  1.0000
  H   H425      1.0  0.21180  0.62712  0.96589  1.0000
  S   S83       1.0  0.17391  0.34285  0.58667  1.0000
  C   C248      1.0  0.11675  0.65085  0.64704  1.0000
  C   C249      1.0  0.03820  0.54523  0.66539  1.0000
  S   S84       1.0  0.22062  0.65229  0.90360  1.0000
  H   H426      1.0  0.25573  0.63848  0.89538  1.0000
  C   C250      1.0  0.15401  0.64219  0.70671  1.0000
  S   S85       1.0  0.16902  0.65102  0.90690  1.0000
  H   H427      1.0  0.10570  0.42639  0.93904  1.0000
  H   H428      1.0  0.17147  0.64881  0.65771  1.0000
  H   H429      1.0  0.04869  0.52177  0.75575  1.0000
  C   C251      1.0  0.03304  0.55518  0.75435  1.0000
  C   C252      1.0  0.24885  0.36822  0.62708  1.0000
  C   C253      1.0  0.15660  0.64397  0.61654  1.0000
  H   H430      1.0  0.04006  0.50417  0.73369  1.0000
  C   C254      1.0  0.12931  0.61991  0.77643  1.0000
  C   C255      1.0  0.12082  0.63583  0.76964  1.0000
  C   C256      1.0  0.12468  0.65089  0.78720  1.0000
  C   C257      1.0  0.13671  0.65012  0.81215  1.0000
  C   C258      1.0  0.14465  0.63405  0.81975  1.0000
  C   C259      1.0  0.14104  0.61906  0.80182  1.0000
  H   H431      1.0  0.11158  0.63663  0.75050  1.0000
  H   H432      1.0  0.16127  0.67015  0.70399  1.0000
  H   H433      1.0  0.15371  0.63323  0.83917  1.0000
  H   H434      1.0  0.14748  0.60673  0.80747  1.0000
  C   C260      1.0  0.12565  0.61646  0.57250  1.0000
  C   C261      1.0  0.11554  0.63190  0.57087  1.0000
  C   C262      1.0  0.12072  0.64581  0.55098  1.0000
  C   C263      1.0  0.13580  0.64437  0.53178  1.0000
  C   C264      1.0  0.14571  0.62880  0.53290  1.0000
  C   C265      1.0  0.14068  0.61499  0.55317  1.0000
  H   H435      1.0  0.10371  0.63312  0.58487  1.0000
  H   H436      1.0  0.11292  0.65776  0.55032  1.0000
  H   H437      1.0  0.13746  0.62042  0.64349  1.0000
  H   H438      1.0  0.14856  0.60309  0.55397  1.0000
  C   C266      1.0  0.11150  0.39177  0.90269  1.0000
  C   C267      1.0  0.12851  0.39055  0.89030  1.0000
  C   C268      1.0  0.14228  0.38344  0.90865  1.0000
  C   C269      1.0  0.13928  0.37727  0.93951  1.0000
  C   C270      1.0  0.12223  0.37828  0.95176  1.0000
  C   C271      1.0  0.10848  0.38553  0.93349  1.0000
  H   H439      1.0  0.13110  0.39527  0.86671  1.0000
  H   H440      1.0  0.15539  0.38269  0.89884  1.0000
  H   H441      1.0  0.11967  0.37367  0.97543  1.0000
  H   H442      1.0  0.09540  0.38647  0.94342  1.0000
  C   C272      1.0  0.12874  0.38840  0.69701  1.0000
  C   C273      1.0  0.14469  0.38090  0.68669  1.0000
  C   C274      1.0  0.14875  0.37987  0.65439  1.0000
  C   C275      1.0  0.13689  0.38641  0.63217  1.0000
  C   C276      1.0  0.12084  0.39372  0.64247  1.0000
  C   C277      1.0  0.11671  0.39460  0.67477  1.0000
  H   H443      1.0  0.15403  0.37601  0.70380  1.0000
  H   H444      1.0  0.16121  0.37437  0.64671  1.0000
  H   H445      1.0  0.11158  0.39876  0.62537  1.0000
  H   H446      1.0  0.10424  0.40003  0.68247  1.0000
  C   C278      1.0  0.09898  0.48925  0.75748  1.0000
  C   C279      1.0  0.10632  0.50596  0.76054  1.0000
  C   C280      1.0  0.10235  0.51955  0.73893  1.0000
  C   C281      1.0  0.09119  0.51650  0.71360  1.0000
  C   C282      1.0  0.08384  0.49979  0.71059  1.0000
  C   C283      1.0  0.08744  0.48637  0.73265  1.0000
  H   H447      1.0  0.11522  0.50841  0.77967  1.0000
  H   H448      1.0  0.10813  0.53231  0.74158  1.0000
  H   H449      1.0  0.07516  0.49726  0.69116  1.0000
  H   H450      1.0  0.08139  0.47373  0.73022  1.0000
  H   H451      1.0  0.01951  0.52239  0.70603  1.0000
  C   C284      1.0  0.01805  0.41838  0.77802  1.0000
  C   C285      1.0  0.15743  0.65025  0.65098  1.0000
  H   H452      1.0  0.02881  0.40724  0.82041  1.0000
  C   C286      1.0  0.02538  0.52854  0.72694  1.0000
  H   H453      1.0  0.13398  0.46821  0.74114  1.0000
  C   C287      1.0  0.02264  0.60181  0.67921  1.0000
  C   C288      1.0  0.02122  0.59093  0.65300  1.0000
  H   H454      1.0  0.19562  0.60369  0.85847  1.0000
  H   H455      1.0  0.03294  0.58670  0.64057  1.0000
  H   H456      1.0  0.10346  0.65598  0.65318  1.0000
  C   C289      1.0  0.11901  0.43190  0.93667  1.0000
  H   H457      1.0  0.17316  0.63477  0.77301  1.0000
  H   H458      1.0  0.13409  0.48218  0.94686  1.0000
  C   C290      1.0  0.04016  0.55320  0.69843  1.0000
  S   S86       1.0  0.14486  0.35065  0.53103  1.0000
  H   H459      1.0  0.10193  0.36224  0.60682  1.0000
  C   C291      1.0  0.12802  0.65051  0.67692  1.0000
  H   H460      1.0  0.20610  0.65373  0.83834  1.0000
  N   N20       1.0  0.11193  0.45552  0.89455  1.0000
  C   C292      1.0  0.09278  0.45074  0.89534  1.0000
  C   C293      1.0  0.12236  0.43929  0.90335  1.0000
  C   C294      1.0  0.11638  0.46115  0.86132  1.0000
  C   C295      1.0  0.11444  0.47032  0.91731  1.0000
  C   C296      1.0  0.07971  0.46491  0.88342  1.0000
  C   C297      1.0  0.14284  0.62224  0.66740  1.0000
  C   C298      1.0  0.13572  0.45950  0.85076  1.0000
  S   S87       1.0  0.14207  0.66974  0.83182  1.0000
  H   H461      1.0  0.09058  0.43881  0.88104  1.0000
  H   H462      1.0  0.08843  0.44733  0.91961  1.0000
  H   H463      1.0  0.13667  0.44126  0.90157  1.0000
  H   H464      1.0  0.11981  0.42866  0.88620  1.0000
  H   H465      1.0  0.10900  0.45324  0.84405  1.0000
  H   H466      1.0  0.11214  0.47498  0.85697  1.0000
  H   H467      1.0  0.10733  0.48229  0.90901  1.0000
  H   H468      1.0  0.10816  0.46758  0.94052  1.0000
  H   H469      1.0  0.14858  0.34437  0.91340  1.0000
  H   H470      1.0  0.13309  0.35134  0.61329  1.0000
  H   H471      1.0  0.08225  0.46880  0.85862  1.0000
  H   H472      1.0  0.12192  0.35474  0.66535  1.0000
  H   H473      1.0  0.11351  0.35927  0.57090  1.0000
  H   H474      1.0  0.19494  0.62579  0.87416  1.0000
  H   H475      1.0  0.13972  0.44556  0.84775  1.0000
  H   H476      1.0  0.14484  0.46599  0.86685  1.0000
  H   H477      1.0  0.13740  0.48611  0.90537  1.0000
  H   H478      1.0  0.13282  0.61667  0.68363  1.0000
  H   H479      1.0  0.12635  0.49187  0.70420  1.0000
  H   H480      1.0  0.16752  0.63652  0.70607  1.0000
  N   N21       1.0  0.13455  0.45349  0.69754  1.0000
  C   C299      1.0  0.14116  0.46799  0.71822  1.0000
  C   C300      1.0  0.11576  0.45788  0.68951  1.0000
  C   C301      1.0  0.14587  0.45247  0.66828  1.0000
  C   C302      1.0  0.14003  0.48674  0.70446  1.0000
  C   C303      1.0  0.14640  0.43480  0.65050  1.0000
  H   H481      1.0  0.13859  0.62570  0.97764  1.0000
  H   H482      1.0  0.15518  0.46574  0.72422  1.0000
  H   H483      1.0  0.11465  0.47066  0.67701  1.0000
  H   H484      1.0  0.14185  0.46284  0.65115  1.0000
  H   H485      1.0  0.15975  0.45521  0.67431  1.0000
  H   H486      1.0  0.14740  0.49569  0.71990  1.0000
  H   H487      1.0  0.14587  0.48765  0.68058  1.0000
  C   C304      1.0  0.23975  0.34992  0.58355  1.0000
  H   H488      1.0  0.10583  0.43157  0.67828  1.0000
  H   H489      1.0  0.14712  0.43739  0.62477  1.0000
  H   H490      1.0  0.13494  0.42644  0.65421  1.0000
  H   H491      1.0  0.13280  0.34680  0.86156  1.0000
  C   C305      1.0  0.21884  0.63322  0.78426  1.0000
  N   N22       1.0  0.02690  0.54812  0.72320  1.0000
  H   H492      1.0  0.24571  0.37828  0.64414  1.0000
  H   H493      1.0  0.19795  0.64580  0.96113  1.0000
  H   H494      1.0  0.09991  0.35192  0.65461  1.0000
  H   H495      1.0  0.18256  0.61947  0.94916  1.0000
  H   H496      1.0  0.02966  0.55360  0.65035  1.0000
  H   H497      1.0  0.14670  0.63406  0.72401  1.0000
  Fe  Fe43      1.0  0.19405  0.66651  0.90577  1.0000
  H   H498      1.0  0.04659  0.55050  0.75967  1.0000
  H   H499      1.0  0.18530  0.64417  0.83658  1.0000
  C   C306      1.0  0.15564  0.66067  0.72093  1.0000
  C   C307      1.0  0.23370  0.64585  0.79238  1.0000
  H   H500      1.0  0.18156  0.61570  0.81713  1.0000
  H   H501      1.0  0.24259  0.64039  0.81062  1.0000
  C   C308      1.0  0.03348  0.57533  0.75719  1.0000
  H   H502      1.0  0.21226  0.61101  0.88434  1.0000
  H   H503      1.0  0.05225  0.52053  0.71358  1.0000
  C   C309      1.0  0.12707  0.33987  0.88216  1.0000
  H   H504      1.0  0.03999  0.56762  0.69477  1.0000
  H   H505      1.0  0.18993  0.62461  0.74789  1.0000
  H   H506      1.0  0.10789  0.45923  0.71151  1.0000
  H   H507      1.0  0.15851  0.42718  0.65611  1.0000
  H   H508      1.0  0.19783  0.60463  0.79404  1.0000
  H   H509      1.0  0.02044  0.58166  0.75384  1.0000
  C   C310      1.0  0.10616  0.44495  0.66829  1.0000
  H   H510      1.0  0.11171  0.44482  0.64412  1.0000
  H   H511      1.0  0.12123  0.44173  0.95524  1.0000
  H   H512      1.0  0.13718  0.46583  0.82730  1.0000
  H   H513      1.0  0.05381  0.55050  0.70643  1.0000
  H   H514      1.0  0.16350  0.43142  0.71082  1.0000
  H   H515      1.0  0.16460  0.65272  0.60142  1.0000
  C   C311      1.0  0.13506  0.43690  0.71697  1.0000
  H   H516      1.0  0.09227  0.44937  0.66612  1.0000
  H   H517      1.0  0.06630  0.45944  0.88406  1.0000
  H   H518      1.0  0.16190  0.60691  0.69506  1.0000
  H   H519      1.0  0.15725  0.43952  0.74940  1.0000
  C   C312      1.0  0.15326  0.43125  0.72937  1.0000
  H   H520      1.0  0.12984  0.42560  0.70414  1.0000
  H   H521      1.0  0.12835  0.42085  0.94101  1.0000
  C   C313      1.0  0.23848  0.65938  0.87981  1.0000
  H   H522      1.0  0.12623  0.43823  0.73784  1.0000
  H   H523      1.0  0.17266  0.62813  0.98368  1.0000
  H   H524      1.0  0.07944  0.47665  0.89864  1.0000
  H   H525      1.0  0.05135  0.54429  0.65405  1.0000
  H   H526      1.0  0.15256  0.41760  0.73850  1.0000
  C   C314      1.0  0.20354  0.61520  0.86477  1.0000
  H   H527      1.0  0.22855  0.65882  0.79982  1.0000
  C   C315      1.0  0.18494  0.62216  0.97443  1.0000
  H   H528      1.0  0.22267  0.60982  0.82853  1.0000
  H   H529      1.0  0.15479  0.66464  0.65070  1.0000
  H   H530      1.0  0.17232  0.61230  0.76322  1.0000
  H   H531      1.0  0.14323  0.64435  0.60697  1.0000
  H   H532      1.0  0.16210  0.63055  0.61363  1.0000
  C   C316      1.0  0.19175  0.61775  0.79866  1.0000
  H   H533      1.0  0.11832  0.66325  0.78141  1.0000
  H   H534      1.0  0.15669  0.59769  0.65780  1.0000
  H   H535      1.0  0.15360  0.34126  0.64500  1.0000
  C   C317      1.0  0.04270  0.51843  0.73291  1.0000
  H   H536      1.0  0.14309  0.46534  0.92369  1.0000
  H   H537      1.0  0.22476  0.63034  0.84724  1.0000
  H   H538      1.0  0.03338  0.53169  0.66544  1.0000
  C   C318      1.0  0.20067  0.63442  0.97692  1.0000
  C   C319      1.0  0.15922  0.61023  0.67004  1.0000
  H   H539      1.0  0.10054  0.58930  0.52040  1.0000
  N   N23       1.0  0.14564  0.64131  0.67465  1.0000
  C   C320      1.0  0.23583  0.36273  0.60602  1.0000
  H   H540      1.0  0.04306  0.58114  0.74065  1.0000
  N   N24       1.0  0.20542  0.63028  0.80995  1.0000
  H   H541      1.0  0.21295  0.63833  0.76233  1.0000
  H   H542      1.0  0.22281  0.36853  0.60699  1.0000
  C   C321      1.0  0.13337  0.47620  0.92312  1.0000
  C   C322      1.0  0.18148  0.62300  0.76892  1.0000
  C   C323      1.0  0.19707  0.64705  0.82195  1.0000
  H   H543      1.0  0.22509  0.62052  0.77719  1.0000
  C   C324      1.0  0.21498  0.62145  0.83691  1.0000
  H   H544      1.0  0.03786  0.57879  0.78122  1.0000
  Fe  Fe44      1.0  0.16059  0.66812  0.94767  1.0000
  S   S88       1.0  0.22400  0.34261  0.55609  1.0000
  S   S89       1.0  0.14191  0.66261  0.50783  1.0000
  H   H545      1.0  0.12211  0.65994  0.62912  1.0000
  H   H546      1.0  0.02462  0.55033  0.77399  1.0000
  H   H547      1.0  0.15741  0.62750  0.51852  1.0000
  C   C325      1.0  0.01699  0.41159  0.80860  1.0000
  H   H548      1.0  0.17723  0.66429  0.80066  1.0000
  H   H549      1.0  0.21636  0.66487  0.99143  1.0000
  C   C326      1.0  0.11189  0.34456  0.66198  1.0000
  H   H550      1.0  0.11782  0.61384  0.50331  1.0000
  Fe  Fe45      1.0  0.16697  0.35662  0.49803  1.0000
  H   H551      1.0  0.12000  0.64453  0.69608  1.0000
  C   C327      1.0  0.23729  0.64559  0.99012  1.0000
  H   H552      1.0  0.23555  0.64320  0.96463  1.0000
  H   H553      1.0  0.19313  0.65723  0.77247  1.0000
  H   H554      1.0  0.16440  0.66003  0.74165  1.0000
  C   C328      1.0  0.00913  0.55630  0.71641  1.0000
  C   C329      1.0  0.19136  0.66097  0.79729  1.0000
  C   C330      1.0  0.25434  0.64970  0.87992  1.0000
  H   H555      1.0  0.12764  0.34051  0.95940  1.0000
  H   H556      1.0  0.24195  0.64806  0.77114  1.0000
  C   C331      1.0  0.10794  0.35214  0.59139  1.0000
  H   H557      1.0  0.12944  0.66451  0.68326  1.0000
  H   H558      1.0  0.14280  0.66565  0.72986  1.0000
  H   H559      1.0  0.01618  0.52541  0.74660  1.0000
  H   H560      1.0  0.09536  0.61839  0.49820  1.0000
  H   H561      1.0  0.09769  0.34349  0.58213  1.0000
  H   H562      1.0  0.01056  0.56987  0.70736  1.0000
  H   H563      1.0  0.18767  0.60930  0.98568  1.0000
  C   C332      1.0  0.12282  0.34173  0.60787  1.0000
  H   H564      1.0  0.10490  0.34762  0.71127  1.0000
  C   C333      1.0  0.00722  0.60741  0.69478  1.0000
  H   H565      1.0  0.00815  0.61591  0.71499  1.0000
  H   H566      1.0  0.24783  0.65541  0.99187  1.0000
  H   H567      1.0  0.07346  0.88782  0.34862  1.0000
  Fe  Fe46      1.0  0.16065  0.69211  0.40603  1.0000
  S   S90       1.0  0.15598  0.71944  0.38544  1.0000
  C   C334      1.0  0.25192  0.83015  0.33611  1.0000
  Fe  Fe47      1.0  0.17274  0.82126  0.42031  1.0000
  S   S91       1.0  0.18895  0.84177  0.44400  1.0000
  S   S92       1.0  0.17585  0.79389  0.44204  1.0000
  Fe  Fe48      1.0  0.15517  0.84882  0.37835  1.0000
  S   S93       1.0  0.17005  0.87099  0.39937  1.0000
  S   S94       1.0  0.13310  0.85256  0.34300  1.0000
  Fe  Fe49      1.0  0.19351  0.85269  0.39556  1.0000
  S   S95       1.0  0.21962  0.86498  0.38179  1.0000
  Fe  Fe50      1.0  0.16428  0.85835  0.44627  1.0000
  H   H568      1.0  0.23245  0.70445  0.42464  1.0000
  S   S96       1.0  0.17892  0.83114  0.37138  1.0000
  S   S97       1.0  0.14783  0.83721  0.42559  1.0000
  Fe  Fe51      1.0  0.06937  0.92861  0.19491  1.0000
  S   S98       1.0  0.07598  0.94260  0.14990  1.0000
  S   S99       1.0  0.04193  0.92565  0.21642  1.0000
  Fe  Fe52      1.0  0.10838  0.92419  0.21224  1.0000
  S   S100      1.0  0.11737  0.93853  0.16859  1.0000
  S   S101      1.0  0.13062  0.91563  0.24471  1.0000
  Fe  Fe53      1.0  0.09521  0.95756  0.17931  1.0000
  S   S102      1.0  0.09535  0.98746  0.17512  1.0000
  Fe  Fe54      1.0  0.09769  0.92222  0.14329  1.0000
  S   S103      1.0  0.10197  0.90667  0.09724  1.0000
  S   S104      1.0  0.08774  0.94444  0.22453  1.0000
  S   S105      1.0  0.08954  0.90707  0.18675  1.0000
  H   H569      1.0  0.19816  0.69431  0.33969  1.0000
  H   H570      1.0  0.19792  0.75789  0.35787  1.0000
  C   C335      1.0  0.24149  0.72971  0.33732  1.0000
  H   H571      1.0  0.21242  0.76908  0.38308  1.0000
  H   H572      1.0  0.10902  0.98277  0.23912  1.0000
  C   C336      1.0  0.13313  0.86929  0.31400  1.0000
  C   C337      1.0  0.14735  0.88043  0.31023  1.0000
  C   C338      1.0  0.14645  0.89435  0.28842  1.0000
  C   C339      1.0  0.13129  0.89737  0.27044  1.0000
  C   C340      1.0  0.11717  0.88605  0.27377  1.0000
  C   C341      1.0  0.11814  0.87201  0.29536  1.0000
  H   H573      1.0  0.15898  0.87845  0.32434  1.0000
  H   H574      1.0  0.15746  0.90302  0.28587  1.0000
  H   H575      1.0  0.10547  0.88820  0.25993  1.0000
  H   H576      1.0  0.10710  0.86340  0.29807  1.0000
  C   C342      1.0  0.14824  0.88543  0.03582  1.0000
  C   C343      1.0  0.15140  0.89677  0.06121  1.0000
  C   C344      1.0  0.13749  0.90373  0.07975  1.0000
  C   C345      1.0  0.12013  0.89920  0.07357  1.0000
  C   C346      1.0  0.11696  0.88806  0.04794  1.0000
  C   C347      1.0  0.13085  0.88129  0.02913  1.0000
  H   H577      1.0  0.16475  0.90019  0.06656  1.0000
  H   H578      1.0  0.14018  0.91258  0.09883  1.0000
  H   H579      1.0  0.10363  0.88450  0.04273  1.0000
  H   H580      1.0  0.21259  0.69872  0.44345  1.0000
  C   C348      1.0  0.23674  0.85534  0.35899  1.0000
  H   H581      1.0  0.24751  0.74171  0.34683  1.0000
  C   C349      1.0  0.23757  0.83736  0.35298  1.0000
  H   H582      1.0  0.08766  0.90189  0.32730  1.0000
  H   H583      1.0  0.22721  0.82902  0.36144  1.0000
  C   C350      1.0  0.16162  0.73997  0.40174  1.0000
  C   C351      1.0  0.15919  0.75524  0.38353  1.0000
  C   C352      1.0  0.16349  0.77184  0.39540  1.0000
  C   C353      1.0  0.17030  0.77333  0.42572  1.0000
  C   C354      1.0  0.17284  0.75804  0.44389  1.0000
  C   C355      1.0  0.16852  0.74144  0.43202  1.0000
  H   H584      1.0  0.15383  0.75425  0.36010  1.0000
  H   H585      1.0  0.16146  0.78346  0.38114  1.0000
  H   H586      1.0  0.23491  0.70461  0.35796  1.0000
  H   H587      1.0  0.17044  0.72982  0.44632  1.0000
  H   H588      1.0  0.09298  0.88361  0.39111  1.0000
  C   C356      1.0  0.02048  0.92486  0.16356  1.0000
  C   C357      1.0  0.02160  0.92410  0.19638  1.0000
  H   H589      1.0  0.20460  0.73344  0.32856  1.0000
  H   H590      1.0  0.03229  0.92628  0.14959  1.0000
  H   H591      1.0  0.18851  0.72493  0.35369  1.0000
  N   N25       1.0  0.11222  0.90373  0.38159  1.0000
  C   C358      1.0  0.09889  0.89064  0.37074  1.0000
  C   C359      1.0  0.12746  0.89341  0.39505  1.0000
  C   C360      1.0  0.11820  0.91380  0.35293  1.0000
  C   C361      1.0  0.12276  0.88052  0.42172  1.0000
  C   C362      1.0  0.13374  0.92616  0.35694  1.0000
  C   C363      1.0  0.11576  0.92490  0.42901  1.0000
  H   H592      1.0  0.21791  0.72127  0.44101  1.0000
  H   H593      1.0  0.13782  0.90190  0.40431  1.0000
  H   H594      1.0  0.13416  0.88571  0.37620  1.0000
  H   H595      1.0  0.12189  0.90456  0.33385  1.0000
  H   H596      1.0  0.10737  0.92210  0.34325  1.0000
  H   H597      1.0  0.11372  0.88645  0.43930  1.0000
  H   H598      1.0  0.11696  0.86843  0.41210  1.0000
  H   H599      1.0  0.13490  0.87648  0.43424  1.0000
  H   H600      1.0  0.13729  0.93149  0.33338  1.0000
  H   H601      1.0  0.14569  0.91937  0.36577  1.0000
  H   H602      1.0  0.13014  0.93759  0.37169  1.0000
  H   H603      1.0  0.12916  0.92744  0.42040  1.0000
  H   H604      1.0  0.09564  0.92614  0.39329  1.0000
  C   C364      1.0  0.10679  0.99661  0.23491  1.0000
  H   H605      1.0  0.20968  0.69615  0.38651  1.0000
  H   H606      1.0  0.19441  0.71154  0.40236  1.0000
  H   H607      1.0  0.00681  0.92146  0.23948  1.0000
  C   C365      1.0  0.21343  0.74080  0.38929  1.0000
  H   H608      1.0  0.12811  0.87257  0.00987  1.0000
  H   H609      1.0  0.14154  0.80360  0.47810  1.0000
  C   C366      1.0  0.06028  0.00392  0.25467  1.0000
  H   H610      1.0  0.07691  0.90945  0.36318  1.0000
  H   H611      1.0  0.19364  0.70728  0.30589  1.0000
  H   H612      1.0  0.22514  0.74289  0.40424  1.0000
  S   S106      1.0  0.16649  0.87587  0.01489  1.0000
  H   H613      1.0  0.06678  0.68017  0.29382  1.0000
  H   H614      1.0  0.25188  0.72169  0.32551  1.0000
  C   C367      1.0  0.20226  0.72269  0.34556  1.0000
  H   H615      1.0  0.24960  0.87997  0.35177  1.0000
  H   H616      1.0  0.24212  0.72024  0.38439  1.0000
  S   S107      1.0  0.15943  0.87385  0.49198  1.0000
  C   C368      1.0  0.25029  0.86601  0.34769  1.0000
  C   C369      1.0  0.21862  0.70874  0.42800  1.0000
  H   H617      1.0  0.11506  0.00434  0.28127  1.0000
  H   H618      1.0  0.10528  0.88024  0.35619  1.0000
  H   H619      1.0  0.11640  0.91741  0.45149  1.0000
  C   C370      1.0  0.10358  0.91578  0.40536  1.0000
  C   C371      1.0  0.25417  0.86278  0.44339  1.0000
  H   H620      1.0  0.25040  0.85090  0.43027  1.0000
  C   C372      1.0  0.23325  0.71874  0.36395  1.0000
  H   H621      1.0  0.23226  0.73330  0.31838  1.0000
  H   H622      1.0  0.10989  0.93784  0.43531  1.0000
  H   H623      1.0  0.01411  0.96930  0.18975  1.0000
  N   N26       1.0  0.14856  0.87579  0.16803  1.0000
  C   C373      1.0  0.16099  0.88993  0.15756  1.0000
  C   C374      1.0  0.15331  0.85957  0.14948  1.0000
  C   C375      1.0  0.15182  0.87235  0.20250  1.0000
  C   C376      1.0  0.12995  0.88216  0.16275  1.0000
  C   C377      1.0  0.15961  0.90746  0.17543  1.0000
  C   C378      1.0  0.15188  0.86139  0.11338  1.0000
  C   C379      1.0  0.14063  0.85819  0.21841  1.0000
  C   C380      1.0  0.11579  0.86805  0.15856  1.0000
  H   H624      1.0  0.17487  0.88526  0.15925  1.0000
  H   H625      1.0  0.15893  0.89331  0.13237  1.0000
  H   H626      1.0  0.14534  0.84820  0.15639  1.0000
  H   H627      1.0  0.16703  0.85530  0.15468  1.0000
  H   H628      1.0  0.16586  0.86877  0.20646  1.0000
  H   H629      1.0  0.14925  0.88434  0.21656  1.0000
  H   H630      1.0  0.12561  0.89088  0.18235  1.0000
  H   H631      1.0  0.12927  0.89048  0.14118  1.0000
  H   H632      1.0  0.14595  0.91246  0.17707  1.0000
  H   H633      1.0  0.16529  0.90643  0.19935  1.0000
  H   H634      1.0  0.16726  0.91750  0.16254  1.0000
  H   H635      1.0  0.15246  0.84819  0.10250  1.0000
  H   H636      1.0  0.13942  0.86773  0.10592  1.0000
  H   H637      1.0  0.16305  0.86877  0.10340  1.0000
  H   H638      1.0  0.12660  0.86218  0.21930  1.0000
  H   H639      1.0  0.14485  0.85675  0.24330  1.0000
  H   H640      1.0  0.14232  0.84515  0.20745  1.0000
  H   H641      1.0  0.10350  0.87252  0.17032  1.0000
  H   H642      1.0  0.11891  0.85505  0.16866  1.0000
  H   H643      1.0  0.11231  0.86677  0.13332  1.0000
  C   C381      1.0  0.08342  0.89815  0.35144  1.0000
  C   C382      1.0  0.10061  0.00229  0.20557  1.0000
  N   N27       1.0  0.21459  0.72318  0.37317  1.0000
  C   C383      1.0  0.20276  0.70572  0.32602  1.0000
  C   C384      1.0  0.20857  0.70953  0.39653  1.0000
  H   H644      1.0  0.09413  0.90832  0.42013  1.0000
  H   H645      1.0  0.17812  0.75905  0.46736  1.0000
  H   H646      1.0  0.20201  0.74134  0.40573  1.0000
  H   H647      1.0  0.06575  0.99533  0.27351  1.0000
  S   S108      1.0  0.17686  0.68502  0.44814  1.0000
  C   C385      1.0  0.21124  0.75720  0.36826  1.0000
  H   H648      1.0  0.03997  0.98449  0.24389  1.0000
  H   H649      1.0  0.04563  0.99856  0.21087  1.0000
  H   H650      1.0  0.21596  0.70287  0.31608  1.0000
  C   C386      1.0  0.05068  0.99164  0.23199  1.0000
  H   H651      1.0  0.22127  0.75797  0.34948  1.0000
  H   H652      1.0  0.24255  0.87174  0.44273  1.0000
  H   H653      1.0  0.06022  0.98157  0.22328  1.0000
  H   H654      1.0  0.11324  0.81753  0.47312  1.0000
  C   C387      1.0  0.12153  0.82221  0.49267  1.0000
  H   H655      1.0  0.02623  0.00352  0.27617  1.0000
  H   H656      1.0  0.25242  0.81624  0.33152  1.0000
  H   H657      1.0  0.12110  0.86930  0.48749  1.0000
  H   H658      1.0  0.16558  0.82255  0.48725  1.0000
  H   H659      1.0  0.04173  0.00163  0.30673  1.0000
  H   H660      1.0  0.12742  0.83457  0.48442  1.0000
  S   S109      1.0  0.13915  0.67376  0.41994  1.0000
  H   H661      1.0  0.04741  0.67357  0.27318  1.0000
  H   H662      1.0  0.07773  0.67322  0.24428  1.0000
  S   S110      1.0  0.18409  0.68716  0.87244  1.0000
  Fe  Fe55      1.0  0.17483  0.70197  0.91549  1.0000
  S   S111      1.0  0.18339  0.72969  0.92841  1.0000
  H   H663      1.0  0.12628  0.82524  0.81160  1.0000
  Fe  Fe56      1.0  0.16344  0.83276  0.91939  1.0000
  S   S112      1.0  0.18469  0.83894  0.95367  1.0000
  S   S113      1.0  0.15142  0.80661  0.90594  1.0000
  Fe  Fe57      1.0  0.16120  0.87070  0.89581  1.0000
  S   S114      1.0  0.18307  0.87929  0.92751  1.0000
  S   S115      1.0  0.14401  0.89007  0.86845  1.0000
  Fe  Fe58      1.0  0.19683  0.85405  0.91335  1.0000
  S   S116      1.0  0.22574  0.84631  0.90517  1.0000
  Fe  Fe59      1.0  0.16917  0.86373  0.96529  1.0000
  H   H664      1.0  0.12937  0.81240  0.84681  1.0000
  S   S117      1.0  0.17594  0.84688  0.87869  1.0000
  S   S118      1.0  0.14694  0.85618  0.93411  1.0000
  Fe  Fe60      1.0  0.06697  0.91790  0.68321  1.0000
  S   S119      1.0  0.07578  0.93401  0.64171  1.0000
  S   S120      1.0  0.03959  0.91905  0.70543  1.0000
  Fe  Fe61      1.0  0.10467  0.90566  0.69776  1.0000
  S   S121      1.0  0.11588  0.92131  0.65755  1.0000
  S   S122      1.0  0.12391  0.88778  0.72367  1.0000
  Fe  Fe62      1.0  0.09731  0.94278  0.67383  1.0000
  S   S123      1.0  0.10600  0.97124  0.67656  1.0000
  Fe  Fe63      1.0  0.09361  0.91097  0.62924  1.0000
  S   S124      1.0  0.09495  0.89929  0.57939  1.0000
  S   S125      1.0  0.08782  0.92783  0.71588  1.0000
  S   S126      1.0  0.08309  0.89423  0.66884  1.0000
  C   C388      1.0  0.09963  0.98691  0.70546  1.0000
  H   H665      1.0  0.09922  0.86253  0.78579  1.0000
  C   C389      1.0  0.09124  0.98208  0.73347  1.0000
  H   H666      1.0  0.15996  0.91977  0.66587  1.0000
  H   H667      1.0  0.08856  0.96844  0.73802  1.0000
  C   C390      1.0  0.13919  0.88972  0.82786  1.0000
  C   C391      1.0  0.14830  0.87879  0.80692  1.0000
  C   C392      1.0  0.14356  0.87850  0.77498  1.0000
  C   C393      1.0  0.12962  0.88900  0.76378  1.0000
  C   C394      1.0  0.12054  0.89995  0.78469  1.0000
  C   C395      1.0  0.12544  0.90044  0.81654  1.0000
  H   H668      1.0  0.15897  0.87057  0.81534  1.0000
  H   H669      1.0  0.15065  0.87000  0.75888  1.0000
  H   H670      1.0  0.10962  0.90785  0.77640  1.0000
  H   H671      1.0  0.11830  0.90889  0.83267  1.0000
  C   C396      1.0  0.14122  0.88017  0.51632  1.0000
  C   C397      1.0  0.14442  0.88922  0.54446  1.0000
  C   C398      1.0  0.13053  0.89484  0.56434  1.0000
  C   C399      1.0  0.11313  0.89163  0.55620  1.0000
  C   C400      1.0  0.10993  0.88238  0.52823  1.0000
  H   H672      1.0  0.05763  0.95960  0.74087  1.0000
  H   H673      1.0  0.15778  0.89206  0.55086  1.0000
  H   H674      1.0  0.13327  0.90192  0.58568  1.0000
  H   H675      1.0  0.09655  0.87972  0.52174  1.0000
  C   C401      1.0  0.10553  0.85260  0.80143  1.0000
  C   C402      1.0  0.24203  0.85247  0.87719  1.0000
  H   H676      1.0  0.08944  0.86664  0.92578  1.0000
  C   C403      1.0  0.23957  0.86629  0.85585  1.0000
  C   C404      1.0  0.15844  0.92225  0.69150  1.0000
  H   H677      1.0  0.22731  0.87360  0.85591  1.0000
  C   C405      1.0  0.17327  0.75067  0.92343  1.0000
  C   C406      1.0  0.15989  0.75379  0.90166  1.0000
  C   C407      1.0  0.15325  0.77095  0.89687  1.0000
  C   C408      1.0  0.15992  0.78521  0.91364  1.0000
  C   C409      1.0  0.17307  0.78206  0.93581  1.0000
  C   C410      1.0  0.17969  0.76489  0.94064  1.0000
  H   H678      1.0  0.15481  0.74300  0.88826  1.0000
  H   H679      1.0  0.14296  0.77320  0.87986  1.0000
  H   H680      1.0  0.17816  0.79284  0.94923  1.0000
  H   H681      1.0  0.18997  0.76262  0.95767  1.0000
  H   H682      1.0  0.08783  0.86012  0.83804  1.0000
  H   H683      1.0  0.18688  0.82182  0.52917  1.0000
  C   C411      1.0  0.01913  0.91954  0.68595  1.0000
  H   H684      1.0  0.23890  0.81863  0.84065  1.0000
  H   H685      1.0  0.17756  0.94251  0.74234  1.0000
  H   H686      1.0  0.02927  0.91259  0.64026  1.0000
  H   H687      1.0  0.17071  0.91746  0.70271  1.0000
  H   H688      1.0  0.22557  0.76127  0.89765  1.0000
  N   N28       1.0  0.10857  0.84510  0.86074  1.0000
  C   C412      1.0  0.13259  0.82491  0.83489  1.0000
  H   H689      1.0  0.17268  0.83417  0.55563  1.0000
  H   H690      1.0  0.16830  0.94789  0.68923  1.0000
  C   C413      1.0  0.04453  0.97471  0.63778  1.0000
  H   H691      1.0  0.16074  0.91323  0.75170  1.0000
  H   H692      1.0  0.08321  0.83276  0.86132  1.0000
  H   H693      1.0  0.14721  0.91440  0.69952  1.0000
  H   H694      1.0  0.04373  0.97860  0.73764  1.0000
  H   H695      1.0  0.11202  0.84589  0.91153  1.0000
  H   H696      1.0  0.15281  0.83876  0.50570  1.0000
  H   H697      1.0  0.00802  0.86825  0.67096  1.0000
  H   H698      1.0  0.16158  0.76975  0.54679  1.0000
  C   C414      1.0  0.10069  0.81610  0.88816  1.0000
  N   N29       1.0  0.15053  0.94775  0.72942  1.0000
  H   H699      1.0  0.11580  0.86600  0.89216  1.0000
  H   H700      1.0  0.24930  0.68925  0.82334  1.0000
  N   N30       1.0  0.21485  0.79351  0.86508  1.0000
  C   C415      1.0  0.22692  0.79729  0.89210  1.0000
  C   C416      1.0  0.22566  0.79324  0.83519  1.0000
  C   C417      1.0  0.20620  0.77604  0.86906  1.0000
  C   C418      1.0  0.20072  0.80749  0.86403  1.0000
  C   C419      1.0  0.21865  0.79672  0.92531  1.0000
  H   H701      1.0  0.14425  0.00132  0.88610  1.0000
  C   C420      1.0  0.21862  0.76025  0.87493  1.0000
  C   C421      1.0  0.18730  0.80594  0.83708  1.0000
  H   H702      1.0  0.20874  0.80732  0.92875  1.0000
  C   C422      1.0  0.05324  0.00485  0.69171  1.0000
  H   H703      1.0  0.21869  0.78668  0.81572  1.0000
  H   H704      1.0  0.06263  0.99664  0.63097  1.0000
  H   H705      1.0  0.19651  0.77644  0.88853  1.0000
  H   H706      1.0  0.19832  0.77284  0.84796  1.0000
  H   H707      1.0  0.19274  0.80733  0.88604  1.0000
  H   H708      1.0  0.20632  0.82087  0.86378  1.0000
  C   C423      1.0  0.02116  0.96748  0.67454  1.0000
  H   H709      1.0  0.21288  0.78386  0.93094  1.0000
  H   H710      1.0  0.07338  0.97619  0.64283  1.0000
  C   C424      1.0  0.05129  0.96618  0.69238  1.0000
  H   H711      1.0  0.22905  0.79900  0.94293  1.0000
  C   C425      1.0  0.15151  0.77950  0.53907  1.0000
  H   H712      1.0  0.14227  0.78154  0.55898  1.0000
  H   H713      1.0  0.16718  0.97694  0.69243  1.0000
  H   H714      1.0  0.22819  0.75842  0.85546  1.0000
  H   H715      1.0  0.17545  0.79896  0.84544  1.0000
  H   H716      1.0  0.19252  0.79908  0.81611  1.0000
  H   H717      1.0  0.18331  0.81924  0.82888  1.0000
  H   H718      1.0  0.23844  0.78817  0.89210  1.0000
  H   H719      1.0  0.21068  0.74818  0.87644  1.0000
  H   H720      1.0  0.06479  0.97112  0.69076  1.0000
  H   H721      1.0  0.09857  0.82174  0.83831  1.0000
  C   C426      1.0  0.14087  0.81746  0.55563  1.0000
  C   C427      1.0  0.16036  0.82664  0.51066  1.0000
  C   C428      1.0  0.17622  0.83184  0.53069  1.0000
  H   H722      1.0  0.17421  0.92086  0.78263  1.0000
  C   C429      1.0  0.13469  0.83677  0.55963  1.0000
  H   H723      1.0  0.12338  0.94383  0.71750  1.0000
  H   H724      1.0  0.11428  0.81660  0.89708  1.0000
  H   H725      1.0  0.08374  0.87152  0.88616  1.0000
  C   C430      1.0  0.10711  0.85437  0.89201  1.0000
  C   C431      1.0  0.12401  0.94786  0.76746  1.0000
  H   H726      1.0  0.14699  0.82464  0.83088  1.0000
  H   H727      1.0  0.12947  0.80899  0.56094  1.0000
  H   H728      1.0  0.15044  0.81501  0.57492  1.0000
  H   H729      1.0  0.25117  0.88172  0.81859  1.0000
  C   C432      1.0  0.16227  0.92398  0.76872  1.0000
  H   H730      1.0  0.03058  0.00304  0.66166  1.0000
  H   H731      1.0  0.03519  0.98161  0.62186  1.0000
  C   C433      1.0  0.04646  0.96546  0.72768  1.0000
  N   N31       1.0  0.14902  0.81249  0.52436  1.0000
  C   C434      1.0  0.08865  0.86091  0.90184  1.0000
  H   H732      1.0  0.15113  0.92371  0.78554  1.0000
  H   H733      1.0  0.11969  0.85271  0.79552  1.0000
  H   H734      1.0  0.12277  0.83718  0.57479  1.0000
  H   H735      1.0  0.13118  0.84373  0.53774  1.0000
  H   H736      1.0  0.14459  0.84445  0.57247  1.0000
  H   H737      1.0  0.11260  0.82476  0.51289  1.0000
  C   C435      1.0  0.10221  0.85782  0.83588  1.0000
  C   C436      1.0  0.16544  0.97747  0.71837  1.0000
  C   C437      1.0  0.14897  0.96751  0.72904  1.0000
  H   H738      1.0  0.14570  0.97260  0.75290  1.0000
  H   H739      1.0  0.09891  0.80244  0.88001  1.0000
  H   H740      1.0  0.14575  0.94679  0.67928  1.0000
  H   H741      1.0  0.09158  0.81878  0.90810  1.0000
  H   H742      1.0  0.09980  0.83977  0.79574  1.0000
  H   H743      1.0  0.16371  0.99155  0.72436  1.0000
  C   C438      1.0  0.16424  0.94221  0.75318  1.0000
  C   C439      1.0  0.13262  0.94074  0.73702  1.0000
  S   S127      1.0  0.18647  0.68191  0.94859  1.0000
  H   H744      1.0  0.07908  0.85018  0.90325  1.0000
  H   H745      1.0  0.13798  0.97194  0.71357  1.0000
  H   H746      1.0  0.13489  0.85240  0.84672  1.0000
  H   H747      1.0  0.13440  0.83786  0.87867  1.0000
  H   H748      1.0  0.16472  0.95165  0.77306  1.0000
  H   H749      1.0  0.13276  0.92625  0.73873  1.0000
  C   C440      1.0  0.12784  0.84078  0.85590  1.0000
  H   H750      1.0  0.02715  0.99634  0.70130  1.0000
  C   C441      1.0  0.15569  0.94204  0.69664  1.0000
  C   C442      1.0  0.09737  0.82907  0.86075  1.0000
  H   H751      1.0  0.13319  0.94791  0.78755  1.0000
  H   H752      1.0  0.08003  0.99100  0.77748  1.0000
  H   H753      1.0  0.11273  0.93958  0.77404  1.0000
  S   S128      1.0  0.14839  0.68922  0.91703  1.0000
  H   H754      1.0  0.11869  0.96132  0.76375  1.0000
  H   H755      1.0  0.10828  0.87084  0.83914  1.0000
  H   H756      1.0  0.23260  0.81051  0.88949  1.0000
  H   H757      1.0  0.03519  0.95676  0.73212  1.0000
  H   H758      1.0  0.18167  0.84422  0.52117  1.0000
  N   N32       1.0  0.03870  0.97631  0.67167  1.0000
  H   H759      1.0  0.19856  0.67332  0.80111  1.0000
  H   H760      1.0  0.14466  0.77350  0.51892  1.0000
  H   H761      1.0  0.06547  0.97907  0.60407  1.0000
  H   H762      1.0  0.04466  0.96069  0.63050  1.0000
  H   H763      1.0  0.05249  0.95240  0.68425  1.0000
  C   C443      1.0  0.03654  0.99525  0.68118  1.0000
  C   C444      1.0  0.23690  0.67384  0.85965  1.0000
  C   C445      1.0  0.08646  0.99491  0.75585  1.0000
  H   H764      1.0  0.22485  0.68148  0.85933  1.0000
  H   H765      1.0  0.02262  0.95324  0.66969  1.0000
  H   H766      1.0  0.17073  0.79895  0.54733  1.0000
  H   H767      1.0  0.12235  0.99719  0.87397  1.0000
  C   C446      1.0  0.01767  0.91592  0.65388  1.0000
  C   C447      1.0  0.25083  0.67826  0.83929  1.0000
  C   C448      1.0  0.12384  0.87656  0.50857  1.0000
  H   H768      1.0  0.17748  0.97262  0.73022  1.0000
  H   H769      1.0  0.06578  0.99901  0.68366  1.0000
  H   H770      1.0  0.22032  0.81938  0.81444  1.0000
  H   H771      1.0  0.16826  0.79348  0.50715  1.0000
  C   C449      1.0  0.16071  0.79651  0.52903  1.0000
  H   H772      1.0  0.12736  0.79661  0.50892  1.0000
  H   H773      1.0  0.00862  0.97047  0.62809  1.0000
  C   C450      1.0  0.06256  0.98217  0.62911  1.0000
  C   C451      1.0  0.13522  0.80786  0.50064  1.0000
  H   H774      1.0  0.01586  0.96849  0.69892  1.0000
  C   C452      1.0  0.23156  0.81126  0.82280  1.0000
  H   H775      1.0  0.24051  0.80932  0.80234  1.0000
  H   H776      1.0  0.23781  0.78518  0.83843  1.0000
  C   C453      1.0  0.10320  0.00471  0.70020  1.0000
  C   C454      1.0  0.00642  0.97446  0.65290  1.0000
  C   C455      1.0  0.25314  0.87086  0.83471  1.0000
  Fe  Fe64      1.0  0.15845  0.67284  0.87620  1.0000
  H   H777      1.0  0.41778  0.01892  0.03918  1.0000
  H   H778      1.0  0.48745  0.08306  0.36452  1.0000
  Fe  Fe65      1.0  0.33671  0.32104  0.18724  1.0000
  S   S129      1.0  0.33571  0.29277  0.20511  1.0000
  H   H779      1.0  0.30663  0.29372  0.14231  1.0000
  Fe  Fe66      1.0  0.42413  0.09450  0.40087  1.0000
  S   S130      1.0  0.40391  0.07917  0.37486  1.0000
  S   S131      1.0  0.45196  0.09231  0.38101  1.0000
  Fe  Fe67      1.0  0.39744  0.10603  0.45095  1.0000
  S   S132      1.0  0.37565  0.09100  0.42879  1.0000
  C   C456      1.0  0.40682  0.02924  0.48251  1.0000
  Fe  Fe68      1.0  0.39584  0.06936  0.42266  1.0000
  S   S133      1.0  0.39088  0.04001  0.42676  1.0000
  Fe  Fe69      1.0  0.38548  0.10210  0.38232  1.0000
  S   S134      1.0  0.36433  0.10964  0.34564  1.0000
  S   S135      1.0  0.41690  0.08353  0.44806  1.0000
  S   S136      1.0  0.40637  0.11839  0.40513  1.0000
  Fe  Fe70      1.0  0.32838  0.19578  0.13696  1.0000
  S   S137      1.0  0.31410  0.18895  0.18145  1.0000
  S   S138      1.0  0.33777  0.22300  0.12319  1.0000
  Fe  Fe71      1.0  0.32863  0.15762  0.11373  1.0000
  S   S139      1.0  0.31417  0.14833  0.15697  1.0000
  S   S140      1.0  0.33473  0.13625  0.07783  1.0000
  Fe  Fe72      1.0  0.29711  0.17250  0.14975  1.0000
  S   S141      1.0  0.26710  0.17416  0.15372  1.0000
  Fe  Fe73      1.0  0.33241  0.16535  0.18463  1.0000
  S   S142      1.0  0.35222  0.15919  0.22430  1.0000
  S   S143      1.0  0.31055  0.18072  0.10512  1.0000
  S   S144      1.0  0.34765  0.17331  0.14129  1.0000
  C   C457      1.0  0.48223  0.13710  0.37551  1.0000
  C   C458      1.0  0.25745  0.16389  0.09342  1.0000
  H   H780      1.0  0.27122  0.16117  0.08915  1.0000
  C   C459      1.0  0.39486  0.00655  0.45003  1.0000
  C   C460      1.0  0.38385  0.12910  0.01559  1.0000
  C   C461      1.0  0.38191  0.14406  0.03456  1.0000
  C   C462      1.0  0.36700  0.14643  0.05392  1.0000
  C   C463      1.0  0.35394  0.13380  0.05457  1.0000
  C   C464      1.0  0.35599  0.11875  0.03589  1.0000
  C   C465      1.0  0.37088  0.11637  0.01653  1.0000
  H   H781      1.0  0.30567  0.28536  0.09091  1.0000
  H   H782      1.0  0.36554  0.15812  0.06805  1.0000
  H   H783      1.0  0.34597  0.10888  0.03631  1.0000
  H   H784      1.0  0.48555  0.09290  0.47957  1.0000
  C   C466      1.0  0.36145  0.12341  0.31168  1.0000
  C   C467      1.0  0.37477  0.13396  0.29955  1.0000
  C   C468      1.0  0.37168  0.14469  0.27281  1.0000
  C   C469      1.0  0.35528  0.14507  0.25771  1.0000
  C   C470      1.0  0.34198  0.13450  0.26975  1.0000
  C   C471      1.0  0.34508  0.12375  0.29643  1.0000
  H   H785      1.0  0.38742  0.13390  0.31088  1.0000
  H   H786      1.0  0.38211  0.15277  0.26387  1.0000
  H   H787      1.0  0.32919  0.13480  0.25895  1.0000
  H   H788      1.0  0.33463  0.11575  0.30560  1.0000
  H   H789      1.0  0.45711  0.04921  0.38143  1.0000
  C   C472      1.0  0.39830  0.02436  0.45495  1.0000
  C   C473      1.0  0.29237  0.25692  0.13855  1.0000
  H   H790      1.0  0.42594  0.04877  0.38822  1.0000
  S   S145      1.0  0.32619  0.32874  0.14000  1.0000
  C   C474      1.0  0.33549  0.27377  0.18131  1.0000
  C   C475      1.0  0.34183  0.27381  0.15038  1.0000
  C   C476      1.0  0.34238  0.25816  0.13293  1.0000
  C   C477      1.0  0.33627  0.24240  0.14591  1.0000
  C   C478      1.0  0.32939  0.24248  0.17651  1.0000
  C   C479      1.0  0.32923  0.25804  0.19424  1.0000
  H   H791      1.0  0.34674  0.28580  0.14019  1.0000
  H   H792      1.0  0.34767  0.25825  0.10924  1.0000
  H   H793      1.0  0.32431  0.23055  0.18657  1.0000
  H   H794      1.0  0.32421  0.25792  0.21810  1.0000
  H   H795      1.0  0.43793  0.01711  0.44774  1.0000
  C   C480      1.0  0.47045  0.09192  0.43689  1.0000
  C   C481      1.0  0.47092  0.08945  0.40434  1.0000
  C   C482      1.0  0.48700  0.08510  0.38970  1.0000
  H   H796      1.0  0.45819  0.09533  0.44843  1.0000
  H   H797      1.0  0.29304  0.29922  0.22551  1.0000
  H   H798      1.0  0.49088  0.14103  0.42271  1.0000
  C   C483      1.0  0.44987  0.05082  0.47816  1.0000
  H   H799      1.0  0.44793  0.06190  0.43145  1.0000
  H   H800      1.0  0.29725  0.27827  0.18566  1.0000
  C   C484      1.0  0.29356  0.29756  0.13264  1.0000
  H   H801      1.0  0.48320  0.15069  0.36651  1.0000
  H   H802      1.0  0.40951  0.04289  0.48666  1.0000
  C   C485      1.0  0.27651  0.26960  0.13651  1.0000
  C   C486      1.0  0.47554  0.03883  0.43022  1.0000
  C   C487      1.0  0.43243  0.03601  0.38306  1.0000
  H   H803      1.0  0.39186  0.15399  0.03390  1.0000
  C   C488      1.0  0.28694  0.30249  0.20250  1.0000
  H   H804      1.0  0.27259  0.26995  0.11152  1.0000
  H   H805      1.0  0.26375  0.31100  0.15940  1.0000
  H   H806      1.0  0.40978  0.04215  0.00024  1.0000
  C   C489      1.0  0.34090  0.04566  0.46892  1.0000
  C   C490      1.0  0.45179  0.01722  0.43926  1.0000
  C   C491      1.0  0.45211  0.03659  0.39107  1.0000
  N   N33       1.0  0.27933  0.28767  0.14961  1.0000
  N   N34       1.0  0.45640  0.03490  0.42557  1.0000
  H   H807      1.0  0.45874  0.02625  0.37693  1.0000
  H   H808      1.0  0.42543  0.02561  0.39612  1.0000
  C   C492      1.0  0.48599  0.09055  0.45447  1.0000
  H   H809      1.0  0.28292  0.29163  0.08453  1.0000
  C   C493      1.0  0.28451  0.28545  0.18370  1.0000
  H   H810      1.0  0.29028  0.24546  0.12306  1.0000
  H   H811      1.0  0.44960  0.03810  0.49083  1.0000
  H   H812      1.0  0.50093  0.16680  0.42198  1.0000
  H   H813      1.0  0.30469  0.26314  0.13089  1.0000
  H   H814      1.0  0.47826  0.05256  0.42284  1.0000
  H   H815      1.0  0.27478  0.27739  0.19673  1.0000
  C   C494      1.0  0.50215  0.08675  0.43975  1.0000
  H   H816      1.0  0.29390  0.25168  0.16280  1.0000
  H   H817      1.0  0.33350  0.16384  0.99942  1.0000
  C   C495      1.0  0.48895  0.02694  0.41314  1.0000
  C   C496      1.0  0.41135  0.01542  0.01755  1.0000
  H   H818      1.0  0.43167  0.04637  0.44117  1.0000
  N   N35       1.0  0.36106  0.10841  0.16523  1.0000
  C   C497      1.0  0.35144  0.10292  0.19473  1.0000
  C   C498      1.0  0.37732  0.09704  0.16205  1.0000
  C   C499      1.0  0.34997  0.10624  0.13636  1.0000
  C   C500      1.0  0.36553  0.12747  0.16795  1.0000
  C   C501      1.0  0.33304  0.11114  0.19974  1.0000
  C   C502      1.0  0.39211  0.10081  0.18555  1.0000
  C   C503      1.0  0.34302  0.08767  0.13086  1.0000
  C   C504      1.0  0.37624  0.13527  0.14040  1.0000
  H   H819      1.0  0.34999  0.08845  0.19580  1.0000
  H   H820      1.0  0.35908  0.10629  0.21604  1.0000
  H   H821      1.0  0.38298  0.09777  0.13787  1.0000
  H   H822      1.0  0.37407  0.08296  0.16514  1.0000
  H   H823      1.0  0.33857  0.11552  0.13655  1.0000
  H   H824      1.0  0.35748  0.10979  0.11474  1.0000
  H   H825      1.0  0.35336  0.13562  0.16918  1.0000
  H   H826      1.0  0.37218  0.13039  0.19055  1.0000
  H   H827      1.0  0.33357  0.12553  0.20237  1.0000
  H   H828      1.0  0.32379  0.10777  0.18081  1.0000
  H   H829      1.0  0.32746  0.10597  0.22207  1.0000
  H   H830      1.0  0.39797  0.11381  0.18126  1.0000
  H   H831      1.0  0.38757  0.09990  0.21034  1.0000
  H   H832      1.0  0.40278  0.09089  0.18242  1.0000
  H   H833      1.0  0.33483  0.08790  0.10931  1.0000
  H   H834      1.0  0.33457  0.08311  0.15046  1.0000
  H   H835      1.0  0.35383  0.07807  0.12667  1.0000
  H   H836      1.0  0.36738  0.14014  0.12157  1.0000
  H   H837      1.0  0.38575  0.12594  0.12976  1.0000
  H   H838      1.0  0.38411  0.14632  0.14915  1.0000
  N   N36       1.0  0.36962  0.21394  0.22924  1.0000
  C   C505      1.0  0.35327  0.21954  0.24702  1.0000
  C   C506      1.0  0.38156  0.22949  0.22769  1.0000
  C   C507      1.0  0.37845  0.19958  0.24820  1.0000
  C   C508      1.0  0.36447  0.20740  0.19710  1.0000
  C   C509      1.0  0.34007  0.20496  0.25453  1.0000
  C   C510      1.0  0.37333  0.24646  0.21393  1.0000
  C   C511      1.0  0.39535  0.19152  0.23421  1.0000
  C   C512      1.0  0.37794  0.20944  0.17003  1.0000
  H   H839      1.0  0.35671  0.22580  0.26976  1.0000
  H   H840      1.0  0.34579  0.22965  0.23354  1.0000
  H   H841      1.0  0.39359  0.22658  0.21378  1.0000
  H   H842      1.0  0.38636  0.23277  0.25164  1.0000
  H   H843      1.0  0.38150  0.20432  0.27230  1.0000
  H   H844      1.0  0.36964  0.18829  0.25169  1.0000
  H   H845      1.0  0.36104  0.19331  0.19830  1.0000
  H   H846      1.0  0.35231  0.21406  0.18868  1.0000
  H   H847      1.0  0.34447  0.19673  0.27468  1.0000
  H   H848      1.0  0.32728  0.21099  0.26149  1.0000
  H   H849      1.0  0.33768  0.19648  0.23401  1.0000
  H   H850      1.0  0.38384  0.25582  0.20787  1.0000
  H   H851      1.0  0.36577  0.24406  0.19229  1.0000
  H   H852      1.0  0.36462  0.25308  0.23139  1.0000
  H   H853      1.0  0.40125  0.18246  0.25189  1.0000
  H   H854      1.0  0.40537  0.20138  0.22845  1.0000
  H   H855      1.0  0.39239  0.18338  0.21340  1.0000
  H   H856      1.0  0.37939  0.22331  0.16283  1.0000
  H   H857      1.0  0.37305  0.20257  0.14894  1.0000
  H   H858      1.0  0.39097  0.20377  0.17547  1.0000
  H   H859      1.0  0.29952  0.30758  0.08589  1.0000
  H   H860      1.0  0.29200  0.31188  0.13703  1.0000
  H   H861      1.0  0.26185  0.31066  0.10258  1.0000
  H   H862      1.0  0.37228  0.10476  0.00221  1.0000
  H   H863      1.0  0.45974  0.01434  0.46061  1.0000
  C   C513      1.0  0.44597  0.04886  0.44274  1.0000
  C   C514      1.0  0.29514  0.29506  0.09661  1.0000
  H   H864      1.0  0.33500  0.05767  0.45824  1.0000
  H   H865      1.0  0.34313  0.03578  0.45013  1.0000
  H   H866      1.0  0.43081  0.03366  0.35748  1.0000
  H   H867      1.0  0.36784  0.03865  0.48042  1.0000
  H   H868      1.0  0.47914  0.03798  0.45550  1.0000
  H   H869      1.0  0.48366  0.12757  0.35600  1.0000
  H   H870      1.0  0.49337  0.11948  0.40972  1.0000
  H   H871      1.0  0.27427  0.30922  0.20775  1.0000
  H   H872      1.0  0.45294  0.03511  0.00482  1.0000
  H   H873      1.0  0.29588  0.31165  0.19041  1.0000
  H   H874      1.0  0.48672  0.02616  0.38748  1.0000
  H   H875      1.0  0.33124  0.03987  0.48527  1.0000
  H   H876      1.0  0.36418  0.06052  0.47006  1.0000
  H   H877      1.0  0.48956  0.01373  0.42401  1.0000
  H   H878      1.0  0.46869  0.13552  0.38488  1.0000
  C   C515      1.0  0.26221  0.29780  0.14900  1.0000
  H   H879      1.0  0.26539  0.26320  0.14896  1.0000
  C   C516      1.0  0.50255  0.08367  0.40735  1.0000
  H   H880      1.0  0.35980  0.11279  0.49353  1.0000
  C   C517      1.0  0.49535  0.13324  0.40219  1.0000
  H   H881      1.0  0.43964  0.05939  0.48903  1.0000
  H   H882      1.0  0.38856  0.07071  0.48915  1.0000
  H   H883      1.0  0.46256  0.05737  0.48199  1.0000
  C   C518      1.0  0.35858  0.04979  0.48451  1.0000
  H   H884      1.0  0.50219  0.03258  0.41607  1.0000
  H   H885      1.0  0.46061  0.05682  0.99850  1.0000
  C   C519      1.0  0.38579  0.07334  0.51429  1.0000
  H   H886      1.0  0.47078  0.10546  0.94501  1.0000
  Fe  Fe74      1.0  0.33076  0.32639  0.68733  1.0000
  S   S146      1.0  0.32488  0.29849  0.70428  1.0000
  C   C520      1.0  0.38576  0.10241  0.62147  1.0000
  Fe  Fe75      1.0  0.43252  0.08996  0.90825  1.0000
  S   S147      1.0  0.41165  0.07475  0.88324  1.0000
  S   S148      1.0  0.46061  0.08376  0.89134  1.0000
  Fe  Fe76      1.0  0.40530  0.10633  0.95238  1.0000
  S   S149      1.0  0.38303  0.09172  0.93126  1.0000
  C   C521      1.0  0.46860  0.02155  0.91171  1.0000
  Fe  Fe77      1.0  0.40145  0.06839  0.93170  1.0000
  S   S150      1.0  0.39220  0.04029  0.93894  1.0000
  Fe  Fe78      1.0  0.39476  0.09927  0.88422  1.0000
  S   S151      1.0  0.37432  0.10685  0.84612  1.0000
  S   S152      1.0  0.42300  0.08243  0.95660  1.0000
  S   S153      1.0  0.41639  0.11507  0.90549  1.0000
  Fe  Fe79      1.0  0.32806  0.19750  0.65021  1.0000
  S   S154      1.0  0.31637  0.18989  0.69671  1.0000
  S   S155      1.0  0.33632  0.22499  0.63518  1.0000
  Fe  Fe80      1.0  0.32830  0.15931  0.62630  1.0000
  S   S156      1.0  0.31639  0.14926  0.67161  1.0000
  S   S157      1.0  0.33179  0.13975  0.58610  1.0000
  Fe  Fe81      1.0  0.29844  0.17297  0.66777  1.0000
  S   S158      1.0  0.26877  0.17410  0.67564  1.0000
  Fe  Fe82      1.0  0.33543  0.16682  0.69644  1.0000
  S   S159      1.0  0.35658  0.16153  0.73434  1.0000
  S   S160      1.0  0.30922  0.18195  0.62138  1.0000
  S   S161      1.0  0.34817  0.17553  0.65096  1.0000
  C   C522      1.0  0.27791  0.31974  0.67866  1.0000
  H   H887      1.0  0.32270  0.14677  0.91553  1.0000
  H   H888      1.0  0.27211  0.15359  0.61789  1.0000
  C   C523      1.0  0.35016  0.04027  0.53855  1.0000
  C   C524      1.0  0.37863  0.12665  0.52095  1.0000
  C   C525      1.0  0.38096  0.13726  0.54753  1.0000
  C   C526      1.0  0.36667  0.14194  0.56712  1.0000
  C   C527      1.0  0.34996  0.13566  0.56075  1.0000
  C   C528      1.0  0.34762  0.12509  0.53414  1.0000
  C   C529      1.0  0.36183  0.12072  0.51417  1.0000
  H   H889      1.0  0.39388  0.14204  0.55277  1.0000
  H   H890      1.0  0.36857  0.15036  0.58710  1.0000
  H   H891      1.0  0.33468  0.12041  0.52874  1.0000
  N   N37       1.0  0.26952  0.30288  0.66841  1.0000
  C   C530      1.0  0.36958  0.12258  0.81576  1.0000
  C   C531      1.0  0.38122  0.13575  0.80697  1.0000
  C   C532      1.0  0.37689  0.14761  0.78238  1.0000
  C   C533      1.0  0.36085  0.14659  0.76622  1.0000
  C   C534      1.0  0.34910  0.13358  0.77532  1.0000
  C   C535      1.0  0.35347  0.12167  0.79976  1.0000
  H   H892      1.0  0.39364  0.13670  0.81893  1.0000
  H   H893      1.0  0.38613  0.15757  0.77571  1.0000
  H   H894      1.0  0.33668  0.13259  0.76338  1.0000
  H   H895      1.0  0.34430  0.11160  0.80631  1.0000
  C   C536      1.0  0.33684  0.14866  0.91008  1.0000
  C   C537      1.0  0.39830  0.02428  0.96763  1.0000
  H   H896      1.0  0.39307  0.13571  0.62565  1.0000
  H   H897      1.0  0.37788  0.15157  0.64227  1.0000
  H   H898      1.0  0.35140  0.13443  0.66996  1.0000
  C   C538      1.0  0.32756  0.27834  0.68389  1.0000
  C   C539      1.0  0.33668  0.27712  0.65533  1.0000
  C   C540      1.0  0.33887  0.26075  0.64046  1.0000
  C   C541      1.0  0.33187  0.24543  0.65375  1.0000
  C   C542      1.0  0.32241  0.24670  0.68198  1.0000
  C   C543      1.0  0.32039  0.26305  0.69704  1.0000
  H   H899      1.0  0.34225  0.28875  0.64490  1.0000
  H   H900      1.0  0.34620  0.25992  0.61862  1.0000
  H   H901      1.0  0.31692  0.23506  0.69249  1.0000
  H   H902      1.0  0.31329  0.26385  0.71912  1.0000
  H   H903      1.0  0.41787  0.02036  0.52660  1.0000
  H   H904      1.0  0.25652  0.18917  0.51834  1.0000
  C   C544      1.0  0.48106  0.08807  0.90953  1.0000
  C   C545      1.0  0.48246  0.09930  0.93524  1.0000
  H   H905      1.0  0.33193  0.11549  0.63870  1.0000
  N   N38       1.0  0.37371  0.22785  0.71253  1.0000
  C   C546      1.0  0.37826  0.23065  0.67820  1.0000
  C   C547      1.0  0.36642  0.24503  0.72473  1.0000
  C   C548      1.0  0.35962  0.21421  0.71432  1.0000
  C   C549      1.0  0.39003  0.22170  0.72953  1.0000
  C   C550      1.0  0.38352  0.21415  0.65936  1.0000
  C   C551      1.0  0.37855  0.26089  0.72110  1.0000
  C   C552      1.0  0.35262  0.20960  0.74734  1.0000
  C   C553      1.0  0.39076  0.22502  0.76543  1.0000
  H   H906      1.0  0.36717  0.23708  0.66554  1.0000
  H   H907      1.0  0.38939  0.23980  0.67555  1.0000
  H   H908      1.0  0.36254  0.24432  0.74980  1.0000
  H   H909      1.0  0.35404  0.24852  0.71237  1.0000
  H   H910      1.0  0.34817  0.21831  0.69976  1.0000
  H   H911      1.0  0.36434  0.20151  0.70444  1.0000
  H   H912      1.0  0.39230  0.20741  0.72570  1.0000
  H   H913      1.0  0.40175  0.22827  0.71945  1.0000
  H   H914      1.0  0.39348  0.20594  0.67158  1.0000
  H   H915      1.0  0.37186  0.20626  0.65383  1.0000
  H   H916      1.0  0.38917  0.21821  0.63634  1.0000
  H   H917      1.0  0.37314  0.27197  0.73522  1.0000
  H   H918      1.0  0.39202  0.25803  0.72939  1.0000
  H   H919      1.0  0.37896  0.26555  0.69630  1.0000
  H   H920      1.0  0.36274  0.20269  0.76155  1.0000
  H   H921      1.0  0.34180  0.20017  0.74491  1.0000
  H   H922      1.0  0.34703  0.22105  0.75996  1.0000
  H   H923      1.0  0.39781  0.21385  0.77683  1.0000
  H   H924      1.0  0.37796  0.22621  0.77754  1.0000
  H   H925      1.0  0.39870  0.23672  0.77051  1.0000
  S   S162      1.0  0.40212  0.12736  0.98986  1.0000
  H   H926      1.0  0.32739  0.11270  0.90080  1.0000
  H   H927      1.0  0.39228  0.09683  0.72072  1.0000
  H   H928      1.0  0.39870  0.07496  0.52577  1.0000
  C   C554      1.0  0.49645  0.08029  0.89709  1.0000
  C   C555      1.0  0.38192  0.10102  0.65715  1.0000
  H   H929      1.0  0.25998  0.33272  0.56521  1.0000
  H   H930      1.0  0.33713  0.10520  0.67502  1.0000
  H   H931      1.0  0.46839  0.05220  0.94563  1.0000
  H   H932      1.0  0.34841  0.11557  0.96228  1.0000
  H   H933      1.0  0.49556  0.07171  0.87701  1.0000
  H   H934      1.0  0.39959  0.12623  0.68340  1.0000
  H   H935      1.0  0.43777  0.03972  0.86897  1.0000
  H   H936      1.0  0.35008  0.10538  0.90420  1.0000
  H   H937      1.0  0.33351  0.09595  0.92804  1.0000
  H   H938      1.0  0.32701  0.12382  0.95396  1.0000
  C   C556      1.0  0.47769  0.03603  0.89248  1.0000
  H   H939      1.0  0.27976  0.32882  0.65843  1.0000
  N   N39       1.0  0.45513  0.02789  0.93534  1.0000
  C   C557      1.0  0.40687  0.02862  0.99547  1.0000
  C   C558      1.0  0.35734  0.02162  0.53172  1.0000
  H   H940      1.0  0.38459  0.04622  0.52650  1.0000
  C   C559      1.0  0.36671  0.13619  0.92309  1.0000
  N   N40       1.0  0.35778  0.05478  0.51871  1.0000
  H   H941      1.0  0.33255  0.06804  0.51570  1.0000
  H   H942      1.0  0.34853  0.15334  0.86322  1.0000
  C   C560      1.0  0.43319  0.03126  0.88863  1.0000
  C   C561      1.0  0.34031  0.12197  0.94361  1.0000
  C   C562      1.0  0.41153  0.01645  0.50511  1.0000
  C   C563      1.0  0.33785  0.10846  0.91729  1.0000
  C   C564      1.0  0.37613  0.05801  0.53009  1.0000
  H   H943      1.0  0.35249  0.04264  0.56399  1.0000
  H   H944      1.0  0.44046  0.05051  0.98106  1.0000
  H   H945      1.0  0.26730  0.28790  0.62532  1.0000
  H   H946      1.0  0.46308  0.01235  0.89456  1.0000
  H   H947      1.0  0.35380  0.16381  0.95751  1.0000
  H   H948      1.0  0.39057  0.11915  0.73525  1.0000
  H   H949      1.0  0.48712  0.04327  0.90709  1.0000
  H   H950      1.0  0.29047  0.28602  0.68590  1.0000
  C   C565      1.0  0.25733  0.20260  0.58850  1.0000
  H   H951      1.0  0.47677  0.03368  0.96651  1.0000
  H   H952      1.0  0.38218  0.14059  0.69521  1.0000
  H   H953      1.0  0.35863  0.14493  0.98025  1.0000
  H   H954      1.0  0.36983  0.16227  0.90082  1.0000
  C   C566      1.0  0.27604  0.28761  0.68799  1.0000
  H   H955      1.0  0.28078  0.29865  0.73464  1.0000
  H   H956      1.0  0.37182  0.02068  0.53327  1.0000
  C   C567      1.0  0.35727  0.12321  0.65674  1.0000
  C   C568      1.0  0.38950  0.14311  0.64702  1.0000
  H   H957      1.0  0.34767  0.09803  0.63863  1.0000
  H   H958      1.0  0.37404  0.08904  0.66105  1.0000
  C   C569      1.0  0.34586  0.07939  0.55478  1.0000
  H   H959      1.0  0.30284  0.30465  0.64116  1.0000
  H   H960      1.0  0.27103  0.31058  0.61923  1.0000
  C   C570      1.0  0.33168  0.15332  0.98179  1.0000
  H   H961      1.0  0.35315  0.01689  0.50833  1.0000
  C   C571      1.0  0.36819  0.11121  0.70596  1.0000
  C   C572      1.0  0.38319  0.10722  0.72932  1.0000
  H   H962      1.0  0.27655  0.27588  0.73447  1.0000
  H   H963      1.0  0.40047  0.15208  0.65184  1.0000
  C   C573      1.0  0.34288  0.10948  0.65229  1.0000
  H   H964      1.0  0.36002  0.12873  0.63313  1.0000
  H   H965      1.0  0.38153  0.15922  0.93755  1.0000
  H   H966      1.0  0.38436  0.08931  0.61061  1.0000
  H   H967      1.0  0.44400  0.05183  0.91599  1.0000
  C   C574      1.0  0.38650  0.13142  0.67618  1.0000
  H   H968      1.0  0.39937  0.10680  0.61707  1.0000
  H   H969      1.0  0.37743  0.10242  0.75181  1.0000
  H   H970      1.0  0.38935  0.14895  0.90249  1.0000
  H   H971      1.0  0.35972  0.12151  0.71698  1.0000
  H   H972      1.0  0.34510  0.13038  0.87093  1.0000
  C   C575      1.0  0.29430  0.29554  0.62837  1.0000
  N   N41       1.0  0.37361  0.11672  0.67312  1.0000
  H   H973      1.0  0.49643  0.13122  0.87424  1.0000
  H   H974      1.0  0.37658  0.11098  0.60828  1.0000
  H   H975      1.0  0.46818  0.04541  0.88188  1.0000
  H   H976      1.0  0.29795  0.28186  0.63482  1.0000
  C   C576      1.0  0.46440  0.03991  0.95779  1.0000
  H   H977      1.0  0.36007  0.09924  0.70549  1.0000
  H   H978      1.0  0.29715  0.29705  0.60283  1.0000
  H   H979      1.0  0.39468  0.09762  0.66830  1.0000
  H   H980      1.0  0.37425  0.12877  0.94127  1.0000
  H   H981      1.0  0.33564  0.03990  0.53652  1.0000
  C   C577      1.0  0.37724  0.15278  0.91558  1.0000
  H   H982      1.0  0.35858  0.08530  0.56085  1.0000
  H   H983      1.0  0.35030  0.08122  0.50456  1.0000
  H   H984      1.0  0.36747  0.12781  0.90199  1.0000
  H   H985      1.0  0.33897  0.16304  0.91132  1.0000
  C   C578      1.0  0.33991  0.14374  0.87511  1.0000
  C   C579      1.0  0.27464  0.29927  0.63461  1.0000
  H   H986      1.0  0.43892  0.01682  0.97226  1.0000
  N   N42       1.0  0.34810  0.13929  0.93418  1.0000
  H   H987      1.0  0.29142  0.31714  0.68746  1.0000
  H   H988      1.0  0.26560  0.21082  0.60378  1.0000
  C   C580      1.0  0.34898  0.15050  0.96335  1.0000
  C   C581      1.0  0.27252  0.28857  0.72361  1.0000
  H   H989      1.0  0.32722  0.14466  0.86247  1.0000
  H   H990      1.0  0.33595  0.09021  0.55486  1.0000
  C   C582      1.0  0.26818  0.33065  0.70408  1.0000
  H   H991      1.0  0.41867  0.03259  0.88861  1.0000
  H   H992      1.0  0.37865  0.08600  0.51666  1.0000
  H   H993      1.0  0.47910  0.01379  0.92377  1.0000
  H   H994      1.0  0.26505  0.32308  0.72555  1.0000
  H   H995      1.0  0.34189  0.06999  0.57335  1.0000
  C   C583      1.0  0.44017  0.03802  0.92043  1.0000
  C   C584      1.0  0.34636  0.07097  0.52184  1.0000
  H   H996      1.0  0.42891  0.03893  0.93704  1.0000
  H   H997      1.0  0.37626  0.06029  0.55593  1.0000
  H   H998      1.0  0.32068  0.15740  0.96638  1.0000
  H   H999      1.0  0.26256  0.21599  0.54482  1.0000
  H   H1000     1.0  0.27050  0.27512  0.67925  1.0000
  S   S163      1.0  0.32375  0.33678  0.63939  1.0000
  H   H1001     1.0  0.26568  0.19131  0.58100  1.0000
  C   C585      1.0  0.25856  0.15779  0.62050  1.0000
  H   H1002     1.0  0.48534  0.02997  0.87294  1.0000
  H   H1003     1.0  0.25851  0.29073  0.72955  1.0000
  H   H1004     1.0  0.49999  0.11196  0.96736  1.0000
  H   H1005     1.0  0.43620  0.01744  0.88318  1.0000
  C   C586      1.0  0.44855  0.01249  0.95413  1.0000
  H   H1006     1.0  0.35196  0.01237  0.54945  1.0000
  C   C587      1.0  0.49907  0.10295  0.94789  1.0000
  C   C588      1.0  0.45381  0.04579  0.98708  1.0000
  C   C589      1.0  0.39431  0.00662  0.96219  1.0000
  H   H1007     1.0  0.32815  0.14145  0.99552  1.0000
  S   S164      1.0  0.39717  0.12067  0.49772  1.0000
  H   H1008     1.0  0.45953  0.00606  0.96723  1.0000
  H   H1009     1.0  0.41960  0.66044  0.12621  1.0000
  H   H1010     1.0  0.42412  0.53730  0.48141  1.0000
  Fe  Fe83      1.0  0.34044  0.35988  0.20895  1.0000
  S   S165      1.0  0.34726  0.38113  0.24547  1.0000
  Fe  Fe84      1.0  0.34664  0.34979  0.14032  1.0000
  S   S166      1.0  0.36644  0.35397  0.10061  1.0000
  S   S167      1.0  0.32877  0.36983  0.16313  1.0000
  Fe  Fe85      1.0  0.33860  0.65584  0.34363  1.0000
  S   S168      1.0  0.32328  0.64765  0.30111  1.0000
  S   S169      1.0  0.34372  0.63553  0.38205  1.0000
  C   C590      1.0  0.39413  0.49734  0.46785  1.0000
  H   H1011     1.0  0.30658  0.60078  0.18313  1.0000
  H   H1012     1.0  0.29611  0.59586  0.24001  1.0000
  H   H1013     1.0  0.33507  0.38394  0.48172  1.0000
  H   H1014     1.0  0.29620  0.64879  0.15417  1.0000
  Fe  Fe86      1.0  0.43586  0.42002  0.44657  1.0000
  S   S170      1.0  0.42979  0.43333  0.40078  1.0000
  S   S171      1.0  0.46276  0.41130  0.46500  1.0000
  Fe  Fe87      1.0  0.39714  0.42222  0.46843  1.0000
  S   S172      1.0  0.38855  0.43580  0.42352  1.0000
  H   H1015     1.0  0.47926  0.62006  0.17084  1.0000
  Fe  Fe88      1.0  0.40599  0.41593  0.39835  1.0000
  S   S173      1.0  0.40242  0.39734  0.35587  1.0000
  Fe  Fe89      1.0  0.41291  0.45192  0.42977  1.0000
  S   S174      1.0  0.41751  0.48141  0.42585  1.0000
  S   S175      1.0  0.41308  0.40158  0.44342  1.0000
  S   S176      1.0  0.42042  0.43940  0.47546  1.0000
  Fe  Fe90      1.0  0.40206  0.59962  0.09618  1.0000
  S   S177      1.0  0.41136  0.61978  0.06141  1.0000
  S   S178      1.0  0.39610  0.60461  0.14864  1.0000
  Fe  Fe91      1.0  0.40572  0.56995  0.04654  1.0000
  H   H1016     1.0  0.37915  0.53820  0.38522  1.0000
  S   S179      1.0  0.40049  0.54067  0.04178  1.0000
  Fe  Fe92      1.0  0.43178  0.59972  0.04661  1.0000
  S   S180      1.0  0.45928  0.60874  0.03376  1.0000
  Fe  Fe93      1.0  0.39385  0.60670  0.02650  1.0000
  C   C591      1.0  0.38850  0.51131  0.48728  1.0000
  S   S181      1.0  0.42384  0.58029  0.08366  1.0000
  S   S182      1.0  0.38335  0.58761  0.06217  1.0000
  C   C592      1.0  0.41052  0.49784  0.45291  1.0000
  H   H1017     1.0  0.37190  0.54179  0.44245  1.0000
  H   H1018     1.0  0.28759  0.61380  0.17654  1.0000
  H   H1019     1.0  0.48583  0.64156  0.18095  1.0000
  H   H1020     1.0  0.30425  0.66516  0.19983  1.0000
  C   C593      1.0  0.42118  0.51245  0.45781  1.0000
  H   H1021     1.0  0.40842  0.37532  0.19437  1.0000
  H   H1022     1.0  0.39270  0.50428  0.03622  1.0000
  H   H1023     1.0  0.45361  0.63843  0.18309  1.0000
  H   H1024     1.0  0.43376  0.51312  0.44600  1.0000
  C   C594      1.0  0.36287  0.64610  0.20291  1.0000
  C   C595      1.0  0.37165  0.63250  0.21874  1.0000
  C   C596      1.0  0.38163  0.61994  0.20172  1.0000
  C   C597      1.0  0.38297  0.62071  0.16865  1.0000
  C   C598      1.0  0.37415  0.63429  0.15279  1.0000
  C   C599      1.0  0.36423  0.64689  0.16983  1.0000
  H   H1025     1.0  0.37085  0.63171  0.24413  1.0000
  H   H1026     1.0  0.38841  0.60954  0.21432  1.0000
  H   H1027     1.0  0.37505  0.63515  0.12741  1.0000
  H   H1028     1.0  0.32540  0.64486  0.18453  1.0000
  C   C600      1.0  0.36275  0.63332  0.40528  1.0000
  C   C601      1.0  0.36137  0.62558  0.43522  1.0000
  C   C602      1.0  0.37629  0.62297  0.45409  1.0000
  C   C603      1.0  0.39274  0.62804  0.44307  1.0000
  C   C604      1.0  0.39412  0.63592  0.41321  1.0000
  C   C605      1.0  0.37920  0.63844  0.39427  1.0000
  H   H1029     1.0  0.34867  0.62160  0.44389  1.0000
  C   C606      1.0  0.26385  0.34810  0.13480  1.0000
  H   H1030     1.0  0.40683  0.63984  0.40452  1.0000
  H   H1031     1.0  0.38045  0.64406  0.37096  1.0000
  H   H1032     1.0  0.28118  0.58897  0.21069  1.0000
  C   C607      1.0  0.33203  0.60615  0.22594  1.0000
  H   H1033     1.0  0.34432  0.57459  0.48854  1.0000
  C   C608      1.0  0.36817  0.37189  0.07415  1.0000
  C   C609      1.0  0.35517  0.38493  0.07190  1.0000
  C   C610      1.0  0.35723  0.39897  0.05060  1.0000
  C   C611      1.0  0.37230  0.40017  0.03148  1.0000
  C   C612      1.0  0.38528  0.38712  0.03372  1.0000
  C   C613      1.0  0.38319  0.37305  0.05492  1.0000
  H   H1034     1.0  0.34352  0.38417  0.08647  1.0000
  H   H1035     1.0  0.34707  0.40897  0.04889  1.0000
  H   H1036     1.0  0.35990  0.41985  0.18551  1.0000
  H   H1037     1.0  0.39331  0.36299  0.05648  1.0000
  C   C614      1.0  0.36255  0.38501  0.27660  1.0000
  C   C615      1.0  0.37705  0.37401  0.28244  1.0000
  C   C616      1.0  0.38898  0.37801  0.30670  1.0000
  C   C617      1.0  0.38660  0.39293  0.32585  1.0000
  C   C618      1.0  0.37208  0.40390  0.32003  1.0000
  C   C619      1.0  0.36026  0.40001  0.29553  1.0000
  H   H1038     1.0  0.37910  0.36245  0.26821  1.0000
  H   H1039     1.0  0.40008  0.36936  0.31081  1.0000
  H   H1040     1.0  0.36998  0.41544  0.33428  1.0000
  H   H1041     1.0  0.34916  0.40868  0.29133  1.0000
  C   C620      1.0  0.40466  0.52552  0.01080  1.0000
  C   C621      1.0  0.26851  0.35362  0.10452  1.0000
  H   H1042     1.0  0.49816  0.38019  0.38489  1.0000
  H   H1043     1.0  0.45187  0.39365  0.32546  1.0000
  C   C622      1.0  0.48405  0.41358  0.44840  1.0000
  H   H1044     1.0  0.50065  0.38298  0.34350  1.0000
  H   H1045     1.0  0.46145  0.41212  0.34517  1.0000
  H   H1046     1.0  0.31234  0.61978  0.25350  1.0000
  C   C623      1.0  0.48113  0.59062  0.07534  1.0000
  C   C624      1.0  0.47981  0.60118  0.04844  1.0000
  C   C625      1.0  0.45341  0.61517  0.12558  1.0000
  H   H1047     1.0  0.46937  0.58588  0.08663  1.0000
  S   S183      1.0  0.37393  0.62333  0.99961  1.0000
  C   C626      1.0  0.42210  0.65339  0.14866  1.0000
  H   H1048     1.0  0.28803  0.63562  0.23944  1.0000
  N   N43       1.0  0.37247  0.56847  0.42492  1.0000
  C   C627      1.0  0.38492  0.58107  0.40938  1.0000
  C   C628      1.0  0.35731  0.56583  0.40292  1.0000
  C   C629      1.0  0.38928  0.54164  0.40260  1.0000
  C   C630      1.0  0.36646  0.57603  0.45592  1.0000
  C   C631      1.0  0.40255  0.58366  0.42607  1.0000
  C   C632      1.0  0.34441  0.58153  0.39969  1.0000
  H   H1049     1.0  0.33943  0.66894  0.41373  1.0000
  H   H1050     1.0  0.47183  0.37405  0.33183  1.0000
  H   H1051     1.0  0.38797  0.57711  0.38475  1.0000
  H   H1052     1.0  0.37877  0.59432  0.40730  1.0000
  H   H1053     1.0  0.34963  0.55411  0.40962  1.0000
  H   H1054     1.0  0.36214  0.56290  0.37871  1.0000
  H   H1055     1.0  0.39183  0.55246  0.44913  1.0000
  H   H1056     1.0  0.34741  0.55253  0.02379  1.0000
  C   C633      1.0  0.47892  0.63390  0.16281  1.0000
  H   H1057     1.0  0.37073  0.66453  0.44227  1.0000
  H   H1058     1.0  0.41068  0.57151  0.42688  1.0000
  H   H1059     1.0  0.41023  0.59356  0.41285  1.0000
  H   H1060     1.0  0.40068  0.58890  0.45009  1.0000
  H   H1061     1.0  0.33720  0.58420  0.42193  1.0000
  H   H1062     1.0  0.35102  0.59360  0.39170  1.0000
  H   H1063     1.0  0.33444  0.57845  0.38170  1.0000
  H   H1064     1.0  0.35016  0.41520  0.14773  1.0000
  C   C634      1.0  0.48686  0.42125  0.41885  1.0000
  C   C635      1.0  0.38128  0.55106  0.43143  1.0000
  H   H1065     1.0  0.47592  0.42685  0.40601  1.0000
  S   S184      1.0  0.27916  0.34674  0.16604  1.0000
  C   C636      1.0  0.35464  0.40944  0.17038  1.0000
  C   C637      1.0  0.26522  0.66678  0.36833  1.0000
  C   C638      1.0  0.42991  0.63491  0.14281  1.0000
  H   H1066     1.0  0.40212  0.40714  0.23197  1.0000
  H   H1067     1.0  0.47829  0.65400  0.10384  1.0000
  Fe  Fe94      1.0  0.30917  0.34798  0.16660  1.0000
  H   H1068     1.0  0.40928  0.40534  0.10004  1.0000
  C   C639      1.0  0.45110  0.64489  0.10379  1.0000
  H   H1069     1.0  0.44650  0.61113  0.10382  1.0000
  C   C640      1.0  0.48816  0.46636  0.45578  1.0000
  S   S185      1.0  0.34993  0.66234  0.22294  1.0000
  C   C641      1.0  0.45992  0.64104  0.15983  1.0000
  H   H1070     1.0  0.46750  0.61335  0.11997  1.0000
  H   H1071     1.0  0.37782  0.42342  0.13207  1.0000
  Fe  Fe95      1.0  0.30561  0.67084  0.31161  1.0000
  H   H1072     1.0  0.32816  0.63353  0.23601  1.0000
  C   C642      1.0  0.46965  0.64575  0.08944  1.0000
  H   H1073     1.0  0.42757  0.62743  0.16496  1.0000
  H   H1074     1.0  0.42164  0.62864  0.12473  1.0000
  H   H1075     1.0  0.47602  0.47386  0.46190  1.0000
  S   S186      1.0  0.41491  0.58833  0.00858  1.0000
  H   H1076     1.0  0.40016  0.42662  0.09413  1.0000
  C   C643      1.0  0.40280  0.41648  0.11243  1.0000
  S   S187      1.0  0.27578  0.67069  0.30570  1.0000
  N   N44       1.0  0.38637  0.39984  0.15687  1.0000
  H   H1077     1.0  0.45246  0.60612  0.17524  1.0000
  C   C644      1.0  0.39737  0.38384  0.14903  1.0000
  C   C645      1.0  0.39464  0.41034  0.18273  1.0000
  H   H1078     1.0  0.25929  0.35972  0.05771  1.0000
  C   C646      1.0  0.40001  0.37021  0.17543  1.0000
  C   C647      1.0  0.39049  0.40475  0.21709  1.0000
  H   H1079     1.0  0.37779  0.40420  0.10881  1.0000
  H   H1080     1.0  0.36270  0.38608  0.14548  1.0000
  H   H1081     1.0  0.47575  0.63271  0.08540  1.0000
  H   H1082     1.0  0.39175  0.37692  0.12849  1.0000
  H   H1083     1.0  0.41084  0.38753  0.14184  1.0000
  H   H1084     1.0  0.40915  0.41035  0.17987  1.0000
  H   H1085     1.0  0.39032  0.42432  0.18091  1.0000
  H   H1086     1.0  0.41183  0.42218  0.12979  1.0000
  H   H1087     1.0  0.34493  0.60882  0.23670  1.0000
  H   H1088     1.0  0.36739  0.38576  0.18578  1.0000
  H   H1089     1.0  0.49653  0.40077  0.48784  1.0000
  H   H1090     1.0  0.50225  0.54030  0.02006  1.0000
  H   H1091     1.0  0.32733  0.62374  0.16883  1.0000
  C   C648      1.0  0.36795  0.39432  0.16475  1.0000
  H   H1092     1.0  0.27675  0.60891  0.23109  1.0000
  H   H1093     1.0  0.37984  0.41308  0.22727  1.0000
  N   N45       1.0  0.46001  0.37397  0.37881  1.0000
  C   C649      1.0  0.46666  0.36990  0.41154  1.0000
  H   H1094     1.0  0.39780  0.66505  0.46989  1.0000
  C   C650      1.0  0.44639  0.36057  0.37098  1.0000
  C   C651      1.0  0.45202  0.39221  0.37862  1.0000
  C   C652      1.0  0.45266  0.36863  0.43773  1.0000
  H   H1095     1.0  0.46878  0.65213  0.06593  1.0000
  C   C653      1.0  0.43859  0.36142  0.33768  1.0000
  C   C654      1.0  0.45121  0.40197  0.34657  1.0000
  H   H1096     1.0  0.47428  0.35732  0.41189  1.0000
  H   H1097     1.0  0.47588  0.38010  0.41949  1.0000
  H   H1098     1.0  0.49854  0.57922  0.10994  1.0000
  H   H1099     1.0  0.43486  0.36184  0.38706  1.0000
  H   H1100     1.0  0.43846  0.39204  0.38848  1.0000
  H   H1101     1.0  0.45941  0.40084  0.39461  1.0000
  H   H1102     1.0  0.44374  0.38015  0.43777  1.0000
  H   H1103     1.0  0.44502  0.35643  0.43598  1.0000
  H   H1104     1.0  0.45925  0.36831  0.46098  1.0000
  H   H1105     1.0  0.48062  0.35818  0.35743  1.0000
  S   S188      1.0  0.37395  0.41789  0.00457  1.0000
  H   H1106     1.0  0.30102  0.62768  0.13637  1.0000
  H   H1107     1.0  0.43093  0.37369  0.33395  1.0000
  H   H1108     1.0  0.43857  0.40932  0.34505  1.0000
  H   H1109     1.0  0.29034  0.66649  0.23372  1.0000
  H   H1110     1.0  0.38720  0.39085  0.22051  1.0000
  H   H1111     1.0  0.44227  0.64007  0.08501  1.0000
  H   H1112     1.0  0.48664  0.63495  0.14082  1.0000
  H   H1113     1.0  0.40698  0.35859  0.16549  1.0000
  H   H1114     1.0  0.38754  0.36540  0.18529  1.0000
  H   H1115     1.0  0.37506  0.61714  0.47723  1.0000
  S   S189      1.0  0.41179  0.62508  0.46606  1.0000
  C   C655      1.0  0.41571  0.52622  0.47780  1.0000
  C   C656      1.0  0.49103  0.38403  0.36316  1.0000
  C   C657      1.0  0.47546  0.37192  0.35671  1.0000
  H   H1116     1.0  0.28191  0.35718  0.09949  1.0000
  H   H1117     1.0  0.39970  0.54938  0.39107  1.0000
  H   H1118     1.0  0.48685  0.39792  0.36474  1.0000
  H   H1119     1.0  0.34079  0.66874  0.45613  1.0000
  H   H1120     1.0  0.35757  0.65737  0.15725  1.0000
  H   H1121     1.0  0.43468  0.59869  0.15115  1.0000
  H   H1122     1.0  0.45602  0.58916  0.14660  1.0000
  H   H1123     1.0  0.37769  0.57717  0.47229  1.0000
  H   H1124     1.0  0.31558  0.64550  0.13111  1.0000
  C   C658      1.0  0.48742  0.53745  0.06255  1.0000
  C   C659      1.0  0.28743  0.60066  0.22094  1.0000
  H   H1125     1.0  0.47571  0.54175  0.04893  1.0000
  H   H1126     1.0  0.36911  0.56044  0.01999  1.0000
  C   C660      1.0  0.49527  0.60693  0.03376  1.0000
  H   H1127     1.0  0.46065  0.65557  0.15821  1.0000
  H   H1128     1.0  0.33465  0.60285  0.20103  1.0000
  C   C661      1.0  0.30076  0.65843  0.22212  1.0000
  Fe  Fe96      1.0  0.34053  0.66628  0.27417  1.0000
  H   H1129     1.0  0.50401  0.48172  0.48668  1.0000
  H   H1130     1.0  0.34286  0.40427  0.18255  1.0000
  H   H1131     1.0  0.31220  0.65835  0.23791  1.0000
  C   C662      1.0  0.38523  0.41101  0.12744  1.0000
  H   H1132     1.0  0.39550  0.52913  0.41056  1.0000
  H   H1133     1.0  0.36157  0.58972  0.45330  1.0000
  N   N46       1.0  0.44902  0.63400  0.13329  1.0000
  C   C663      1.0  0.39905  0.50817  0.01450  1.0000
  C   C664      1.0  0.35259  0.56546  0.47431  1.0000
  H   H1134     1.0  0.43042  0.66133  0.16418  1.0000
  C   C665      1.0  0.44888  0.60166  0.15140  1.0000
  N   N47       1.0  0.30712  0.62645  0.20490  1.0000
  C   C666      1.0  0.29385  0.63984  0.21656  1.0000
  C   C667      1.0  0.29752  0.61037  0.19470  1.0000
  C   C668      1.0  0.31748  0.63349  0.17738  1.0000
  C   C669      1.0  0.31969  0.62219  0.23121  1.0000
  H   H1135     1.0  0.44715  0.65876  0.10797  1.0000
  H   H1136     1.0  0.40915  0.65210  0.16054  1.0000
  H   H1137     1.0  0.32708  0.59449  0.23869  1.0000
  C   C670      1.0  0.49771  0.58677  0.08839  1.0000
  H   H1138     1.0  0.34341  0.55839  0.45914  1.0000
  H   H1139     1.0  0.38562  0.48640  0.46375  1.0000
  H   H1140     1.0  0.39691  0.38785  0.01908  1.0000
  C   C671      1.0  0.49853  0.40671  0.46495  1.0000
  H   H1141     1.0  0.50146  0.49054  0.44851  1.0000
  C   C672      1.0  0.39930  0.52574  0.49263  1.0000
  H   H1142     1.0  0.49441  0.61509  0.01293  1.0000
  H   H1143     1.0  0.35896  0.55581  0.49037  1.0000
  H   H1144     1.0  0.50575  0.42650  0.38203  1.0000
  H   H1145     1.0  0.28254  0.64107  0.20024  1.0000
  C   C673      1.0  0.30669  0.63912  0.14838  1.0000
  C   C674      1.0  0.26015  0.66861  0.33688  1.0000
  C   C675      1.0  0.50382  0.42116  0.40541  1.0000
  H   H1146     1.0  0.48689  0.46241  0.43086  1.0000
  H   H1147     1.0  0.48607  0.54359  0.08608  1.0000
  C   C676      1.0  0.50419  0.47807  0.46134  1.0000
  H   H1148     1.0  0.44853  0.35956  0.31887  1.0000
  H   H1149     1.0  0.42910  0.35063  0.33522  1.0000
  H   H1150     1.0  0.27899  0.66662  0.37421  1.0000
  S   S190      1.0  0.35881  0.34042  0.18586  1.0000
  H   H1151     1.0  0.48698  0.52299  0.06474  1.0000
  H   H1152     1.0  0.45182  0.34707  0.37451  1.0000
  H   H1153     1.0  0.48831  0.45454  0.47106  1.0000
  C   C677      1.0  0.35889  0.55301  0.00764  1.0000
  H   H1154     1.0  0.36368  0.53940  0.00400  1.0000
  H   H1155     1.0  0.33442  0.37077  0.00096  1.0000
  H   H1156     1.0  0.50388  0.55825  0.04609  1.0000
  H   H1157     1.0  0.25659  0.66324  0.41643  1.0000
  C   C678      1.0  0.50407  0.54365  0.04527  1.0000
  S   S191      1.0  0.31930  0.33979  0.21417  1.0000
  Fe  Fe97      1.0  0.30938  0.35838  0.66453  1.0000
  H   H1158     1.0  0.44311  0.36561  0.78860  1.0000
  Fe  Fe98      1.0  0.33942  0.36345  0.71329  1.0000
  S   S192      1.0  0.34360  0.38045  0.75764  1.0000
  Fe  Fe99      1.0  0.34751  0.35382  0.64460  1.0000
  S   S193      1.0  0.36604  0.35543  0.60235  1.0000
  S   S194      1.0  0.33261  0.37626  0.66662  1.0000
  Fe  Fe100     1.0  0.34721  0.65094  0.82548  1.0000
  S   S195      1.0  0.32647  0.64269  0.79102  1.0000
  S   S196      1.0  0.36389  0.63066  0.85170  1.0000
  H   H1159     1.0  0.49472  0.39583  0.87719  1.0000
  H   H1160     1.0  0.34104  0.40393  0.89694  1.0000
  Fe  Fe101     1.0  0.34126  0.65912  0.75577  1.0000
  S   S197      1.0  0.34587  0.65288  0.70333  1.0000
  H   H1161     1.0  0.32246  0.40063  0.61425  1.0000
  Fe  Fe102     1.0  0.43499  0.42480  0.95018  1.0000
  S   S198      1.0  0.42883  0.43903  0.90527  1.0000
  S   S199      1.0  0.46220  0.41529  0.96551  1.0000
  Fe  Fe103     1.0  0.39613  0.42415  0.97016  1.0000
  S   S200      1.0  0.38757  0.43862  0.92617  1.0000
  C   C679      1.0  0.40152  0.49574  0.99036  1.0000
  Fe  Fe104     1.0  0.40612  0.42048  0.90013  1.0000
  S   S201      1.0  0.40296  0.40319  0.85600  1.0000
  Fe  Fe105     1.0  0.41079  0.45583  0.93547  1.0000
  S   S202      1.0  0.41171  0.48567  0.93003  1.0000
  S   S203      1.0  0.41348  0.40522  0.94383  1.0000
  C   C680      1.0  0.33274  0.37386  0.97554  1.0000
  Fe  Fe106     1.0  0.40906  0.59860  0.57692  1.0000
  S   S204      1.0  0.43061  0.61103  0.54820  1.0000
  S   S205      1.0  0.40467  0.60806  0.62804  1.0000
  Fe  Fe107     1.0  0.40584  0.56833  0.52819  1.0000
  H   H1162     1.0  0.26422  0.38916  0.54876  1.0000
  S   S206      1.0  0.39139  0.54307  0.51699  1.0000
  Fe  Fe108     1.0  0.44190  0.58389  0.54166  1.0000
  S   S207      1.0  0.46950  0.57265  0.54964  1.0000
  H   H1163     1.0  0.32863  0.40326  0.56188  1.0000
  C   C681      1.0  0.32048  0.36934  0.56862  1.0000
  S   S208      1.0  0.42130  0.57161  0.57242  1.0000
  S   S209      1.0  0.39153  0.59434  0.53488  1.0000
  C   C682      1.0  0.40942  0.50059  0.96190  1.0000
  H   H1164     1.0  0.28037  0.64650  0.85967  1.0000
  H   H1165     1.0  0.43931  0.58850  0.65625  1.0000
  C   C683      1.0  0.42842  0.49145  0.54823  1.0000
  C   C684      1.0  0.48295  0.59322  0.63919  1.0000
  C   C685      1.0  0.41507  0.51796  0.95817  1.0000
  H   H1166     1.0  0.28707  0.36760  0.54170  1.0000
  N   N48       1.0  0.40601  0.46689  0.55908  1.0000
  H   H1167     1.0  0.39391  0.45472  0.51903  1.0000
  H   H1168     1.0  0.42128  0.52182  0.93631  1.0000
  C   C686      1.0  0.36235  0.64026  0.68300  1.0000
  C   C687      1.0  0.37679  0.63265  0.69834  1.0000
  C   C688      1.0  0.38953  0.62293  0.68112  1.0000
  C   C689      1.0  0.38806  0.62055  0.64834  1.0000
  C   C690      1.0  0.37367  0.62825  0.63299  1.0000
  C   C691      1.0  0.36098  0.63805  0.65019  1.0000
  H   H1169     1.0  0.37810  0.63416  0.72350  1.0000
  H   H1170     1.0  0.40053  0.61705  0.69337  1.0000
  H   H1171     1.0  0.37227  0.62660  0.60787  1.0000
  H   H1172     1.0  0.34990  0.64381  0.63797  1.0000
  C   C692      1.0  0.36609  0.62845  0.89290  1.0000
  C   C693      1.0  0.35503  0.63737  0.91389  1.0000
  C   C694      1.0  0.35753  0.63551  0.94653  1.0000
  C   C695      1.0  0.37119  0.62488  0.95843  1.0000
  C   C696      1.0  0.38236  0.61608  0.93742  1.0000
  C   C697      1.0  0.37970  0.61775  0.90479  1.0000
  H   H1173     1.0  0.34450  0.64563  0.90498  1.0000
  H   H1174     1.0  0.34887  0.64240  0.96268  1.0000
  H   H1175     1.0  0.39314  0.60821  0.94632  1.0000
  H   H1176     1.0  0.38841  0.61094  0.88862  1.0000
  C   C698      1.0  0.48604  0.38533  0.88605  1.0000
  H   H1177     1.0  0.49832  0.61717  0.64779  1.0000
  C   C699      1.0  0.31412  0.38325  0.51670  1.0000
  C   C700      1.0  0.37038  0.37397  0.57830  1.0000
  C   C701      1.0  0.36350  0.39062  0.58522  1.0000
  C   C702      1.0  0.36628  0.40470  0.56430  1.0000
  C   C703      1.0  0.37610  0.40236  0.53647  1.0000
  C   C704      1.0  0.38338  0.38586  0.52998  1.0000
  C   C705      1.0  0.38048  0.37174  0.55077  1.0000
  H   H1178     1.0  0.35585  0.39255  0.60647  1.0000
  C   C706      1.0  0.35090  0.37764  0.96110  1.0000
  H   H1179     1.0  0.50412  0.55943  0.56154  1.0000
  H   H1180     1.0  0.38588  0.35893  0.54524  1.0000
  C   C707      1.0  0.36047  0.38668  0.78440  1.0000
  C   C708      1.0  0.37738  0.37925  0.78376  1.0000
  C   C709      1.0  0.39010  0.38450  0.80577  1.0000
  C   C710      1.0  0.38623  0.39728  0.82875  1.0000
  C   C711      1.0  0.36934  0.40475  0.82935  1.0000
  C   C712      1.0  0.35660  0.39943  0.80744  1.0000
  H   H1181     1.0  0.38063  0.36945  0.76630  1.0000
  H   H1182     1.0  0.40306  0.37861  0.80487  1.0000
  H   H1183     1.0  0.36611  0.41472  0.84650  1.0000
  H   H1184     1.0  0.34364  0.40536  0.80815  1.0000
  H   H1185     1.0  0.28774  0.37560  0.58035  1.0000
  H   H1186     1.0  0.42952  0.42717  0.57065  1.0000
  H   H1187     1.0  0.32776  0.34175  0.56979  1.0000
  C   C713      1.0  0.48365  0.42998  0.91963  1.0000
  C   C714      1.0  0.48258  0.41980  0.94698  1.0000
  H   H1188     1.0  0.28281  0.34221  0.60280  1.0000
  H   H1189     1.0  0.47191  0.43608  0.91026  1.0000
  S   S210      1.0  0.31494  0.34725  0.71251  1.0000
  C   C715      1.0  0.49178  0.60092  0.54160  1.0000
  C   C716      1.0  0.49012  0.58313  0.54877  1.0000
  C   C717      1.0  0.33931  0.39887  0.92136  1.0000
  H   H1190     1.0  0.48027  0.60868  0.53577  1.0000
  C   C718      1.0  0.45347  0.58471  0.65514  1.0000
  H   H1191     1.0  0.46258  0.43058  0.85756  1.0000
  H   H1192     1.0  0.46077  0.59843  0.59385  1.0000
  H   H1193     1.0  0.30623  0.41717  0.60442  1.0000
  N   N49       1.0  0.30995  0.38317  0.55145  1.0000
  H   H1194     1.0  0.50253  0.47307  0.95914  1.0000
  C   C719      1.0  0.49686  0.60675  0.63004  1.0000
  H   H1195     1.0  0.50051  0.43977  0.88278  1.0000
  C   C720      1.0  0.33370  0.38490  0.50770  1.0000
  C   C721      1.0  0.41156  0.65134  0.94047  1.0000
  H   H1196     1.0  0.34078  0.35883  0.85958  1.0000
  H   H1197     1.0  0.41359  0.47888  0.60281  1.0000
  C   C722      1.0  0.34212  0.41463  0.94323  1.0000
  H   H1198     1.0  0.39574  0.37729  0.90899  1.0000
  C   C723      1.0  0.34449  0.36817  0.90740  1.0000
  H   H1199     1.0  0.37469  0.39786  0.93405  1.0000
  H   H1200     1.0  0.46987  0.60753  0.69204  1.0000
  S   S211      1.0  0.28182  0.36864  0.65283  1.0000
  H   H1201     1.0  0.30720  0.39433  0.50474  1.0000
  H   H1202     1.0  0.48771  0.58631  0.66074  1.0000
  H   H1203     1.0  0.44687  0.63168  0.69535  1.0000
  C   C724      1.0  0.26837  0.65424  0.85975  1.0000
  H   H1204     1.0  0.38581  0.65779  0.92452  1.0000
  H   H1205     1.0  0.48350  0.58340  0.61989  1.0000
  H   H1206     1.0  0.36065  0.41745  0.56957  1.0000
  H   H1207     1.0  0.46457  0.62645  0.57886  1.0000
  H   H1208     1.0  0.46128  0.36775  0.92101  1.0000
  C   C725      1.0  0.41140  0.48221  0.53878  1.0000
  H   H1209     1.0  0.44385  0.55909  0.64192  1.0000
  C   C726      1.0  0.45450  0.56806  0.63480  1.0000
  C   C727      1.0  0.39831  0.56791  0.93507  1.0000
  C   C728      1.0  0.45686  0.60698  0.61382  1.0000
  H   H1210     1.0  0.43101  0.50206  0.53085  1.0000
  C   C729      1.0  0.46134  0.62604  0.60438  1.0000
  N   N50       1.0  0.45521  0.38534  0.85968  1.0000
  C   C730      1.0  0.44789  0.38370  0.82685  1.0000
  C   C731      1.0  0.45350  0.40438  0.86863  1.0000
  C   C732      1.0  0.44393  0.37454  0.88141  1.0000
  C   C733      1.0  0.47398  0.37873  0.85954  1.0000
  C   C734      1.0  0.44598  0.36493  0.81419  1.0000
  C   C735      1.0  0.41296  0.53029  0.98263  1.0000
  H   H1211     1.0  0.35891  0.36550  0.96470  1.0000
  C   C736      1.0  0.34619  0.37050  0.87137  1.0000
  H   H1212     1.0  0.43471  0.39017  0.82524  1.0000
  H   H1213     1.0  0.45627  0.39060  0.80938  1.0000
  H   H1214     1.0  0.49310  0.47431  0.92109  1.0000
  H   H1215     1.0  0.43944  0.40843  0.86914  1.0000
  H   H1216     1.0  0.42993  0.37882  0.87949  1.0000
  H   H1217     1.0  0.44441  0.36050  0.87469  1.0000
  H   H1218     1.0  0.39706  0.48247  0.99360  1.0000
  H   H1219     1.0  0.48056  0.38253  0.83709  1.0000
  H   H1220     1.0  0.44964  0.63473  0.60737  1.0000
  C   C737      1.0  0.36922  0.54122  0.94027  1.0000
  H   H1221     1.0  0.33857  0.38199  0.86267  1.0000
  H   H1222     1.0  0.41525  0.64939  0.87550  1.0000
  H   H1223     1.0  0.33899  0.39781  0.51426  1.0000
  H   H1224     1.0  0.41081  0.57133  0.94656  1.0000
  H   H1225     1.0  0.40107  0.49263  0.53869  1.0000
  H   H1226     1.0  0.35163  0.57648  0.98227  1.0000
  H   H1227     1.0  0.37940  0.36143  0.90334  1.0000
  C   C738      1.0  0.35312  0.52915  0.94123  1.0000
  H   H1228     1.0  0.27872  0.40542  0.56265  1.0000
  C   C739      1.0  0.46301  0.41738  0.84674  1.0000
  N   N51       1.0  0.46443  0.59995  0.64416  1.0000
  H   H1229     1.0  0.40888  0.43271  0.58820  1.0000
  C   C740      1.0  0.50383  0.47947  0.93580  1.0000
  C   C741      1.0  0.42126  0.45400  0.56029  1.0000
  H   H1230     1.0  0.47442  0.36415  0.86023  1.0000
  H   H1231     1.0  0.40051  0.55503  0.92370  1.0000
  H   H1232     1.0  0.42720  0.49785  0.57151  1.0000
  C   C742      1.0  0.31907  0.35056  0.55578  1.0000
  H   H1233     1.0  0.41315  0.47802  0.51382  1.0000
  H   H1234     1.0  0.33033  0.36597  0.91217  1.0000
  H   H1235     1.0  0.47215  0.62473  0.66500  1.0000
  C   C743      1.0  0.38309  0.37251  0.91846  1.0000
  N   N52       1.0  0.36630  0.56012  0.94965  1.0000
  H   H1236     1.0  0.39583  0.57818  0.91701  1.0000
  H   H1237     1.0  0.47931  0.38988  0.90761  1.0000
  C   C744      1.0  0.36010  0.57112  0.92217  1.0000
  H   H1238     1.0  0.35113  0.35560  0.91397  1.0000
  H   H1239     1.0  0.47255  0.63183  0.61654  1.0000
  C   C745      1.0  0.26976  0.34792  0.60391  1.0000
  C   C746      1.0  0.34225  0.56657  0.90800  1.0000
  H   H1240     1.0  0.43100  0.45804  0.57815  1.0000
  H   H1241     1.0  0.30812  0.41168  0.55118  1.0000
  H   H1242     1.0  0.49435  0.61241  0.60642  1.0000
  Fe  Fe109     1.0  0.41381  0.60519  0.50611  1.0000
  C   C747      1.0  0.26660  0.66844  0.83898  1.0000
  C   C748      1.0  0.49990  0.43214  0.90426  1.0000
  H   H1243     1.0  0.36949  0.57021  0.90211  1.0000
  H   H1244     1.0  0.37503  0.54042  0.91620  1.0000
  C   C749      1.0  0.26586  0.36084  0.62623  1.0000
  H   H1245     1.0  0.40463  0.45334  0.62784  1.0000
  H   H1246     1.0  0.39929  0.65408  0.82136  1.0000
  S   S212      1.0  0.41817  0.44246  0.98072  1.0000
  C   C750      1.0  0.44555  0.62042  0.67914  1.0000
  C   C751      1.0  0.40587  0.66401  0.83605  1.0000
  H   H1247     1.0  0.31660  0.36878  0.59392  1.0000
  H   H1248     1.0  0.33136  0.56741  0.92530  1.0000
  H   H1249     1.0  0.34272  0.55360  0.89641  1.0000
  H   H1250     1.0  0.33912  0.57630  0.88922  1.0000
  H   H1251     1.0  0.29988  0.39517  0.60951  1.0000
  C   C752      1.0  0.38356  0.56746  0.96017  1.0000
  H   H1252     1.0  0.34024  0.53580  0.93898  1.0000
  C   C753      1.0  0.40165  0.47373  0.59145  1.0000
  H   H1253     1.0  0.30915  0.37129  0.50512  1.0000
  H   H1254     1.0  0.39256  0.65006  0.87304  1.0000
  H   H1255     1.0  0.46709  0.56083  0.63814  1.0000
  N   N53       1.0  0.35105  0.38310  0.92697  1.0000
  H   H1256     1.0  0.44229  0.60646  0.61464  1.0000
  C   C754      1.0  0.36955  0.38775  0.91794  1.0000
  H   H1257     1.0  0.38169  0.58103  0.96930  1.0000
  C   C755      1.0  0.39043  0.45874  0.54348  1.0000
  C   C756      1.0  0.37369  0.47025  0.54152  1.0000
  H   H1258     1.0  0.42855  0.45388  0.53747  1.0000
  C   C757      1.0  0.39401  0.46059  0.61535  1.0000
  H   H1259     1.0  0.38643  0.44649  0.55533  1.0000
  C   C758      1.0  0.29075  0.37928  0.55566  1.0000
  H   H1260     1.0  0.43186  0.67064  0.89814  1.0000
  H   H1261     1.0  0.41771  0.54345  0.97969  1.0000
  H   H1262     1.0  0.32524  0.39532  0.92323  1.0000
  H   H1263     1.0  0.32365  0.34949  0.53107  1.0000
  H   H1264     1.0  0.35724  0.38764  0.97594  1.0000
  H   H1265     1.0  0.41062  0.42853  0.54646  1.0000
  C   C759      1.0  0.31440  0.40079  0.56473  1.0000
  H   H1266     1.0  0.38489  0.45117  0.60493  1.0000
  H   H1267     1.0  0.38595  0.46786  0.63298  1.0000
  H   H1268     1.0  0.47698  0.41373  0.84302  1.0000
  H   H1269     1.0  0.30556  0.34556  0.55804  1.0000
  H   H1270     1.0  0.43811  0.62516  0.65837  1.0000
  H   H1271     1.0  0.45273  0.57107  0.60957  1.0000
  H   H1272     1.0  0.34203  0.37430  0.51783  1.0000
  H   H1273     1.0  0.35565  0.41953  0.94173  1.0000
  H   H1274     1.0  0.33456  0.37265  0.56893  1.0000
  H   H1275     1.0  0.43848  0.36717  0.92979  1.0000
  H   H1276     1.0  0.45709  0.58065  0.67951  1.0000
  H   H1277     1.0  0.45630  0.41877  0.82377  1.0000
  C   C760      1.0  0.40412  0.65860  0.87095  1.0000
  H   H1278     1.0  0.32364  0.38528  0.97416  1.0000
  H   H1279     1.0  0.37001  0.39391  0.89419  1.0000
  C   C761      1.0  0.46398  0.61325  0.67028  1.0000
  H   H1280     1.0  0.44855  0.38785  0.92675  1.0000
  H   H1281     1.0  0.36891  0.47438  0.56506  1.0000
  H   H1282     1.0  0.39275  0.48543  0.59041  1.0000
  H   H1283     1.0  0.33895  0.41163  0.96815  1.0000
  H   H1284     1.0  0.36000  0.37151  0.86342  1.0000
  C   C762      1.0  0.31052  0.40341  0.60017  1.0000
  H   H1285     1.0  0.38561  0.36782  0.94279  1.0000
  H   H1286     1.0  0.35419  0.51971  0.92145  1.0000
  H   H1287     1.0  0.35945  0.58524  0.92885  1.0000
  C   C763      1.0  0.27781  0.39411  0.54650  1.0000
  H   H1288     1.0  0.44002  0.48253  0.54773  1.0000
  H   H1289     1.0  0.41350  0.63979  0.92506  1.0000
  S   S213      1.0  0.35577  0.34174  0.69121  1.0000
  C   C764      1.0  0.41707  0.43461  0.56698  1.0000
  H   H1290     1.0  0.50157  0.49377  0.93796  1.0000
  H   H1291     1.0  0.27663  0.34161  0.71129  1.0000
  H   H1292     1.0  0.49741  0.40453  0.98064  1.0000
  C   C765      1.0  0.49807  0.41239  0.95942  1.0000
  H   H1293     1.0  0.45808  0.40688  0.89279  1.0000
  H   H1294     1.0  0.37544  0.48180  0.52606  1.0000
  H   H1295     1.0  0.43771  0.61046  0.69178  1.0000
  C   C766      1.0  0.44859  0.37457  0.91658  1.0000
  H   H1296     1.0  0.38899  0.55973  0.98021  1.0000
  H   H1297     1.0  0.33328  0.42559  0.93593  1.0000
  C   C767      1.0  0.25681  0.34260  0.58259  1.0000
  C   C768      1.0  0.50527  0.57320  0.55598  1.0000
  H   H1298     1.0  0.42437  0.65722  0.94595  1.0000
  H   H1299     1.0  0.37044  0.67039  0.86500  1.0000
  S   S214      1.0  0.37796  0.42018  0.50978  1.0000
  H   H1300     1.0  0.43469  0.35826  0.82535  1.0000
  S   S215      1.0  0.36252  0.66613  0.78932  1.0000
  Fe  Fe110     1.0  0.31231  0.66755  0.80610  1.0000
  C   C769      1.0  0.35358  0.56230  0.97673  1.0000
  H   H1301     1.0  0.32667  0.36230  0.96464  1.0000
  H   H1302     1.0  0.35329  0.52092  0.96288  1.0000
  H   H1303     1.0  0.34033  0.55769  0.97093  1.0000
  H   H1304     1.0  0.37905  0.53488  0.95612  1.0000
  C   C770      1.0  0.39841  0.66479  0.92643  1.0000
  H   H1305     1.0  0.27962  0.39848  0.52182  1.0000
  H   H1306     1.0  0.41985  0.66448  0.82874  1.0000
  H   H1307     1.0  0.45811  0.35693  0.81710  1.0000
  H   H1308     1.0  0.49504  0.37452  0.89345  1.0000
  H   H1309     1.0  0.40613  0.64633  0.96308  1.0000
  H   H1310     1.0  0.39092  0.38386  0.50861  1.0000
  H   H1311     1.0  0.36315  0.46239  0.53081  1.0000
  S   S216      1.0  0.42699  0.57901  0.49714  1.0000
  H   H1312     1.0  0.37566  0.51096  0.49816  1.0000
  Fe  Fe111     1.0  0.33688  0.69467  0.32510  1.0000
  H   H1313     1.0  0.28614  0.88556  0.37290  1.0000
  S   S217      1.0  0.34124  0.72141  0.34736  1.0000
  H   H1314     1.0  0.35630  0.72762  0.41508  1.0000
  Fe  Fe112     1.0  0.34711  0.82161  0.29228  1.0000
  S   S218      1.0  0.32762  0.83272  0.25785  1.0000
  S   S219      1.0  0.35741  0.79427  0.27928  1.0000
  Fe  Fe113     1.0  0.34383  0.85406  0.33434  1.0000
  S   S220      1.0  0.32394  0.86694  0.30235  1.0000
  S   S221      1.0  0.34624  0.86716  0.38226  1.0000
  Fe  Fe114     1.0  0.31155  0.84049  0.30022  1.0000
  S   S222      1.0  0.28337  0.83101  0.30438  1.0000
  Fe  Fe115     1.0  0.34183  0.85820  0.26240  1.0000
  S   S223      1.0  0.34456  0.87684  0.21971  1.0000
  S   S224      1.0  0.33037  0.82800  0.33423  1.0000
  S   S225      1.0  0.36254  0.84681  0.29474  1.0000
  Fe  Fe116     1.0  0.43361  0.91988  0.02079  1.0000
  S   S226      1.0  0.42766  0.93432  0.06539  1.0000
  H   H1315     1.0  0.43519  0.89463  0.08197  1.0000
  H   H1316     1.0  0.39777  0.69542  0.39078  1.0000
  S   S227      1.0  0.38646  0.93547  0.04462  1.0000
  C   C771      1.0  0.45365  0.00119  0.41738  1.0000
  Fe  Fe117     1.0  0.41040  0.95189  0.03532  1.0000
  S   S228      1.0  0.41335  0.98160  0.04059  1.0000
  Fe  Fe118     1.0  0.40431  0.91660  0.07106  1.0000
  S   S229      1.0  0.40257  0.90160  0.11862  1.0000
  C   C772      1.0  0.37610  0.70904  0.43452  1.0000
  S   S230      1.0  0.41137  0.90103  0.02747  1.0000
  H   H1317     1.0  0.31782  0.78924  0.19949  1.0000
  H   H1318     1.0  0.27585  0.83648  0.42275  1.0000
  H   H1319     1.0  0.46008  0.86497  0.05849  1.0000
  C   C773      1.0  0.38877  0.68611  0.37988  1.0000
  C   C774      1.0  0.29168  0.85832  0.46199  1.0000
  C   C775      1.0  0.36431  0.87697  0.40110  1.0000
  C   C776      1.0  0.36149  0.88559  0.42993  1.0000
  C   C777      1.0  0.37535  0.89382  0.44558  1.0000
  C   C778      1.0  0.39221  0.89358  0.43245  1.0000
  C   C779      1.0  0.39501  0.88497  0.40357  1.0000
  C   C780      1.0  0.38118  0.87661  0.38807  1.0000
  H   H1320     1.0  0.34851  0.88591  0.44028  1.0000
  H   H1321     1.0  0.37300  0.90038  0.46775  1.0000
  H   H1322     1.0  0.40803  0.88461  0.39336  1.0000
  H   H1323     1.0  0.38360  0.86974  0.36627  1.0000
  C   C781      1.0  0.36086  0.88284  0.19118  1.0000
  C   C782      1.0  0.37849  0.87764  0.19359  1.0000
  C   C783      1.0  0.39095  0.88348  0.17119  1.0000
  C   C784      1.0  0.38603  0.89446  0.14581  1.0000
  C   C785      1.0  0.36840  0.89959  0.14335  1.0000
  C   C786      1.0  0.35598  0.89390  0.16594  1.0000
  H   H1324     1.0  0.38255  0.86918  0.21278  1.0000
  H   H1325     1.0  0.40451  0.87939  0.17348  1.0000
  H   H1326     1.0  0.36433  0.90805  0.12416  1.0000
  H   H1327     1.0  0.34244  0.89812  0.16376  1.0000
  H   H1328     1.0  0.31226  0.85008  0.49439  1.0000
  C   C787      1.0  0.26562  0.84078  0.32536  1.0000
  H   H1329     1.0  0.45909  0.86290  0.16790  1.0000
  H   H1330     1.0  0.27486  0.86718  0.32202  1.0000
  H   H1331     1.0  0.37372  0.72169  0.38780  1.0000
  C   C788      1.0  0.34595  0.74147  0.32801  1.0000
  C   C789      1.0  0.35157  0.74211  0.29664  1.0000
  C   C790      1.0  0.35525  0.75835  0.28229  1.0000
  C   C791      1.0  0.35301  0.77415  0.29885  1.0000
  C   C792      1.0  0.34726  0.77352  0.33017  1.0000
  C   C793      1.0  0.34398  0.75725  0.34475  1.0000
  H   H1332     1.0  0.35328  0.73008  0.28353  1.0000
  H   H1333     1.0  0.35979  0.75869  0.25813  1.0000
  H   H1334     1.0  0.34559  0.78555  0.34326  1.0000
  H   H1335     1.0  0.33971  0.75690  0.36907  1.0000
  H   H1336     1.0  0.28256  0.75860  0.22104  1.0000
  H   H1337     1.0  0.39953  0.68821  0.46822  1.0000
  C   C794      1.0  0.48180  0.92904  0.04489  1.0000
  C   C795      1.0  0.48088  0.91611  0.02180  1.0000
  H   H1338     1.0  0.37327  0.71305  0.45926  1.0000
  H   H1339     1.0  0.47000  0.93598  0.05216  1.0000
  H   H1340     1.0  0.37767  0.73628  0.41950  1.0000
  S   S231      1.0  0.41013  0.90400  0.45074  1.0000
  H   H1341     1.0  0.30768  0.72869  0.28728  1.0000
  H   H1342     1.0  0.30409  0.82474  0.42233  1.0000
  H   H1343     1.0  0.45165  0.98910  0.43154  1.0000
  C   C796      1.0  0.39972  0.99373  0.47249  1.0000
  H   H1344     1.0  0.29869  0.86581  0.36361  1.0000
  N   N54       1.0  0.36777  0.69168  0.42777  1.0000
  H   H1345     1.0  0.27110  0.88503  0.43934  1.0000
  H   H1346     1.0  0.31591  0.75822  0.30345  1.0000
  H   H1347     1.0  0.27310  0.77434  0.28526  1.0000
  H   H1348     1.0  0.28755  0.86947  0.47735  1.0000
  H   H1349     1.0  0.38821  0.00262  0.42885  1.0000
  C   C797      1.0  0.45294  0.90053  0.13406  1.0000
  C   C798      1.0  0.49640  0.90747  0.01211  1.0000
  H   H1350     1.0  0.47907  0.87847  0.13838  1.0000
  C   C799      1.0  0.46346  0.91669  0.12412  1.0000
  H   H1351     1.0  0.43644  0.86465  0.06356  1.0000
  C   C800      1.0  0.49799  0.93282  0.05889  1.0000
  H   H1352     1.0  0.29313  0.75440  0.30636  1.0000
  H   H1353     1.0  0.27780  0.78917  0.25519  1.0000
  C   C801      1.0  0.37475  0.67777  0.45001  1.0000
  C   C802      1.0  0.31119  0.85489  0.46974  1.0000
  H   H1354     1.0  0.29612  0.73705  0.25395  1.0000
  H   H1355     1.0  0.43747  0.85414  0.16768  1.0000
  S   S232      1.0  0.32158  0.68910  0.28149  1.0000
  H   H1356     1.0  0.42879  0.87483  0.12412  1.0000
  C   C803      1.0  0.29828  0.87792  0.37789  1.0000
  H   H1357     1.0  0.44005  0.87652  0.17765  1.0000
  H   H1358     1.0  0.45709  0.89772  0.15861  1.0000
  H   H1359     1.0  0.30215  0.80083  0.33726  1.0000
  C   C804      1.0  0.26467  0.85879  0.33098  1.0000
  H   H1360     1.0  0.46041  0.92114  0.09996  1.0000
  H   H1361     1.0  0.45662  0.89874  0.06937  1.0000
  H   H1362     1.0  0.47354  0.86300  0.10906  1.0000
  C   C805      1.0  0.44859  0.88866  0.08101  1.0000
  C   C806      1.0  0.48668  0.88538  0.09085  1.0000
  C   C807      1.0  0.44277  0.87073  0.12709  1.0000
  C   C808      1.0  0.40744  0.99773  0.01200  1.0000
  H   H1363     1.0  0.31406  0.86852  0.41554  1.0000
  H   H1364     1.0  0.31747  0.84491  0.45449  1.0000
  S   S233      1.0  0.46066  0.90986  0.00528  1.0000
  C   C809      1.0  0.44788  0.87299  0.05828  1.0000
  H   H1365     1.0  0.27802  0.84778  0.38736  1.0000
  H   H1366     1.0  0.31334  0.84204  0.39856  1.0000
  H   H1367     1.0  0.46665  0.99999  0.40599  1.0000
  H   H1368     1.0  0.34590  0.70064  0.45695  1.0000
  C   C810      1.0  0.37045  0.72435  0.41281  1.0000
  N   N55       1.0  0.45488  0.88443  0.11379  1.0000
  H   H1369     1.0  0.44606  0.87796  0.03388  1.0000
  H   H1370     1.0  0.31879  0.86717  0.46839  1.0000
  C   C811      1.0  0.30060  0.87395  0.41325  1.0000
  N   N56       1.0  0.28713  0.86214  0.42801  1.0000
  H   H1371     1.0  0.30940  0.88602  0.36970  1.0000
  C   C812      1.0  0.37005  0.68618  0.39393  1.0000
  H   H1372     1.0  0.30155  0.77763  0.33918  1.0000
  S   S234      1.0  0.31973  0.67776  0.35560  1.0000
  H   H1373     1.0  0.30094  0.88668  0.42591  1.0000
  H   H1374     1.0  0.26214  0.76890  0.22768  1.0000
  H   H1375     1.0  0.34202  0.70240  0.41585  1.0000
  H   H1376     1.0  0.31956  0.73995  0.25758  1.0000
  N   N57       1.0  0.36489  0.90970  0.29401  1.0000
  C   C813      1.0  0.37484  0.89568  0.27600  1.0000
  C   C814      1.0  0.34830  0.91368  0.27595  1.0000
  C   C815      1.0  0.36062  0.90239  0.32629  1.0000
  C   C816      1.0  0.37650  0.92540  0.29653  1.0000
  C   C817      1.0  0.39165  0.88834  0.29164  1.0000
  C   C818      1.0  0.35075  0.92252  0.24349  1.0000
  C   C819      1.0  0.34474  0.91047  0.34396  1.0000
  C   C820      1.0  0.36833  0.94208  0.31117  1.0000
  H   H1377     1.0  0.36628  0.88429  0.27164  1.0000
  H   H1378     1.0  0.37896  0.90044  0.25237  1.0000
  H   H1379     1.0  0.33916  0.92240  0.28910  1.0000
  H   H1380     1.0  0.34078  0.90146  0.27240  1.0000
  H   H1381     1.0  0.35784  0.88811  0.32492  1.0000
  H   H1382     1.0  0.37209  0.90340  0.34222  1.0000
  H   H1383     1.0  0.38813  0.92222  0.31130  1.0000
  H   H1384     1.0  0.38238  0.92894  0.27332  1.0000
  H   H1385     1.0  0.39713  0.87766  0.27667  1.0000
  H   H1386     1.0  0.40194  0.89836  0.29346  1.0000
  H   H1387     1.0  0.38904  0.88248  0.31507  1.0000
  H   H1388     1.0  0.33767  0.92447  0.23253  1.0000
  H   H1389     1.0  0.35672  0.93560  0.24546  1.0000
  H   H1390     1.0  0.35850  0.91435  0.22689  1.0000
  H   H1391     1.0  0.33225  0.90616  0.33344  1.0000
  H   H1392     1.0  0.34495  0.92489  0.34501  1.0000
  H   H1393     1.0  0.34477  0.90564  0.36866  1.0000
  H   H1394     1.0  0.36966  0.94187  0.33720  1.0000
  H   H1395     1.0  0.35445  0.94432  0.30488  1.0000
  H   H1396     1.0  0.37523  0.95371  0.30175  1.0000
  H   H1397     1.0  0.28434  0.84680  0.47089  1.0000
  H   H1398     1.0  0.47775  0.91445  0.12704  1.0000
  H   H1399     1.0  0.44342  0.00128  0.39897  1.0000
  H   H1400     1.0  0.26560  0.87501  0.40331  1.0000
  H   H1401     1.0  0.43890  0.90475  0.13549  1.0000
  H   H1402     1.0  0.36165  0.69429  0.37806  1.0000
  H   H1403     1.0  0.36892  0.67956  0.47394  1.0000
  C   C821      1.0  0.34832  0.69390  0.43408  1.0000
  C   C822      1.0  0.27338  0.76254  0.24001  1.0000
  H   H1404     1.0  0.25655  0.85950  0.46845  1.0000
  H   H1405     1.0  0.48375  0.89897  0.08365  1.0000
  H   H1406     1.0  0.39058  0.70832  0.43317  1.0000
  H   H1407     1.0  0.26862  0.75069  0.25246  1.0000
  H   H1408     1.0  0.45978  0.92775  0.13983  1.0000
  H   H1409     1.0  0.39682  0.98009  0.46852  1.0000
  C   C823      1.0  0.30148  0.83427  0.40305  1.0000
  H   H1410     1.0  0.44424  0.85819  0.11401  1.0000
  H   H1411     1.0  0.38812  0.69014  0.35474  1.0000
  H   H1412     1.0  0.29509  0.79020  0.20978  1.0000
  H   H1413     1.0  0.29947  0.82688  0.38093  1.0000
  H   H1414     1.0  0.48819  0.87712  0.06953  1.0000
  C   C824      1.0  0.28488  0.84538  0.40998  1.0000
  C   C825      1.0  0.44523  0.86597  0.16214  1.0000
  H   H1415     1.0  0.31096  0.80270  0.23133  1.0000
  H   H1416     1.0  0.28288  0.79032  0.32454  1.0000
  N   N58       1.0  0.30032  0.77359  0.27081  1.0000
  C   C826      1.0  0.30534  0.78881  0.29130  1.0000
  C   C827      1.0  0.31174  0.77428  0.24168  1.0000
  C   C828      1.0  0.30388  0.75690  0.28914  1.0000
  C   C829      1.0  0.28111  0.77563  0.26345  1.0000
  C   C830      1.0  0.47346  0.87728  0.11438  1.0000
  C   C831      1.0  0.30850  0.79009  0.21965  1.0000
  C   C832      1.0  0.30684  0.73985  0.27041  1.0000
  C   C833      1.0  0.29736  0.78910  0.32485  1.0000
  H   H1417     1.0  0.31980  0.78934  0.29407  1.0000
  H   H1418     1.0  0.30159  0.80150  0.28016  1.0000
  H   H1419     1.0  0.31035  0.76255  0.22676  1.0000
  H   H1420     1.0  0.32585  0.77422  0.24833  1.0000
  C   C834      1.0  0.26983  0.87206  0.42771  1.0000
  C   C835      1.0  0.39474  0.67674  0.45509  1.0000
  Fe  Fe119     1.0  0.39502  0.92076  0.00074  1.0000
  H   H1421     1.0  0.49850  0.94256  0.07724  1.0000
  S   S235      1.0  0.35703  0.67314  0.31633  1.0000
  H   H1422     1.0  0.49987  0.88552  0.10176  1.0000
  H   H1423     1.0  0.40225  0.67501  0.43303  1.0000
  H   H1424     1.0  0.50412  0.98782  0.08751  1.0000
  H   H1425     1.0  0.32343  0.68034  0.43679  1.0000
  C   C836      1.0  0.33761  0.67690  0.43518  1.0000
  H   H1426     1.0  0.39475  0.67278  0.38091  1.0000
  H   H1427     1.0  0.36500  0.67277  0.39046  1.0000
  Fe  Fe120     1.0  0.34571  0.68929  0.80363  1.0000
  H   H1428     1.0  0.43566  0.98744  0.95268  1.0000
  S   S236      1.0  0.35973  0.71542  0.80798  1.0000
  H   H1429     1.0  0.38961  0.69694  0.90712  1.0000
  Fe  Fe121     1.0  0.33075  0.81868  0.79290  1.0000
  S   S237      1.0  0.31968  0.83828  0.75809  1.0000
  S   S238      1.0  0.32163  0.79018  0.79405  1.0000
  Fe  Fe122     1.0  0.34829  0.84775  0.83114  1.0000
  S   S239      1.0  0.33852  0.86934  0.79920  1.0000
  S   S240      1.0  0.36401  0.84873  0.87655  1.0000
  Fe  Fe123     1.0  0.31282  0.85476  0.80051  1.0000
  S   S241      1.0  0.28622  0.86844  0.80825  1.0000
  Fe  Fe124     1.0  0.34618  0.85129  0.75900  1.0000
  S   S242      1.0  0.36307  0.85662  0.71445  1.0000
  S   S243      1.0  0.32224  0.83460  0.83479  1.0000
  S   S244      1.0  0.35756  0.83036  0.79150  1.0000
  Fe  Fe125     1.0  0.43853  0.92349  0.55018  1.0000
  S   S245      1.0  0.41953  0.94071  0.57687  1.0000
  S   S246      1.0  0.46513  0.92042  0.57468  1.0000
  H   H1430     1.0  0.49473  0.98344  0.53743  1.0000
  S   S247      1.0  0.39060  0.93425  0.52249  1.0000
  H   H1431     1.0  0.34382  0.74482  0.69520  1.0000
  Fe  Fe126     1.0  0.41269  0.95312  0.53025  1.0000
  S   S248      1.0  0.41350  0.98323  0.53028  1.0000
  Fe  Fe127     1.0  0.39903  0.92050  0.56766  1.0000
  S   S249      1.0  0.37941  0.91504  0.60836  1.0000
  C   C837      1.0  0.49864  0.97021  0.54587  1.0000
  S   S250      1.0  0.41849  0.90235  0.54351  1.0000
  H   H1432     1.0  0.34677  0.82007  0.93126  1.0000
  S   S251      1.0  0.33216  0.67472  0.84288  1.0000
  H   H1433     1.0  0.27008  0.87714  0.94402  1.0000
  H   H1434     1.0  0.38757  0.00311  0.94087  1.0000
  C   C838      1.0  0.43911  0.99809  0.93591  1.0000
  C   C839      1.0  0.36818  0.86785  0.89865  1.0000
  C   C840      1.0  0.37698  0.86625  0.92754  1.0000
  C   C841      1.0  0.37993  0.88105  0.94640  1.0000
  C   C842      1.0  0.37398  0.89761  0.93661  1.0000
  C   C843      1.0  0.36543  0.89922  0.90750  1.0000
  C   C844      1.0  0.36257  0.88445  0.88854  1.0000
  H   H1435     1.0  0.38144  0.85348  0.93552  1.0000
  H   H1436     1.0  0.38650  0.87963  0.96878  1.0000
  H   H1437     1.0  0.36105  0.91203  0.89959  1.0000
  H   H1438     1.0  0.35605  0.88591  0.86614  1.0000
  C   C845      1.0  0.36704  0.87305  0.68496  1.0000
  C   C846      1.0  0.35940  0.88985  0.68598  1.0000
  C   C847      1.0  0.36318  0.90234  0.66220  1.0000
  C   C848      1.0  0.37462  0.89832  0.63694  1.0000
  C   C849      1.0  0.38216  0.88149  0.63582  1.0000
  C   C850      1.0  0.37847  0.86905  0.65969  1.0000
  H   H1439     1.0  0.35057  0.89323  0.70510  1.0000
  H   H1440     1.0  0.35719  0.91525  0.66346  1.0000
  H   H1441     1.0  0.39062  0.87794  0.61634  1.0000
  H   H1442     1.0  0.38437  0.85610  0.65837  1.0000
  C   C851      1.0  0.27157  0.84757  0.85533  1.0000
  C   C852      1.0  0.26922  0.86154  0.83426  1.0000
  C   C853      1.0  0.33901  0.73728  0.71574  1.0000
  H   H1443     1.0  0.28381  0.84027  0.85534  1.0000
  H   H1444     1.0  0.28747  0.90328  0.93368  1.0000
  C   C854      1.0  0.34904  0.73610  0.80294  1.0000
  C   C855      1.0  0.35913  0.75126  0.79917  1.0000
  C   C856      1.0  0.35103  0.76791  0.79545  1.0000
  C   C857      1.0  0.33273  0.76957  0.79610  1.0000
  C   C858      1.0  0.32270  0.75438  0.79963  1.0000
  C   C859      1.0  0.33077  0.73774  0.80287  1.0000
  H   H1445     1.0  0.37327  0.75014  0.79900  1.0000
  H   H1446     1.0  0.35890  0.77946  0.79241  1.0000
  H   H1447     1.0  0.30855  0.75549  0.80006  1.0000
  H   H1448     1.0  0.32282  0.72621  0.80568  1.0000
  C   C860      1.0  0.31527  0.92268  0.91901  1.0000
  H   H1449     1.0  0.30225  0.86750  0.87529  1.0000
  C   C861      1.0  0.48825  0.91581  0.52421  1.0000
  C   C862      1.0  0.48614  0.91799  0.55669  1.0000
  H   H1450     1.0  0.46248  0.92640  0.69180  1.0000
  H   H1451     1.0  0.42136  0.89907  0.74947  1.0000
  N   N59       1.0  0.30510  0.89267  0.89825  1.0000
  C   C863      1.0  0.31246  0.87530  0.88712  1.0000
  C   C864      1.0  0.29464  0.90083  0.87181  1.0000
  C   C865      1.0  0.32014  0.90406  0.90749  1.0000
  H   H1452     1.0  0.36983  0.68428  0.69270  1.0000
  C   C866      1.0  0.30539  0.90754  0.84348  1.0000
  S   S252      1.0  0.43285  0.93692  0.50422  1.0000
  H   H1453     1.0  0.32272  0.87728  0.86878  1.0000
  H   H1454     1.0  0.28614  0.91182  0.88022  1.0000
  H   H1455     1.0  0.32770  0.89797  0.92708  1.0000
  H   H1456     1.0  0.33000  0.90512  0.88822  1.0000
  C   C867      1.0  0.37115  0.68061  0.88336  1.0000
  H   H1457     1.0  0.37615  0.69578  0.64776  1.0000
  H   H1458     1.0  0.31393  0.89714  0.83326  1.0000
  H   H1459     1.0  0.29622  0.91179  0.82461  1.0000
  H   H1460     1.0  0.31332  0.91904  0.84971  1.0000
  H   H1461     1.0  0.39072  0.68646  0.73283  1.0000
  H   H1462     1.0  0.49968  0.91965  0.60092  1.0000
  C   C868      1.0  0.34173  0.69143  0.65265  1.0000
  H   H1463     1.0  0.44736  0.99201  0.91732  1.0000
  N   N60       1.0  0.43035  0.90831  0.66990  1.0000
  H   H1464     1.0  0.43606  0.91951  0.71577  1.0000
  H   H1465     1.0  0.44027  0.89227  0.60975  1.0000
  H   H1466     1.0  0.44062  0.69839  0.87850  1.0000
  C   C869      1.0  0.41797  0.89892  0.72409  1.0000
  C   C870      1.0  0.38309  0.69873  0.72834  1.0000
  C   C871      1.0  0.39896  0.99341  0.98407  1.0000
  H   H1467     1.0  0.36202  0.81087  0.95842  1.0000
  H   H1468     1.0  0.39802  0.94074  0.67781  1.0000
  H   H1469     1.0  0.32524  0.73335  0.71206  1.0000
  H   H1470     1.0  0.28524  0.89129  0.86221  1.0000
  N   N61       1.0  0.35615  0.70956  0.69677  1.0000
  H   H1471     1.0  0.41591  0.88408  0.66611  1.0000
  H   H1472     1.0  0.50212  0.97068  0.57114  1.0000
  H   H1473     1.0  0.42248  0.68710  0.92273  1.0000
  C   C872      1.0  0.36677  0.72006  0.67346  1.0000
  H   H1474     1.0  0.41820  0.94691  0.65891  1.0000
  H   H1475     1.0  0.48693  0.96177  0.54422  1.0000
  H   H1476     1.0  0.33197  0.86978  0.92457  1.0000
  C   C873      1.0  0.42655  0.69533  0.87532  1.0000
  H   H1477     1.0  0.30355  0.92838  0.90745  1.0000
  H   H1478     1.0  0.39160  0.70773  0.71491  1.0000
  H   H1479     1.0  0.44251  0.92119  0.62993  1.0000
  C   C874      1.0  0.27764  0.87809  0.92166  1.0000
  H   H1480     1.0  0.46533  0.93682  0.65449  1.0000
  H   H1481     1.0  0.33093  0.71399  0.67439  1.0000
  H   H1482     1.0  0.35793  0.72827  0.65850  1.0000
  H   H1483     1.0  0.37518  0.72945  0.68621  1.0000
  H   H1484     1.0  0.40195  0.91138  0.66918  1.0000
  H   H1485     1.0  0.36896  0.81557  0.91933  1.0000
  C   C875      1.0  0.37927  0.70971  0.65117  1.0000
  C   C876      1.0  0.41391  0.91861  0.66226  1.0000
  C   C877      1.0  0.41218  0.93733  0.67533  1.0000
  H   H1486     1.0  0.32867  0.68638  0.64610  1.0000
  H   H1487     1.0  0.28191  0.86463  0.91540  1.0000
  H   H1488     1.0  0.34654  0.69910  0.63223  1.0000
  C   C878      1.0  0.50116  0.91801  0.57577  1.0000
  C   C879      1.0  0.32092  0.86344  0.91258  1.0000
  H   H1489     1.0  0.44634  0.94210  0.67735  1.0000
  H   H1490     1.0  0.32648  0.85158  0.90106  1.0000
  H   H1491     1.0  0.39306  0.71073  0.65906  1.0000
  C   C880      1.0  0.42136  0.68094  0.89908  1.0000
  H   H1492     1.0  0.32617  0.93166  0.91326  1.0000
  H   H1493     1.0  0.43909  0.88120  0.66582  1.0000
  C   C881      1.0  0.29323  0.89043  0.92640  1.0000
  H   H1494     1.0  0.39578  0.97990  0.97950  1.0000
  H   H1495     1.0  0.40568  0.90672  0.72149  1.0000
  H   H1496     1.0  0.42649  0.00299  0.92623  1.0000
  C   C882      1.0  0.35089  0.72134  0.72386  1.0000
  C   C883      1.0  0.40793  0.99862  0.50033  1.0000
  H   H1497     1.0  0.36264  0.72682  0.73539  1.0000
  H   H1498     1.0  0.36285  0.69184  0.87534  1.0000
  H   H1499     1.0  0.42491  0.69136  0.85058  1.0000
  H   H1500     1.0  0.41906  0.70768  0.87967  1.0000
  H   H1501     1.0  0.35022  0.67977  0.65660  1.0000
  S   S253      1.0  0.37568  0.91642  0.96068  1.0000
  C   C884      1.0  0.33956  0.70297  0.68208  1.0000
  C   C885      1.0  0.35780  0.81062  0.93346  1.0000
  H   H1502     1.0  0.34402  0.71378  0.74258  1.0000
  H   H1503     1.0  0.41256  0.92014  0.63642  1.0000
  C   C886      1.0  0.42786  0.88822  0.62119  1.0000
  N   N62       1.0  0.34495  0.78883  0.89269  1.0000
  C   C887      1.0  0.34932  0.77050  0.88164  1.0000
  C   C888      1.0  0.35168  0.80134  0.86803  1.0000
  C   C889      1.0  0.32522  0.79056  0.89418  1.0000
  C   C890      1.0  0.35309  0.79162  0.92459  1.0000
  C   C891      1.0  0.34264  0.75534  0.90245  1.0000
  C   C892      1.0  0.37138  0.79950  0.85989  1.0000
  C   C893      1.0  0.31764  0.80786  0.90725  1.0000
  C   C894      1.0  0.44610  0.91623  0.65377  1.0000
  H   H1504     1.0  0.34400  0.76840  0.85771  1.0000
  H   H1505     1.0  0.36374  0.76841  0.87960  1.0000
  H   H1506     1.0  0.34918  0.81512  0.87481  1.0000
  H   H1507     1.0  0.34444  0.79980  0.84556  1.0000
  H   H1508     1.0  0.31951  0.78859  0.87033  1.0000
  H   H1509     1.0  0.31947  0.78030  0.90949  1.0000
  H   H1510     1.0  0.34436  0.78657  0.94354  1.0000
  H   H1511     1.0  0.36554  0.78390  0.92691  1.0000
  H   H1512     1.0  0.32838  0.75337  0.89934  1.0000
  H   H1513     1.0  0.34917  0.74295  0.89475  1.0000
  H   H1514     1.0  0.34566  0.75715  0.92769  1.0000
  H   H1515     1.0  0.37584  0.81173  0.84824  1.0000
  H   H1516     1.0  0.37891  0.71589  0.62745  1.0000
  H   H1517     1.0  0.37964  0.79727  0.88090  1.0000
  H   H1518     1.0  0.30330  0.80840  0.90283  1.0000
  H   H1519     1.0  0.32325  0.81953  0.89584  1.0000
  H   H1520     1.0  0.31938  0.80857  0.93311  1.0000
  H   H1521     1.0  0.45655  0.90609  0.64971  1.0000
  S   S254      1.0  0.32532  0.68340  0.76774  1.0000
  C   C895      1.0  0.39000  0.68700  0.88800  1.0000
  H   H1522     1.0  0.44518  0.89849  0.70958  1.0000
  H   H1523     1.0  0.33873  0.74641  0.73601  1.0000
  C   C896      1.0  0.42828  0.88997  0.65736  1.0000
  H   H1524     1.0  0.30077  0.88575  0.94724  1.0000
  H   H1525     1.0  0.39918  0.67647  0.82990  1.0000
  H   H1526     1.0  0.42595  0.87426  0.61507  1.0000
  H   H1527     1.0  0.41556  0.88506  0.71804  1.0000
  H   H1528     1.0  0.41673  0.89566  0.61087  1.0000
  C   C897      1.0  0.36621  0.69421  0.71057  1.0000
  C   C898      1.0  0.43327  0.90671  0.70488  1.0000
  S   S255      1.0  0.41783  0.93833  0.99042  1.0000
  S   S256      1.0  0.28285  0.67363  0.81030  1.0000
  H   H1529     1.0  0.38003  0.70446  0.75171  1.0000
  H   H1530     1.0  0.26022  0.83252  0.89323  1.0000
  C   C899      1.0  0.25812  0.84319  0.87678  1.0000
  H   H1531     1.0  0.47682  0.91572  0.50925  1.0000
  H   H1532     1.0  0.35776  0.68693  0.72742  1.0000
  Fe  Fe128     1.0  0.41123  0.91713  0.49902  1.0000
  H   H1533     1.0  0.41759  0.93886  0.69916  1.0000
  H   H1534     1.0  0.37371  0.78867  0.84298  1.0000
  H   H1535     1.0  0.31309  0.92273  0.94490  1.0000
  H   H1536     1.0  0.36523  0.67576  0.90558  1.0000
  H   H1537     1.0  0.31126  0.85890  0.93026  1.0000
  C   C900      1.0  0.45535  0.93127  0.67073  1.0000
  H   H1538     1.0  0.33182  0.69540  0.69972  1.0000
  H   H1539     1.0  0.39329  0.69457  0.86651  1.0000
  H   H1540     1.0  0.26841  0.88316  0.90359  1.0000
  H   H1541     1.0  0.49582  0.89750  0.99416  1.0000
  C   C901      1.0  0.50515  0.91332  0.51112  1.0000
  H   H1542     1.0  0.39612  0.67508  0.94460  1.0000
  N   N63       1.0  0.40352  0.67294  0.89526  1.0000
  Fe  Fe129     1.0  0.66354  0.31748  0.15474  1.0000
  H   H1543     1.0  0.59661  0.14395  0.14445  1.0000
  S   S257      1.0  0.65569  0.29006  0.13891  1.0000
  C   C902      1.0  0.60283  0.09318  0.16626  1.0000
  Fe  Fe130     1.0  0.64610  0.15944  0.14629  1.0000
  S   S258      1.0  0.66143  0.13786  0.17021  1.0000
  S   S259      1.0  0.62621  0.15603  0.10686  1.0000
  Fe  Fe131     1.0  0.66006  0.18767  0.18988  1.0000
  S   S260      1.0  0.67569  0.16755  0.21729  1.0000
  S   S261      1.0  0.66440  0.21565  0.20728  1.0000
  Fe  Fe132     1.0  0.68375  0.15692  0.17003  1.0000
  S   S262      1.0  0.71277  0.14916  0.16554  1.0000
  Fe  Fe133     1.0  0.65211  0.15015  0.21586  1.0000
  S   S263      1.0  0.64517  0.13141  0.25720  1.0000
  S   S264      1.0  0.66910  0.17769  0.14269  1.0000
  S   S265      1.0  0.63574  0.17106  0.19187  1.0000
  Fe  Fe134     1.0  0.55031  0.08554  0.44858  1.0000
  S   S266      1.0  0.56414  0.07178  0.40872  1.0000
  S   S267      1.0  0.52137  0.08677  0.46280  1.0000
  H   H1544     1.0  0.59854  0.33238  0.17514  1.0000
  S   S268      1.0  0.60152  0.08459  0.43982  1.0000
  N   N64       1.0  0.51443  0.13600  0.39440  1.0000
  Fe  Fe135     1.0  0.58190  0.09529  0.40483  1.0000
  S   S269      1.0  0.58625  0.11327  0.36144  1.0000
  Fe  Fe136     1.0  0.58273  0.06202  0.44661  1.0000
  S   S270      1.0  0.59033  0.03290  0.44629  1.0000
  S   S271      1.0  0.56641  0.10961  0.44227  1.0000
  H   H1545     1.0  0.73661  0.18830  0.15675  1.0000
  H   H1546     1.0  0.59508  0.15140  0.41769  1.0000
  H   H1547     1.0  0.63616  0.28513  0.19541  1.0000
  N   N65       1.0  0.63075  0.13414  0.42410  1.0000
  H   H1548     1.0  0.65045  0.31140  0.27187  1.0000
  H   H1549     1.0  0.51489  0.08049  0.39585  1.0000
  H   H1550     1.0  0.54490  0.13526  0.35263  1.0000
  N   N66       1.0  0.61621  0.29841  0.22212  1.0000
  C   C903      1.0  0.63925  0.11651  0.41776  1.0000
  H   H1551     1.0  0.62241  0.32012  0.25268  1.0000
  H   H1552     1.0  0.60723  0.07975  0.17335  1.0000
  C   C904      1.0  0.62068  0.11066  0.03648  1.0000
  C   C905      1.0  0.63491  0.11090  0.05739  1.0000
  C   C906      1.0  0.63688  0.12472  0.07889  1.0000
  C   C907      1.0  0.62450  0.13839  0.07998  1.0000
  C   C908      1.0  0.61019  0.13810  0.05924  1.0000
  C   C909      1.0  0.60830  0.12434  0.03753  1.0000
  H   H1553     1.0  0.64461  0.10041  0.05670  1.0000
  H   H1554     1.0  0.64808  0.12490  0.09434  1.0000
  H   H1555     1.0  0.60055  0.14863  0.05990  1.0000
  H   H1556     1.0  0.58879  0.09402  0.17355  1.0000
  C   C910      1.0  0.62869  0.12687  0.28636  1.0000
  C   C911      1.0  0.63136  0.11275  0.30742  1.0000
  C   C912      1.0  0.61860  0.10829  0.33033  1.0000
  C   C913      1.0  0.60283  0.11787  0.33252  1.0000
  C   C914      1.0  0.60017  0.13199  0.31148  1.0000
  C   C915      1.0  0.61296  0.13650  0.28868  1.0000
  H   H1557     1.0  0.64340  0.10511  0.30589  1.0000
  H   H1558     1.0  0.62093  0.09735  0.34611  1.0000
  H   H1559     1.0  0.58811  0.13959  0.31290  1.0000
  H   H1560     1.0  0.61063  0.14740  0.27281  1.0000
  H   H1561     1.0  0.73481  0.17692  0.06786  1.0000
  C   C916      1.0  0.72481  0.16463  0.11005  1.0000
  C   C917      1.0  0.72903  0.15558  0.13776  1.0000
  C   C918      1.0  0.64347  0.10498  0.44666  1.0000
  H   H1562     1.0  0.71123  0.16738  0.10454  1.0000
  C   C919      1.0  0.63211  0.10040  0.18783  1.0000
  C   C920      1.0  0.65967  0.26933  0.15718  1.0000
  C   C921      1.0  0.65417  0.25404  0.14198  1.0000
  C   C922      1.0  0.65578  0.23747  0.15665  1.0000
  C   C923      1.0  0.66260  0.23604  0.18704  1.0000
  C   C924      1.0  0.66816  0.25132  0.20220  1.0000
  C   C925      1.0  0.66699  0.26781  0.18721  1.0000
  H   H1563     1.0  0.64843  0.25505  0.11881  1.0000
  H   H1564     1.0  0.65142  0.22586  0.14469  1.0000
  H   H1565     1.0  0.67350  0.25036  0.22568  1.0000
  H   H1566     1.0  0.67130  0.27942  0.19920  1.0000
  H   H1567     1.0  0.60955  0.27389  0.17015  1.0000
  N   N67       1.0  0.61351  0.10681  0.18287  1.0000
  H   H1568     1.0  0.64015  0.15936  0.43992  1.0000
  C   C926      1.0  0.59599  0.13387  0.16334  1.0000
  H   H1569     1.0  0.60821  0.29214  0.29278  1.0000
  H   H1570     1.0  0.63740  0.29244  0.27755  1.0000
  H   H1571     1.0  0.73448  0.23712  0.17102  1.0000
  H   H1572     1.0  0.70580  0.21540  0.20674  1.0000
  C   C927      1.0  0.60556  0.11029  0.21494  1.0000
  H   H1573     1.0  0.64905  0.13314  0.36097  1.0000
  H   H1574     1.0  0.63130  0.27429  0.23072  1.0000
  H   H1575     1.0  0.72738  0.23338  0.13203  1.0000
  H   H1576     1.0  0.63249  0.08815  0.20204  1.0000
  H   H1577     1.0  0.59601  0.08201  0.12089  1.0000
  H   H1578     1.0  0.64043  0.12963  0.48976  1.0000
  H   H1579     1.0  0.51562  0.14826  0.45902  1.0000
  H   H1580     1.0  0.51096  0.18161  0.39624  1.0000
  H   H1581     1.0  0.61210  0.12154  0.22630  1.0000
  H   H1582     1.0  0.53906  0.13602  0.41973  1.0000
  H   H1583     1.0  0.63955  0.11016  0.20159  1.0000
  H   H1584     1.0  0.65681  0.09375  0.16505  1.0000
  C   C928      1.0  0.62512  0.28175  0.21122  1.0000
  C   C929      1.0  0.64313  0.30107  0.25943  1.0000
  H   H1585     1.0  0.61339  0.27295  0.26944  1.0000
  Fe  Fe137     1.0  0.58514  0.09796  0.47737  1.0000
  H   H1586     1.0  0.60198  0.26481  0.20751  1.0000
  H   H1587     1.0  0.60536  0.12196  0.42273  1.0000
  C   C930      1.0  0.60607  0.09489  0.23859  1.0000
  H   H1588     1.0  0.59151  0.27739  0.27986  1.0000
  C   C931      1.0  0.73823  0.17000  0.08929  1.0000
  C   C932      1.0  0.60275  0.09376  0.12982  1.0000
  H   H1589     1.0  0.62293  0.15684  0.39623  1.0000
  H   H1590     1.0  0.71672  0.20283  0.09931  1.0000
  H   H1591     1.0  0.74730  0.29899  0.09132  1.0000
  H   H1592     1.0  0.61598  0.09370  0.11911  1.0000
  S   S272      1.0  0.61940  0.09327  0.00901  1.0000
  C   C933      1.0  0.62928  0.30999  0.23817  1.0000
  H   H1593     1.0  0.65295  0.29361  0.24522  1.0000
  H   H1594     1.0  0.62042  0.30896  0.17520  1.0000
  N   N68       1.0  0.72173  0.21227  0.16463  1.0000
  C   C934      1.0  0.51328  0.16907  0.40903  1.0000
  C   C935      1.0  0.70620  0.20473  0.14796  1.0000
  C   C936      1.0  0.71893  0.21013  0.19962  1.0000
  C   C937      1.0  0.72365  0.23146  0.15716  1.0000
  H   H1595     1.0  0.59303  0.14091  0.18561  1.0000
  C   C938      1.0  0.70519  0.20821  0.11217  1.0000
  C   C939      1.0  0.71973  0.19115  0.21227  1.0000
  C   C940      1.0  0.70738  0.24312  0.16404  1.0000
  H   H1596     1.0  0.53128  0.01934  0.03672  1.0000
  H   H1597     1.0  0.62307  0.13316  0.17686  1.0000
  H   H1598     1.0  0.69364  0.20951  0.15861  1.0000
  H   H1599     1.0  0.70604  0.19026  0.15093  1.0000
  H   H1600     1.0  0.72851  0.21790  0.21314  1.0000
  H   H1601     1.0  0.64296  0.10677  0.14064  1.0000
  H   H1602     1.0  0.59744  0.09811  0.25900  1.0000
  C   C941      1.0  0.51906  0.12448  0.36662  1.0000
  H   H1603     1.0  0.63852  0.08369  0.14727  1.0000
  H   H1604     1.0  0.59538  0.10532  0.12067  1.0000
  C   C942      1.0  0.60066  0.29505  0.24320  1.0000
  H   H1605     1.0  0.69354  0.20150  0.10276  1.0000
  H   H1606     1.0  0.70345  0.22229  0.10647  1.0000
  H   H1607     1.0  0.60139  0.08256  0.22816  1.0000
  H   H1608     1.0  0.52922  0.13057  0.47246  1.0000
  H   H1609     1.0  0.53228  0.15629  0.38021  1.0000
  H   H1610     1.0  0.73296  0.18508  0.20987  1.0000
  H   H1611     1.0  0.69586  0.23937  0.14999  1.0000
  H   H1612     1.0  0.71031  0.25691  0.15776  1.0000
  H   H1613     1.0  0.70379  0.24291  0.18933  1.0000
  H   H1614     1.0  0.65204  0.11793  0.40546  1.0000
  C   C943      1.0  0.64208  0.14514  0.44510  1.0000
  H   H1615     1.0  0.52784  0.11584  0.42149  1.0000
  C   C944      1.0  0.75600  0.16641  0.09585  1.0000
  H   H1616     1.0  0.53828  0.00986  0.47674  1.0000
  C   C945      1.0  0.62844  0.14340  0.39285  1.0000
  H   H1617     1.0  0.54632  0.11593  0.37739  1.0000
  H   H1618     1.0  0.75021  0.14488  0.16557  1.0000
  S   S273      1.0  0.67781  0.32447  0.19888  1.0000
  H   H1619     1.0  0.64724  0.09163  0.43851  1.0000
  C   C946      1.0  0.51806  0.15467  0.38504  1.0000
  H   H1620     1.0  0.59728  0.12434  0.02164  1.0000
  H   H1621     1.0  0.64234  0.15508  0.35328  1.0000
  S   S274      1.0  0.68088  0.33345  0.12284  1.0000
  H   H1622     1.0  0.63091  0.10875  0.40166  1.0000
  C   C947      1.0  0.51887  0.13430  0.45525  1.0000
  H   H1623     1.0  0.60819  0.15919  0.44992  1.0000
  C   C948      1.0  0.61271  0.13128  0.43759  1.0000
  H   H1624     1.0  0.72068  0.33668  0.10183  1.0000
  C   C949      1.0  0.75348  0.29400  0.11327  1.0000
  C   C950      1.0  0.74679  0.15190  0.14424  1.0000
  H   H1625     1.0  0.74263  0.28978  0.12900  1.0000
  S   S275      1.0  0.56798  0.07476  0.48644  1.0000
  C   C951      1.0  0.73807  0.20264  0.15379  1.0000
  C   C952      1.0  0.64514  0.14560  0.37261  1.0000
  C   C953      1.0  0.63933  0.14326  0.48110  1.0000
  H   H1626     1.0  0.62146  0.25663  0.18883  1.0000
  H   H1627     1.0  0.59910  0.30059  0.18146  1.0000
  H   H1628     1.0  0.63709  0.31734  0.22034  1.0000
  H   H1629     1.0  0.74035  0.20461  0.12816  1.0000
  H   H1630     1.0  0.65623  0.15071  0.38636  1.0000
  C   C954      1.0  0.61381  0.12406  0.16547  1.0000
  C   C955      1.0  0.60099  0.14785  0.44073  1.0000
  C   C956      1.0  0.61358  0.26873  0.19350  1.0000
  H   H1631     1.0  0.65492  0.11005  0.45955  1.0000
  H   H1632     1.0  0.51188  0.15819  0.36215  1.0000
  H   H1633     1.0  0.51418  0.11098  0.37047  1.0000
  H   H1634     1.0  0.63223  0.10340  0.46296  1.0000
  H   H1635     1.0  0.61943  0.09290  0.24835  1.0000
  H   H1636     1.0  0.59150  0.11423  0.21295  1.0000
  H   H1637     1.0  0.58962  0.28927  0.22998  1.0000
  H   H1638     1.0  0.61888  0.12254  0.14115  1.0000
  C   C957      1.0  0.64293  0.09602  0.15813  1.0000
  C   C958      1.0  0.60971  0.30795  0.19310  1.0000
  H   H1639     1.0  0.59502  0.30765  0.25193  1.0000
  C   C959      1.0  0.60227  0.32668  0.19831  1.0000
  H   H1640     1.0  0.58505  0.12505  0.15788  1.0000
  C   C960      1.0  0.60391  0.28386  0.27294  1.0000
  H   H1641     1.0  0.59026  0.32675  0.21312  1.0000
  H   H1642     1.0  0.59000  0.14510  0.45722  1.0000
  H   H1643     1.0  0.61333  0.12497  0.46105  1.0000
  H   H1644     1.0  0.71004  0.18274  0.20071  1.0000
  H   H1645     1.0  0.65622  0.14245  0.44016  1.0000
  H   H1646     1.0  0.61874  0.13650  0.37814  1.0000
  H   H1647     1.0  0.62651  0.14877  0.48894  1.0000
  C   C961      1.0  0.53879  0.12259  0.35843  1.0000
  H   H1648     1.0  0.71642  0.19119  0.23776  1.0000
  C   C962      1.0  0.52576  0.13031  0.42177  1.0000
  C   C963      1.0  0.58891  0.01734  0.47758  1.0000
  C   C964      1.0  0.53591  0.01529  0.01312  1.0000
  H   H1649     1.0  0.54032  0.11420  0.33727  1.0000
  H   H1650     1.0  0.61204  0.33561  0.20849  1.0000
  H   H1651     1.0  0.64955  0.15079  0.49342  1.0000
  H   H1652     1.0  0.50735  0.12618  0.46120  1.0000
  H   H1653     1.0  0.52411  0.17091  0.42599  1.0000
  H   H1654     1.0  0.55030  0.01723  0.01140  1.0000
  H   H1655     1.0  0.51254  0.12931  0.34482  1.0000
  H   H1656     1.0  0.74238  0.33810  0.05797  1.0000
  H   H1657     1.0  0.65359  0.11353  0.99869  1.0000
  H   H1658     1.0  0.75464  0.20614  0.19593  1.0000
  C   C965      1.0  0.75527  0.20772  0.17003  1.0000
  H   H1659     1.0  0.66999  0.09687  0.99639  1.0000
  H   H1660     1.0  0.60204  0.02691  0.99638  1.0000
  Fe  Fe138     1.0  0.66840  0.31475  0.67205  1.0000
  C   C966      1.0  0.69366  0.21064  0.59591  1.0000
  S   S276      1.0  0.67087  0.28766  0.69495  1.0000
  H   H1661     1.0  0.62192  0.09579  0.52709  1.0000
  Fe  Fe139     1.0  0.65951  0.14717  0.64484  1.0000
  S   S277      1.0  0.67439  0.13972  0.68894  1.0000
  S   S278      1.0  0.65484  0.12509  0.61007  1.0000
  Fe  Fe140     1.0  0.65725  0.18598  0.66349  1.0000
  S   S279      1.0  0.67137  0.18091  0.70876  1.0000
  S   S280      1.0  0.64815  0.21264  0.64449  1.0000
  Fe  Fe141     1.0  0.68985  0.16421  0.67925  1.0000
  S   S281      1.0  0.71933  0.16904  0.68369  1.0000
  Fe  Fe142     1.0  0.65451  0.15682  0.71435  1.0000
  S   S282      1.0  0.63887  0.15147  0.76044  1.0000
  S   S283      1.0  0.67632  0.17031  0.63381  1.0000
  S   S284      1.0  0.63906  0.16321  0.67043  1.0000
  Fe  Fe143     1.0  0.56228  0.08905  0.94254  1.0000
  S   S285      1.0  0.56984  0.07069  0.90353  1.0000
  S   S286      1.0  0.53513  0.10144  0.95073  1.0000
  Fe  Fe144     1.0  0.59890  0.08745  0.97158  1.0000
  S   S287      1.0  0.60874  0.06865  0.93433  1.0000
  C   C967      1.0  0.59779  0.01354  0.99382  1.0000
  Fe  Fe145     1.0  0.59478  0.08624  0.89938  1.0000
  S   S288      1.0  0.60841  0.09113  0.85136  1.0000
  Fe  Fe146     1.0  0.58330  0.05468  0.94152  1.0000
  S   S289      1.0  0.57870  0.02507  0.94168  1.0000
  S   S290      1.0  0.58639  0.10584  0.93624  1.0000
  H   H1662     1.0  0.58117  0.01336  0.55648  1.0000
  C   C968      1.0  0.51445  0.09515  0.93551  1.0000
  H   H1663     1.0  0.61428  0.14443  0.94215  1.0000
  H   H1664     1.0  0.59375  0.12450  0.65421  1.0000
  H   H1665     1.0  0.52470  0.07755  0.90029  1.0000
  C   C969      1.0  0.64559  0.09871  0.69571  1.0000
  H   H1666     1.0  0.69082  0.12655  0.93260  1.0000
  H   H1667     1.0  0.69163  0.22258  0.58140  1.0000
  S   S291      1.0  0.57429  0.07228  0.98080  1.0000
  H   H1668     1.0  0.72600  0.20723  0.69370  1.0000
  C   C970      1.0  0.71380  0.21520  0.69590  1.0000
  C   C971      1.0  0.60978  0.12047  0.53931  1.0000
  C   C972      1.0  0.61097  0.13539  0.55841  1.0000
  C   C973      1.0  0.62482  0.13715  0.57985  1.0000
  C   C974      1.0  0.63765  0.12397  0.58235  1.0000
  C   C975      1.0  0.63655  0.10910  0.56308  1.0000
  C   C976      1.0  0.62269  0.10734  0.54162  1.0000
  H   H1669     1.0  0.60105  0.14563  0.55670  1.0000
  H   H1670     1.0  0.62554  0.14868  0.59446  1.0000
  H   H1671     1.0  0.64642  0.09883  0.56492  1.0000
  C   C977      1.0  0.51302  0.08363  0.91019  1.0000
  C   C978      1.0  0.63068  0.13441  0.78551  1.0000
  C   C979      1.0  0.62006  0.13896  0.81165  1.0000
  C   C980      1.0  0.61320  0.12603  0.83211  1.0000
  C   C981      1.0  0.61674  0.10824  0.82665  1.0000
  C   C982      1.0  0.62733  0.10370  0.80054  1.0000
  C   C983      1.0  0.63436  0.11663  0.78033  1.0000
  H   H1672     1.0  0.61716  0.15264  0.81609  1.0000
  H   H1673     1.0  0.60511  0.12984  0.85195  1.0000
  H   H1674     1.0  0.63034  0.09003  0.79615  1.0000
  H   H1675     1.0  0.64287  0.11283  0.76106  1.0000
  H   H1676     1.0  0.68646  0.12788  0.89168  1.0000
  C   C984      1.0  0.73219  0.15531  0.62731  1.0000
  C   C985      1.0  0.73543  0.16555  0.65375  1.0000
  H   H1677     1.0  0.58205  0.03581  0.51385  1.0000
  H   H1678     1.0  0.71953  0.14935  0.62457  1.0000
  S   S292      1.0  0.67953  0.32147  0.62446  1.0000
  C   C986      1.0  0.66389  0.26706  0.68074  1.0000
  C   C987      1.0  0.66778  0.25189  0.69846  1.0000
  C   C988      1.0  0.66289  0.23519  0.68791  1.0000
  C   C989      1.0  0.65388  0.23347  0.65955  1.0000
  C   C990      1.0  0.64989  0.24865  0.64191  1.0000
  C   C991      1.0  0.65492  0.26535  0.65234  1.0000
  H   H1679     1.0  0.67466  0.25306  0.72052  1.0000
  H   H1680     1.0  0.66605  0.22366  0.70176  1.0000
  H   H1681     1.0  0.64296  0.24747  0.61991  1.0000
  H   H1682     1.0  0.65182  0.27689  0.63845  1.0000
  H   H1683     1.0  0.53617  0.15529  0.84418  1.0000
  C   C992      1.0  0.56336  0.10723  0.84815  1.0000
  N   N69       1.0  0.64946  0.11486  0.92961  1.0000
  H   H1684     1.0  0.61296  0.14337  0.70755  1.0000
  H   H1685     1.0  0.55185  0.16534  0.88910  1.0000
  C   C993      1.0  0.64242  0.10613  0.90065  1.0000
  C   C994      1.0  0.66281  0.12848  0.92100  1.0000
  C   C995      1.0  0.63218  0.33078  0.90309  1.0000
  H   H1686     1.0  0.63208  0.12206  0.71046  1.0000
  C   C996      1.0  0.65547  0.09530  0.88061  1.0000
  C   C997      1.0  0.50908  0.12690  0.86346  1.0000
  C   C998      1.0  0.61768  0.09781  0.64826  1.0000
  C   C999      1.0  0.68178  0.12195  0.91409  1.0000
  H   H1687     1.0  0.66676  0.09272  0.94142  1.0000
  H   H1688     1.0  0.61581  0.13121  0.90794  1.0000
  H   H1689     1.0  0.61706  0.33475  0.96341  1.0000
  H   H1690     1.0  0.66535  0.10371  0.86912  1.0000
  H   H1691     1.0  0.65838  0.13611  0.90001  1.0000
  C   C1000     1.0  0.58423  0.00941  0.53265  1.0000
  H   H1692     1.0  0.56317  0.14846  0.80418  1.0000
  H   H1693     1.0  0.66379  0.13828  0.94025  1.0000
  C   C1001     1.0  0.62374  0.13752  0.92636  1.0000
  C   C1002     1.0  0.69805  0.25399  0.61988  1.0000
  H   H1694     1.0  0.59157  0.13364  0.71017  1.0000
  H   H1695     1.0  0.65814  0.10393  0.70452  1.0000
  H   H1696     1.0  0.64682  0.33537  0.96296  1.0000
  H   H1697     1.0  0.75462  0.18123  0.67708  1.0000
  C   C1003     1.0  0.54383  0.14288  0.84078  1.0000
  C   C1004     1.0  0.58469  0.02218  0.50849  1.0000
  H   H1698     1.0  0.73859  0.30103  0.61092  1.0000
  S   S293      1.0  0.59186  0.11894  0.51324  1.0000
  C   C1005     1.0  0.71290  0.23035  0.67177  1.0000
  H   H1699     1.0  0.59552  0.15145  0.68381  1.0000
  H   H1700     1.0  0.64414  0.32447  0.91294  1.0000
  C   C1006     1.0  0.55293  0.15542  0.90810  1.0000
  H   H1701     1.0  0.70229  0.20659  0.69430  1.0000
  H   H1702     1.0  0.63996  0.12279  0.67129  1.0000
  H   H1703     1.0  0.72986  0.21099  0.60448  1.0000
  H   H1704     1.0  0.69992  0.26513  0.60335  1.0000
  H   H1705     1.0  0.68355  0.10766  0.91168  1.0000
  C   C1007     1.0  0.58612  0.09610  0.69653  1.0000
  H   H1706     1.0  0.70431  0.20242  0.58563  1.0000
  H   H1707     1.0  0.61449  0.13382  0.64948  1.0000
  H   H1708     1.0  0.64046  0.09002  0.71443  1.0000
  H   H1709     1.0  0.56385  0.09280  0.84500  1.0000
  H   H1710     1.0  0.68520  0.22195  0.63980  1.0000
  H   H1711     1.0  0.68137  0.20310  0.59428  1.0000
  H   H1712     1.0  0.71359  0.22075  0.72000  1.0000
  H   H1713     1.0  0.71625  0.23817  0.59245  1.0000
  H   H1714     1.0  0.74297  0.14408  0.58472  1.0000
  H   H1715     1.0  0.60627  0.10772  0.72515  1.0000
  H   H1716     1.0  0.62453  0.11407  0.95443  1.0000
  H   H1717     1.0  0.66177  0.08440  0.89382  1.0000
  H   H1718     1.0  0.52332  0.12701  0.90695  1.0000
  C   C1008     1.0  0.60547  0.10044  0.70252  1.0000
  H   H1719     1.0  0.62948  0.10163  0.63448  1.0000
  H   H1720     1.0  0.60594  0.08684  0.60639  1.0000
  H   H1721     1.0  0.60187  0.10966  0.61027  1.0000
  C   C1009     1.0  0.58642  0.00929  0.96941  1.0000
  C   C1010     1.0  0.72895  0.21361  0.63017  1.0000
  H   H1722     1.0  0.72557  0.24941  0.62434  1.0000
  H   H1723     1.0  0.62036  0.08408  0.65598  1.0000
  H   H1724     1.0  0.61197  0.08768  0.70807  1.0000
  C   C1011     1.0  0.69697  0.21492  0.63080  1.0000
  H   H1725     1.0  0.58501  0.08315  0.68497  1.0000
  H   H1726     1.0  0.56905  0.13515  0.88778  1.0000
  C   C1012     1.0  0.60142  0.13929  0.69392  1.0000
  N   N70       1.0  0.71325  0.22510  0.63761  1.0000
  H   H1727     1.0  0.57900  0.09568  0.71941  1.0000
  H   H1728     1.0  0.64891  0.09103  0.67434  1.0000
  C   C1013     1.0  0.74693  0.22079  0.63973  1.0000
  H   H1729     1.0  0.72757  0.20048  0.64122  1.0000
  H   H1730     1.0  0.57905  0.10612  0.68248  1.0000
  H   H1731     1.0  0.58993  0.09418  0.63432  1.0000
  H   H1732     1.0  0.69720  0.20216  0.64355  1.0000
  C   C1014     1.0  0.60281  0.09723  0.62387  1.0000
  H   H1733     1.0  0.63145  0.09733  0.90719  1.0000
  H   H1734     1.0  0.70063  0.23775  0.67741  1.0000
  H   H1735     1.0  0.72365  0.23954  0.67709  1.0000
  C   C1015     1.0  0.71411  0.24146  0.61769  1.0000
  H   H1736     1.0  0.69653  0.25975  0.64367  1.0000
  C   C1016     1.0  0.55521  0.13665  0.89532  1.0000
  N   N71       1.0  0.61512  0.10968  0.67640  1.0000
  C   C1017     1.0  0.63304  0.11428  0.68850  1.0000
  C   C1018     1.0  0.60618  0.12665  0.66682  1.0000
  H   H1737     1.0  0.68567  0.24767  0.61312  1.0000
  H   H1738     1.0  0.56479  0.16233  0.83717  1.0000
  H   H1739     1.0  0.63225  0.14759  0.91571  1.0000
  C   C1019     1.0  0.74553  0.15236  0.60472  1.0000
  H   H1740     1.0  0.57338  0.14018  0.83859  1.0000
  C   C1020     1.0  0.52428  0.13365  0.88367  1.0000
  H   H1741     1.0  0.64813  0.08912  0.86119  1.0000
  H   H1742     1.0  0.55405  0.12761  0.91587  1.0000
  H   H1743     1.0  0.74802  0.22255  0.66550  1.0000
  H   H1744     1.0  0.53573  0.10805  0.84449  1.0000
  C   C1021     1.0  0.65640  0.10107  0.95208  1.0000
  C   C1022     1.0  0.75201  0.17320  0.65680  1.0000
  H   H1745     1.0  0.53765  0.13627  0.82045  1.0000
  H   H1746     1.0  0.67425  0.11784  0.97930  1.0000
  C   C1023     1.0  0.54538  0.11248  0.86211  1.0000
  H   H1747     1.0  0.56536  0.11292  0.82439  1.0000
  N   N72       1.0  0.54254  0.13157  0.86995  1.0000
  C   C1024     1.0  0.56241  0.14855  0.83031  1.0000
  C   C1025     1.0  0.63415  0.12387  0.94595  1.0000
  H   H1748     1.0  0.54327  0.10422  0.88345  1.0000
  H   H1749     1.0  0.63685  0.11599  0.88405  1.0000
  H   H1750     1.0  0.56452  0.15866  0.92254  1.0000
  H   H1751     1.0  0.57438  0.11040  0.86383  1.0000
  H   H1752     1.0  0.64587  0.09168  0.95833  1.0000
  H   H1753     1.0  0.74998  0.23317  0.62735  1.0000
  C   C1026     1.0  0.66396  0.10799  0.98316  1.0000
  H   H1754     1.0  0.54133  0.15647  0.92393  1.0000
  H   H1755     1.0  0.52110  0.14767  0.88840  1.0000
  S   S294      1.0  0.64437  0.33217  0.66721  1.0000
  H   H1756     1.0  0.75420  0.28744  0.63105  1.0000
  H   H1757     1.0  0.62037  0.32442  0.91284  1.0000
  S   S295      1.0  0.68336  0.33577  0.69702  1.0000
  H   H1758     1.0  0.50946  0.13210  0.83909  1.0000
  H   H1759     1.0  0.75445  0.31108  0.63501  1.0000
  H   H1760     1.0  0.63849  0.13091  0.96732  1.0000
  H   H1761     1.0  0.50880  0.11238  0.86322  1.0000
  C   C1027     1.0  0.75249  0.30004  0.61850  1.0000
  H   H1762     1.0  0.63234  0.32827  0.87734  1.0000
  H   H1763     1.0  0.52983  0.02438  0.99570  1.0000
  Fe  Fe147     1.0  0.66208  0.35589  0.13179  1.0000
  S   S296      1.0  0.67622  0.36527  0.17491  1.0000
  S   S297      1.0  0.65825  0.37625  0.09276  1.0000
  H   H1764     1.0  0.60970  0.65503  0.28189  1.0000
  S   S298      1.0  0.64248  0.35181  0.24873  1.0000
  H   H1765     1.0  0.69611  0.39966  0.15349  1.0000
  H   H1766     1.0  0.67685  0.38071  0.35116  1.0000
  H   H1767     1.0  0.65236  0.39768  0.37828  1.0000
  Fe  Fe148     1.0  0.58632  0.56107  0.03980  1.0000
  H   H1768     1.0  0.58053  0.53771  0.48303  1.0000
  S   S299      1.0  0.58335  0.53134  0.03286  1.0000
  Fe  Fe149     1.0  0.60031  0.58966  0.08602  1.0000
  S   S300      1.0  0.58087  0.60978  0.06851  1.0000
  S   S301      1.0  0.62082  0.59334  0.12516  1.0000
  Fe  Fe150     1.0  0.56077  0.58843  0.06853  1.0000
  S   S302      1.0  0.53366  0.58805  0.09192  1.0000
  H   H1769     1.0  0.65813  0.37565  0.48481  1.0000
  H   H1770     1.0  0.51439  0.50986  0.07042  1.0000
  S   S303      1.0  0.57973  0.56892  0.08961  1.0000
  S   S304      1.0  0.60867  0.58029  0.03753  1.0000
  Fe  Fe151     1.0  0.59889  0.41669  0.46096  1.0000
  S   S305      1.0  0.61349  0.43524  0.42929  1.0000
  C   C1028     1.0  0.65315  0.59822  0.05102  1.0000
  Fe  Fe152     1.0  0.56646  0.41807  0.41899  1.0000
  S   S306      1.0  0.57961  0.43645  0.38496  1.0000
  S   S307      1.0  0.53877  0.41198  0.40211  1.0000
  Fe  Fe153     1.0  0.60348  0.41887  0.38919  1.0000
  S   S308      1.0  0.62290  0.41260  0.34857  1.0000
  Fe  Fe154     1.0  0.58840  0.45097  0.42799  1.0000
  S   S309      1.0  0.58459  0.48085  0.42909  1.0000
  S   S310      1.0  0.59005  0.39951  0.42105  1.0000
  S   S311      1.0  0.57415  0.43345  0.46172  1.0000
  Fe  Fe155     1.0  0.66018  0.65796  0.26320  1.0000
  H   H1771     1.0  0.53485  0.56021  0.04559  1.0000
  S   S312      1.0  0.64490  0.65534  0.21655  1.0000
  C   C1029     1.0  0.59748  0.65228  0.26911  1.0000
  S   S313      1.0  0.64343  0.33938  0.15987  1.0000
  Fe  Fe156     1.0  0.65454  0.64870  0.33313  1.0000
  S   S314      1.0  0.63314  0.63348  0.35868  1.0000
  S   S315      1.0  0.67066  0.63636  0.29439  1.0000
  H   H1772     1.0  0.71040  0.43205  0.08531  1.0000
  C   C1030     1.0  0.74674  0.39023  0.09907  1.0000
  H   H1773     1.0  0.52645  0.40111  0.46442  1.0000
  H   H1774     1.0  0.63795  0.36003  0.38510  1.0000
  H   H1775     1.0  0.54881  0.54192  0.04790  1.0000
  C   C1031     1.0  0.51823  0.41389  0.42167  1.0000
  H   H1776     1.0  0.67150  0.39353  0.40048  1.0000
  S   S316      1.0  0.56650  0.57994  0.01902  1.0000
  H   H1777     1.0  0.64238  0.52212  0.45634  1.0000
  Fe  Fe157     1.0  0.69407  0.34180  0.16698  1.0000
  H   H1778     1.0  0.63278  0.40269  0.42198  1.0000
  C   C1032     1.0  0.64627  0.55166  0.48269  1.0000
  H   H1779     1.0  0.68711  0.43122  0.08818  1.0000
  H   H1780     1.0  0.53890  0.45029  0.39045  1.0000
  H   H1781     1.0  0.52365  0.60717  0.03469  1.0000
  C   C1033     1.0  0.63159  0.61548  0.46196  1.0000
  C   C1034     1.0  0.61656  0.61499  0.44337  1.0000
  C   C1035     1.0  0.61726  0.62064  0.41180  1.0000
  C   C1036     1.0  0.63291  0.62697  0.39867  1.0000
  C   C1037     1.0  0.64787  0.62768  0.41738  1.0000
  C   C1038     1.0  0.64720  0.62191  0.44888  1.0000
  H   H1782     1.0  0.60447  0.61005  0.45319  1.0000
  H   H1783     1.0  0.60563  0.62005  0.39746  1.0000
  H   H1784     1.0  0.66002  0.63238  0.40743  1.0000
  H   H1785     1.0  0.65892  0.62224  0.46306  1.0000
  C   C1039     1.0  0.62763  0.61097  0.14962  1.0000
  C   C1040     1.0  0.61945  0.62750  0.14905  1.0000
  C   C1041     1.0  0.62526  0.64095  0.16903  1.0000
  C   C1042     1.0  0.63907  0.63805  0.19045  1.0000
  C   C1043     1.0  0.64735  0.62156  0.19086  1.0000
  C   C1044     1.0  0.64174  0.60819  0.17044  1.0000
  H   H1786     1.0  0.60856  0.62989  0.13337  1.0000
  H   H1787     1.0  0.61878  0.65365  0.16831  1.0000
  H   H1788     1.0  0.65807  0.61908  0.20690  1.0000
  H   H1789     1.0  0.64828  0.59552  0.17103  1.0000
  C   C1045     1.0  0.73683  0.65292  0.34057  1.0000
  C   C1046     1.0  0.74653  0.34058  0.08181  1.0000
  C   C1047     1.0  0.65979  0.36644  0.43557  1.0000
  C   C1048     1.0  0.58742  0.49479  0.46205  1.0000
  C   C1049     1.0  0.58264  0.51262  0.45948  1.0000
  H   H1790     1.0  0.58634  0.65064  0.28567  1.0000
  H   H1791     1.0  0.57834  0.49424  0.03123  1.0000
  C   C1050     1.0  0.64173  0.39431  0.43640  1.0000
  H   H1792     1.0  0.57717  0.51752  0.43766  1.0000
  C   C1051     1.0  0.60365  0.56222  0.43665  1.0000
  C   C1052     1.0  0.63697  0.36918  0.27557  1.0000
  C   C1053     1.0  0.64557  0.38525  0.27555  1.0000
  C   C1054     1.0  0.64101  0.39828  0.29788  1.0000
  C   C1055     1.0  0.62762  0.39567  0.32039  1.0000
  C   C1056     1.0  0.61894  0.37964  0.32031  1.0000
  C   C1057     1.0  0.62369  0.36649  0.29829  1.0000
  H   H1793     1.0  0.65583  0.38761  0.25844  1.0000
  H   H1794     1.0  0.64787  0.41057  0.29757  1.0000
  H   H1795     1.0  0.60853  0.37736  0.33715  1.0000
  H   H1796     1.0  0.61688  0.35419  0.29866  1.0000
  C   C1058     1.0  0.63985  0.37977  0.06808  1.0000
  C   C1059     1.0  0.64025  0.39352  0.04594  1.0000
  C   C1060     1.0  0.62606  0.39668  0.02548  1.0000
  C   C1061     1.0  0.61132  0.38604  0.02690  1.0000
  C   C1062     1.0  0.61092  0.37228  0.04902  1.0000
  C   C1063     1.0  0.62510  0.36914  0.06953  1.0000
  H   H1797     1.0  0.65156  0.40185  0.04471  1.0000
  H   H1798     1.0  0.65015  0.66514  0.41747  1.0000
  S   S317      1.0  0.64331  0.66968  0.30167  1.0000
  H   H1799     1.0  0.62462  0.35852  0.08645  1.0000
  H   H1800     1.0  0.66273  0.35286  0.48057  1.0000
  C   C1064     1.0  0.51188  0.60248  0.04608  1.0000
  H   H1801     1.0  0.61515  0.36972  0.44266  1.0000
  N   N73       1.0  0.64870  0.37930  0.41687  1.0000
  H   H1802     1.0  0.51872  0.48202  0.40527  1.0000
  C   C1065     1.0  0.73232  0.66078  0.36927  1.0000
  H   H1803     1.0  0.59449  0.66420  0.25489  1.0000
  H   H1804     1.0  0.65610  0.37064  0.34888  1.0000
  H   H1805     1.0  0.64098  0.36095  0.47455  1.0000
  H   H1806     1.0  0.67382  0.37026  0.43532  1.0000
  C   C1066     1.0  0.51318  0.59268  0.07384  1.0000
  C   C1067     1.0  0.64057  0.64195  0.00972  1.0000
  C   C1068     1.0  0.64667  0.57550  0.42531  1.0000
  H   H1807     1.0  0.60528  0.64222  0.07965  1.0000
  C   C1069     1.0  0.52200  0.51682  0.05186  1.0000
  H   H1808     1.0  0.51964  0.55456  0.09604  1.0000
  C   C1070     1.0  0.73925  0.34330  0.13756  1.0000
  H   H1809     1.0  0.66844  0.39975  0.45405  1.0000
  C   C1071     1.0  0.51554  0.40693  0.45178  1.0000
  C   C1072     1.0  0.62577  0.62815  0.05389  1.0000
  C   C1073     1.0  0.63007  0.52996  0.45302  1.0000
  H   H1810     1.0  0.53981  0.49469  0.06046  1.0000
  C   C1074     1.0  0.61719  0.55962  0.46319  1.0000
  C   C1075     1.0  0.63342  0.37035  0.40174  1.0000
  C   C1076     1.0  0.54042  0.50802  0.04998  1.0000
  S   S318      1.0  0.59338  0.38895  0.00087  1.0000
  H   H1811     1.0  0.62653  0.34909  0.43439  1.0000
  N   N74       1.0  0.71358  0.39295  0.08739  1.0000
  C   C1077     1.0  0.71531  0.37969  0.06124  1.0000
  C   C1078     1.0  0.73097  0.40200  0.08965  1.0000
  C   C1079     1.0  0.69927  0.40592  0.07834  1.0000
  C   C1080     1.0  0.70876  0.38332  0.11720  1.0000
  C   C1081     1.0  0.69850  0.36981  0.05273  1.0000
  H   H1812     1.0  0.59957  0.36400  0.05033  1.0000
  C   C1082     1.0  0.69941  0.42402  0.09424  1.0000
  H   H1813     1.0  0.63696  0.65550  0.01709  1.0000
  H   H1814     1.0  0.72018  0.38601  0.03922  1.0000
  H   H1815     1.0  0.72517  0.36938  0.06718  1.0000
  H   H1816     1.0  0.73059  0.41291  0.10670  1.0000
  H   H1817     1.0  0.73428  0.40834  0.06674  1.0000
  H   H1818     1.0  0.69965  0.40865  0.05254  1.0000
  H   H1819     1.0  0.68610  0.40037  0.08303  1.0000
  H   H1820     1.0  0.69526  0.37814  0.11555  1.0000
  H   H1821     1.0  0.71689  0.37128  0.12033  1.0000
  H   H1822     1.0  0.68780  0.37874  0.04476  1.0000
  H   H1823     1.0  0.54450  0.50604  0.02513  1.0000
  H   H1824     1.0  0.69383  0.36158  0.07254  1.0000
  C   C1083     1.0  0.52219  0.54038  0.09202  1.0000
  N   N75       1.0  0.52132  0.53636  0.05734  1.0000
  H   H1825     1.0  0.59337  0.55213  0.43801  1.0000
  C   C1084     1.0  0.61660  0.64535  0.06418  1.0000
  H   H1826     1.0  0.54131  0.52120  0.11091  1.0000
  H   H1827     1.0  0.65552  0.54850  0.42285  1.0000
  Fe  Fe158     1.0  0.69173  0.65539  0.30896  1.0000
  C   C1085     1.0  0.70914  0.39361  0.14833  1.0000
  H   H1828     1.0  0.71932  0.40367  0.14943  1.0000
  H   H1829     1.0  0.63990  0.35627  0.00786  1.0000
  C   C1086     1.0  0.53560  0.54597  0.04007  1.0000
  S   S319      1.0  0.67614  0.66600  0.34990  1.0000
  N   N76       1.0  0.60525  0.61935  0.26096  1.0000
  C   C1087     1.0  0.60672  0.60617  0.23460  1.0000
  C   C1088     1.0  0.62339  0.62125  0.27437  1.0000
  C   C1089     1.0  0.59936  0.63658  0.24673  1.0000
  C   C1090     1.0  0.59208  0.61286  0.28483  1.0000
  C   C1091     1.0  0.59026  0.60381  0.21422  1.0000
  C   C1092     1.0  0.63198  0.60424  0.28712  1.0000
  H   H1830     1.0  0.69990  0.42319  0.12016  1.0000
  C   C1093     1.0  0.59360  0.61993  0.31879  1.0000
  H   H1831     1.0  0.61751  0.60965  0.21824  1.0000
  H   H1832     1.0  0.61021  0.59292  0.24383  1.0000
  H   H1833     1.0  0.62375  0.63094  0.29352  1.0000
  H   H1834     1.0  0.63247  0.62662  0.25624  1.0000
  H   H1835     1.0  0.62540  0.65393  0.07758  1.0000
  C   C1094     1.0  0.65493  0.36397  0.47069  1.0000
  H   H1836     1.0  0.57849  0.61567  0.27662  1.0000
  H   H1837     1.0  0.59317  0.59834  0.28704  1.0000
  H   H1838     1.0  0.58820  0.61510  0.19803  1.0000
  H   H1839     1.0  0.59230  0.59218  0.19890  1.0000
  H   H1840     1.0  0.57832  0.60157  0.22857  1.0000
  H   H1841     1.0  0.63687  0.59584  0.26760  1.0000
  H   H1842     1.0  0.64354  0.60761  0.30150  1.0000
  H   H1843     1.0  0.62303  0.59670  0.30244  1.0000
  H   H1844     1.0  0.66853  0.64705  0.99922  1.0000
  H   H1845     1.0  0.62569  0.37996  0.38744  1.0000
  C   C1095     1.0  0.62051  0.36108  0.42399  1.0000
  H   H1846     1.0  0.58026  0.62134  0.32918  1.0000
  H   H1847     1.0  0.59981  0.63281  0.32097  1.0000
  H   H1848     1.0  0.60062  0.61032  0.33408  1.0000
  H   H1849     1.0  0.65626  0.58572  0.03877  1.0000
  C   C1096     1.0  0.64965  0.61255  0.02616  1.0000
  H   H1850     1.0  0.63184  0.66968  0.37155  1.0000
  C   C1097     1.0  0.53544  0.54425  0.00389  1.0000
  H   H1851     1.0  0.61658  0.62136  0.03791  1.0000
  S   S320      1.0  0.72079  0.64724  0.31200  1.0000
  H   H1852     1.0  0.65125  0.61993  0.09944  1.0000
  C   C1098     1.0  0.62224  0.52345  0.42191  1.0000
  H   H1853     1.0  0.55099  0.54186  0.09856  1.0000
  H   H1854     1.0  0.70149  0.36076  0.03296  1.0000
  C   C1099     1.0  0.66661  0.37419  0.36554  1.0000
  H   H1855     1.0  0.63535  0.55295  0.40473  1.0000
  N   N77       1.0  0.63372  0.54930  0.45567  1.0000
  H   H1856     1.0  0.61116  0.65258  0.04362  1.0000
  H   H1857     1.0  0.67025  0.63274  0.10325  1.0000
  S   S321      1.0  0.72399  0.34373  0.16952  1.0000
  H   H1858     1.0  0.55110  0.46191  0.41896  1.0000
  H   H1859     1.0  0.58630  0.63546  0.23558  1.0000
  H   H1860     1.0  0.51178  0.53342  0.10529  1.0000
  H   H1861     1.0  0.60854  0.64051  0.22762  1.0000
  H   H1862     1.0  0.54457  0.47265  0.38354  1.0000
  Fe  Fe159     1.0  0.65867  0.34746  0.20290  1.0000
  H   H1863     1.0  0.66476  0.60125  0.06546  1.0000
  H   H1864     1.0  0.63196  0.52382  0.40240  1.0000
  H   H1865     1.0  0.61014  0.53055  0.41513  1.0000
  H   H1866     1.0  0.61864  0.50947  0.42488  1.0000
  H   H1867     1.0  0.62651  0.40736  0.00869  1.0000
  H   H1868     1.0  0.60924  0.56236  0.41267  1.0000
  C   C1100     1.0  0.53936  0.53558  0.10910  1.0000
  H   H1869     1.0  0.59713  0.57525  0.43941  1.0000
  C   C1101     1.0  0.65661  0.63297  0.09425  1.0000
  C   C1102     1.0  0.73418  0.33977  0.10665  1.0000
  C   C1103     1.0  0.52447  0.45238  0.46517  1.0000
  H   H1870     1.0  0.65774  0.41795  0.43437  1.0000
  H   H1871     1.0  0.64796  0.56579  0.48807  1.0000
  C   C1104     1.0  0.64285  0.55573  0.42631  1.0000
  H   H1872     1.0  0.53844  0.54051  0.13362  1.0000
  H   H1873     1.0  0.64165  0.59565  0.06623  1.0000
  H   H1874     1.0  0.65317  0.57875  0.40260  1.0000
  C   C1105     1.0  0.54028  0.46323  0.40193  1.0000
  C   C1106     1.0  0.59441  0.48864  0.49043  1.0000
  H   H1875     1.0  0.65969  0.35327  0.42444  1.0000
  H   H1876     1.0  0.66224  0.61367  0.01306  1.0000
  H   H1877     1.0  0.65565  0.57955  0.44423  1.0000
  C   C1107     1.0  0.58466  0.52415  0.48504  1.0000
  C   C1108     1.0  0.65973  0.38709  0.39080  1.0000
  H   H1878     1.0  0.62646  0.61963  0.07496  1.0000
  C   C1109     1.0  0.65568  0.40651  0.45017  1.0000
  C   C1110     1.0  0.58497  0.49775  0.00959  1.0000
  H   H1879     1.0  0.63443  0.58345  0.42643  1.0000
  H   H1880     1.0  0.53723  0.44659  0.45745  1.0000
  H   H1881     1.0  0.62025  0.57286  0.47244  1.0000
  H   H1882     1.0  0.74168  0.67023  0.41387  1.0000
  H   H1883     1.0  0.67032  0.63570  0.04977  1.0000
  H   H1884     1.0  0.71244  0.38438  0.16781  1.0000
  Fe  Fe160     1.0  0.58825  0.59963  0.02021  1.0000
  H   H1885     1.0  0.55094  0.51484  0.06246  1.0000
  N   N78       1.0  0.64338  0.63017  0.03803  1.0000
  H   H1886     1.0  0.64004  0.60725  0.00916  1.0000
  H   H1887     1.0  0.67258  0.36219  0.37595  1.0000
  H   H1888     1.0  0.65517  0.65288  0.05887  1.0000
  C   C1111     1.0  0.52253  0.46929  0.41638  1.0000
  C   C1112     1.0  0.58949  0.51534  0.00421  1.0000
  C   C1113     1.0  0.65686  0.63835  0.05905  1.0000
  N   N79       1.0  0.52183  0.47049  0.45176  1.0000
  H   H1889     1.0  0.54398  0.49831  0.42359  1.0000
  H   H1890     1.0  0.54902  0.47564  0.46385  1.0000
  C   C1114     1.0  0.53774  0.49999  0.44708  1.0000
  H   H1891     1.0  0.51547  0.51370  0.02924  1.0000
  H   H1892     1.0  0.53353  0.48530  0.48942  1.0000
  H   H1893     1.0  0.60187  0.65865  0.36342  1.0000
  H   H1894     1.0  0.62012  0.66503  0.40679  1.0000
  H   H1895     1.0  0.51263  0.45994  0.40777  1.0000
  H   H1896     1.0  0.54645  0.50844  0.46102  1.0000
  H   H1897     1.0  0.63326  0.38991  0.45608  1.0000
  H   H1898     1.0  0.65959  0.54647  0.47650  1.0000
  H   H1899     1.0  0.60911  0.35673  0.41004  1.0000
  H   H1900     1.0  0.62106  0.52569  0.47217  1.0000
  H   H1901     1.0  0.65123  0.41134  0.47358  1.0000
  H   H1902     1.0  0.75050  0.38092  0.08015  1.0000
  H   H1903     1.0  0.64956  0.64298  0.10863  1.0000
  H   H1904     1.0  0.53326  0.53067  0.99609  1.0000
  H   H1905     1.0  0.74437  0.38300  0.12134  1.0000
  H   H1906     1.0  0.61000  0.55341  0.48305  1.0000
  C   C1115     1.0  0.74540  0.66431  0.39171  1.0000
  H   H1907     1.0  0.51454  0.44338  0.45586  1.0000
  H   H1908     1.0  0.52507  0.50712  0.44469  1.0000
  C   C1116     1.0  0.53591  0.48224  0.46414  1.0000
  H   H1909     1.0  0.66261  0.35137  0.00214  1.0000
  H   H1910     1.0  0.59819  0.47498  0.49279  1.0000
  C   C1117     1.0  0.75463  0.64888  0.33460  1.0000
  H   H1911     1.0  0.71874  0.66395  0.37431  1.0000
  C   C1118     1.0  0.64107  0.59696  0.81604  1.0000
  S   S322      1.0  0.67101  0.36297  0.64208  1.0000
  S   S323      1.0  0.61457  0.41094  0.50552  1.0000
  Fe  Fe161     1.0  0.66012  0.35366  0.68894  1.0000
  S   S324      1.0  0.64949  0.37608  0.72058  1.0000
  H   H1912     1.0  0.67735  0.64346  0.61119  1.0000
  C   C1119     1.0  0.74558  0.38207  0.69687  1.0000
  H   H1913     1.0  0.61594  0.39089  0.69902  1.0000
  Fe  Fe162     1.0  0.59282  0.56190  0.55060  1.0000
  H   H1914     1.0  0.61088  0.57753  0.84975  1.0000
  S   S325      1.0  0.59580  0.53213  0.54562  1.0000
  Fe  Fe163     1.0  0.60204  0.59111  0.59937  1.0000
  S   S326      1.0  0.59406  0.61232  0.56535  1.0000
  S   S327      1.0  0.61751  0.59420  0.64556  1.0000
  Fe  Fe164     1.0  0.57094  0.59524  0.55393  1.0000
  S   S328      1.0  0.54433  0.60904  0.54850  1.0000
  Fe  Fe165     1.0  0.60831  0.59682  0.52802  1.0000
  H   H1915     1.0  0.58763  0.38179  0.60682  1.0000
  S   S329      1.0  0.57793  0.57489  0.59063  1.0000
  S   S330      1.0  0.61728  0.57632  0.56239  1.0000
  Fe  Fe166     1.0  0.59104  0.40823  0.95978  1.0000
  S   S331      1.0  0.61345  0.41998  0.93293  1.0000
  H   H1916     1.0  0.71828  0.66566  0.87425  1.0000
  Fe  Fe167     1.0  0.56347  0.42254  0.91324  1.0000
  S   S332      1.0  0.58446  0.43438  0.88254  1.0000
  S   S333      1.0  0.53546  0.42779  0.89606  1.0000
  Fe  Fe168     1.0  0.60044  0.40946  0.88926  1.0000
  S   S334      1.0  0.61487  0.38902  0.85765  1.0000
  Fe  Fe169     1.0  0.59559  0.44388  0.92850  1.0000
  S   S335      1.0  0.60349  0.47274  0.93058  1.0000
  S   S336      1.0  0.57841  0.39708  0.91665  1.0000
  S   S337      1.0  0.57413  0.43281  0.95868  1.0000
  Fe  Fe170     1.0  0.65573  0.66133  0.78028  1.0000
  C   C1120     1.0  0.65626  0.64382  0.98688  1.0000
  S   S338      1.0  0.63920  0.65759  0.73552  1.0000
  S   S339      1.0  0.72271  0.34884  0.64803  1.0000
  H   H1917     1.0  0.67611  0.40056  0.68614  1.0000
  Fe  Fe171     1.0  0.65986  0.65007  0.84915  1.0000
  S   S340      1.0  0.65380  0.62772  0.88317  1.0000
  S   S341      1.0  0.67327  0.64149  0.80416  1.0000
  Fe  Fe172     1.0  0.65655  0.34051  0.62101  1.0000
  H   H1918     1.0  0.65820  0.60825  0.77946  1.0000
  C   C1121     1.0  0.62684  0.62444  0.80109  1.0000
  H   H1919     1.0  0.66501  0.58738  0.79367  1.0000
  H   H1920     1.0  0.71391  0.41090  0.73907  1.0000
  H   H1921     1.0  0.58426  0.40468  0.56949  1.0000
  C   C1122     1.0  0.73824  0.34932  0.61654  1.0000
  S   S342      1.0  0.59147  0.62061  0.98246  1.0000
  C   C1123     1.0  0.73203  0.66569  0.86799  1.0000
  H   H1922     1.0  0.52620  0.40906  0.95427  1.0000
  C   C1124     1.0  0.52364  0.59867  0.54861  1.0000
  H   H1923     1.0  0.61826  0.38072  0.92939  1.0000
  C   C1125     1.0  0.52194  0.58090  0.55583  1.0000
  H   H1924     1.0  0.55698  0.50835  0.96873  1.0000
  H   H1925     1.0  0.53348  0.57307  0.56129  1.0000
  C   C1126     1.0  0.60844  0.62194  0.95402  1.0000
  C   C1127     1.0  0.62126  0.60879  0.95084  1.0000
  C   C1128     1.0  0.63511  0.61085  0.92913  1.0000
  C   C1129     1.0  0.63624  0.62601  0.91035  1.0000
  C   C1130     1.0  0.62334  0.63910  0.91331  1.0000
  C   C1131     1.0  0.60950  0.63704  0.93505  1.0000
  H   H1926     1.0  0.62053  0.59706  0.96515  1.0000
  H   H1927     1.0  0.64501  0.60063  0.92687  1.0000
  H   H1928     1.0  0.62406  0.65082  0.89897  1.0000
  H   H1929     1.0  0.59966  0.64732  0.93746  1.0000
  C   C1132     1.0  0.62278  0.61190  0.67104  1.0000
  C   C1133     1.0  0.61452  0.62837  0.66911  1.0000
  C   C1134     1.0  0.61957  0.64204  0.68929  1.0000
  C   C1135     1.0  0.63295  0.63954  0.71164  1.0000
  C   C1136     1.0  0.64125  0.62309  0.71347  1.0000
  C   C1137     1.0  0.63606  0.60935  0.69357  1.0000
  H   H1930     1.0  0.60423  0.63058  0.65208  1.0000
  H   H1931     1.0  0.61309  0.65471  0.68747  1.0000
  H   H1932     1.0  0.65193  0.62108  0.72969  1.0000
  H   H1933     1.0  0.64266  0.59674  0.69519  1.0000
  H   H1934     1.0  0.59684  0.34580  0.92004  1.0000
  H   H1935     1.0  0.65337  0.65462  0.96996  1.0000
  C   C1138     1.0  0.59829  0.51959  0.97627  1.0000
  C   C1139     1.0  0.59806  0.48879  0.95959  1.0000
  C   C1140     1.0  0.60260  0.50637  0.95422  1.0000
  N   N80       1.0  0.60953  0.39105  0.63443  1.0000
  H   H1936     1.0  0.60233  0.49535  0.53750  1.0000
  H   H1937     1.0  0.63182  0.41136  0.67709  1.0000
  H   H1938     1.0  0.60952  0.50980  0.93282  1.0000
  C   C1141     1.0  0.64568  0.38600  0.92859  1.0000
  C   C1142     1.0  0.63956  0.37917  0.75863  1.0000
  C   C1143     1.0  0.63794  0.36561  0.78071  1.0000
  C   C1144     1.0  0.63034  0.36891  0.81066  1.0000
  C   C1145     1.0  0.62407  0.38575  0.81906  1.0000
  C   C1146     1.0  0.62560  0.39929  0.79687  1.0000
  C   C1147     1.0  0.63333  0.39602  0.76702  1.0000
  H   H1939     1.0  0.64261  0.35258  0.77482  1.0000
  H   H1940     1.0  0.62925  0.35829  0.82743  1.0000
  H   H1941     1.0  0.62094  0.41231  0.80280  1.0000
  H   H1942     1.0  0.63451  0.40667  0.75034  1.0000
  C   C1148     1.0  0.63345  0.36069  0.55556  1.0000
  C   C1149     1.0  0.61980  0.35995  0.53351  1.0000
  C   C1150     1.0  0.53763  0.47719  0.97048  1.0000
  C   C1151     1.0  0.62232  0.39107  0.52236  1.0000
  C   C1152     1.0  0.63631  0.39168  0.54365  1.0000
  C   C1153     1.0  0.64191  0.37656  0.56011  1.0000
  C   C1154     1.0  0.66328  0.64454  0.60457  1.0000
  H   H1943     1.0  0.59435  0.36620  0.94127  1.0000
  C   C1155     1.0  0.53785  0.50132  0.93223  1.0000
  H   H1944     1.0  0.65256  0.37725  0.57671  1.0000
  H   H1945     1.0  0.60426  0.41484  0.57910  1.0000
  H   H1946     1.0  0.58724  0.34633  0.95845  1.0000
  C   C1156     1.0  0.55463  0.51040  0.94330  1.0000
  N   N81       1.0  0.65709  0.62755  0.59079  1.0000
  C   C1157     1.0  0.66276  0.61286  0.61253  1.0000
  H   H1947     1.0  0.59454  0.38137  0.70256  1.0000
  C   C1158     1.0  0.66486  0.62536  0.55836  1.0000
  C   C1159     1.0  0.63745  0.62734  0.58784  1.0000
  C   C1160     1.0  0.66005  0.59410  0.60045  1.0000
  S   S343      1.0  0.72149  0.66222  0.80575  1.0000
  H   H1948     1.0  0.69252  0.35862  0.75547  1.0000
  H   H1949     1.0  0.52222  0.46059  0.91704  1.0000
  H   H1950     1.0  0.67682  0.61394  0.61891  1.0000
  H   H1951     1.0  0.65552  0.61371  0.63529  1.0000
  H   H1952     1.0  0.61912  0.41720  0.62495  1.0000
  H   H1953     1.0  0.75567  0.61648  0.49683  1.0000
  H   H1954     1.0  0.65959  0.61358  0.54662  1.0000
  C   C1161     1.0  0.62993  0.37609  0.94281  1.0000
  H   H1955     1.0  0.63324  0.61500  0.57658  1.0000
  H   H1956     1.0  0.63088  0.62691  0.61120  1.0000
  H   H1957     1.0  0.64605  0.59142  0.59647  1.0000
  H   H1958     1.0  0.66774  0.59121  0.57886  1.0000
  H   H1959     1.0  0.66450  0.58466  0.61881  1.0000
  H   H1960     1.0  0.73059  0.40264  0.79087  1.0000
  H   H1961     1.0  0.66285  0.65537  0.58699  1.0000
  C   C1162     1.0  0.52397  0.45099  0.50135  1.0000
  H   H1962     1.0  0.64268  0.40400  0.54786  1.0000
  C   C1163     1.0  0.61423  0.37507  0.51695  1.0000
  H   H1963     1.0  0.62682  0.58869  0.87358  1.0000
  H   H1964     1.0  0.65044  0.54677  0.53267  1.0000
  C   C1164     1.0  0.55677  0.47765  0.88594  1.0000
  C   C1165     1.0  0.73712  0.66377  0.83649  1.0000
  C   C1166     1.0  0.64110  0.54286  0.51414  1.0000
  H   H1965     1.0  0.52523  0.43696  0.50815  1.0000
  H   H1966     1.0  0.65821  0.37860  0.92932  1.0000
  H   H1967     1.0  0.69112  0.63647  0.56481  1.0000
  C   C1167     1.0  0.55364  0.47326  0.92097  1.0000
  C   C1168     1.0  0.74617  0.34896  0.56088  1.0000
  C   C1169     1.0  0.61698  0.37301  0.64131  1.0000
  H   H1968     1.0  0.64698  0.58866  0.76713  1.0000
  C   C1170     1.0  0.59319  0.40742  0.58938  1.0000
  H   H1969     1.0  0.52070  0.48010  0.89527  1.0000
  C   C1171     1.0  0.61551  0.34910  0.95933  1.0000
  C   C1172     1.0  0.51538  0.42462  0.91657  1.0000
  C   C1173     1.0  0.59713  0.39758  0.65982  1.0000
  H   H1970     1.0  0.72129  0.38340  0.67275  1.0000
  H   H1971     1.0  0.65942  0.35137  0.94411  1.0000
  C   C1174     1.0  0.64749  0.34976  0.95892  1.0000
  C   C1175     1.0  0.73337  0.34793  0.58497  1.0000
  H   H1972     1.0  0.64814  0.41446  0.64776  1.0000
  H   H1973     1.0  0.56568  0.47653  0.93409  1.0000
  H   H1974     1.0  0.56932  0.47136  0.87835  1.0000
  H   H1975     1.0  0.64310  0.38967  0.90371  1.0000
  H   H1976     1.0  0.59936  0.35446  0.61857  1.0000
  H   H1977     1.0  0.62428  0.37243  0.66373  1.0000
  H   H1978     1.0  0.62724  0.63814  0.54338  1.0000
  H   H1979     1.0  0.71086  0.34589  0.76809  1.0000
  H   H1980     1.0  0.50965  0.62240  0.53597  1.0000
  H   H1981     1.0  0.56639  0.50618  0.92970  1.0000
  H   H1982     1.0  0.59749  0.40390  0.70982  1.0000
  C   C1176     1.0  0.60343  0.35822  0.64262  1.0000
  H   H1983     1.0  0.60189  0.53301  0.97175  1.0000
  C   C1177     1.0  0.71578  0.39739  0.74848  1.0000
  C   C1178     1.0  0.52153  0.47498  0.91979  1.0000
  C   C1179     1.0  0.61041  0.63620  0.79601  1.0000
  H   H1984     1.0  0.63444  0.62517  0.77881  1.0000
  H   H1985     1.0  0.72682  0.40318  0.69158  1.0000
  H   H1986     1.0  0.64836  0.60410  0.83444  1.0000
  C   C1180     1.0  0.53476  0.45767  0.97895  1.0000
  H   H1987     1.0  0.63503  0.63090  0.81913  1.0000
  H   H1988     1.0  0.68912  0.62223  0.53188  1.0000
  C   C1181     1.0  0.59674  0.50023  0.51577  1.0000
  H   H1989     1.0  0.61942  0.60012  0.76076  1.0000
  H   H1990     1.0  0.69035  0.61292  0.57043  1.0000
  N   N82       1.0  0.62346  0.60570  0.81046  1.0000
  C   C1182     1.0  0.61275  0.60609  0.84057  1.0000
  C   C1183     1.0  0.61347  0.59725  0.78423  1.0000
  C   C1184     1.0  0.61380  0.58981  0.86214  1.0000
  C   C1185     1.0  0.61052  0.57736  0.78675  1.0000
  H   H1991     1.0  0.63984  0.58354  0.82567  1.0000
  H   H1992     1.0  0.61675  0.61719  0.85574  1.0000
  H   H1993     1.0  0.59863  0.60855  0.83546  1.0000
  H   H1994     1.0  0.60012  0.60319  0.78231  1.0000
  C   C1186     1.0  0.65327  0.59535  0.78709  1.0000
  H   H1995     1.0  0.61465  0.64966  0.79011  1.0000
  H   H1996     1.0  0.63951  0.65422  0.62952  1.0000
  H   H1997     1.0  0.60334  0.37446  0.50085  1.0000
  C   C1187     1.0  0.70660  0.35940  0.76155  1.0000
  H   H1998     1.0  0.69020  0.41343  0.70949  1.0000
  H   H1999     1.0  0.59839  0.57458  0.80033  1.0000
  H   H2000     1.0  0.62164  0.56993  0.79697  1.0000
  H   H2001     1.0  0.62073  0.35649  0.89497  1.0000
  H   H2002     1.0  0.60211  0.63723  0.81745  1.0000
  C   C1188     1.0  0.60188  0.39299  0.69431  1.0000
  H   H2003     1.0  0.53561  0.50529  0.90732  1.0000
  H   H2004     1.0  0.63656  0.65454  0.56798  1.0000
  H   H2005     1.0  0.58385  0.39209  0.65621  1.0000
  H   H2006     1.0  0.74224  0.34803  0.53654  1.0000
  C   C1189     1.0  0.69578  0.38488  0.71047  1.0000
  H   H2007     1.0  0.73172  0.36355  0.74072  1.0000
  H   H2008     1.0  0.70823  0.36767  0.78265  1.0000
  N   N83       1.0  0.63124  0.35641  0.94234  1.0000
  H   H2009     1.0  0.63184  0.40005  0.60764  1.0000
  H   H2010     1.0  0.66082  0.63648  0.54281  1.0000
  H   H2011     1.0  0.52743  0.48507  0.98313  1.0000
  C   C1190     1.0  0.65343  0.65083  0.63435  1.0000
  H   H2012     1.0  0.69359  0.37400  0.69368  1.0000
  H   H2013     1.0  0.68623  0.38298  0.73002  1.0000
  H   H2014     1.0  0.60756  0.38309  0.58563  1.0000
  H   H2015     1.0  0.62695  0.36929  0.62319  1.0000
  H   H2016     1.0  0.75301  0.38756  0.67662  1.0000
  N   N84       1.0  0.53765  0.48166  0.93588  1.0000
  C   C1191     1.0  0.72641  0.38874  0.69520  1.0000
  S   S344      1.0  0.63178  0.60748  0.50106  1.0000
  H   H2017     1.0  0.73937  0.38470  0.77016  1.0000
  C   C1192     1.0  0.62904  0.64231  0.56814  1.0000
  H   H2018     1.0  0.60255  0.63187  0.77571  1.0000
  C   C1193     1.0  0.68504  0.62419  0.55679  1.0000
  C   C1194     1.0  0.59763  0.35211  0.94339  1.0000
  H   H2019     1.0  0.74267  0.40658  0.75498  1.0000
  H   H2020     1.0  0.65416  0.64103  0.65362  1.0000
  H   H2021     1.0  0.55316  0.52475  0.93958  1.0000
  H   H2022     1.0  0.58569  0.47112  0.99209  1.0000
  C   C1195     1.0  0.63772  0.40542  0.65571  1.0000
  C   C1196     1.0  0.71792  0.36569  0.73359  1.0000
  H   H2023     1.0  0.53489  0.44865  0.95870  1.0000
  C   C1197     1.0  0.68994  0.40196  0.69366  1.0000
  H   H2024     1.0  0.59176  0.36179  0.65698  1.0000
  H   H2025     1.0  0.64441  0.39283  0.66115  1.0000
  H   H2026     1.0  0.58586  0.41565  0.60654  1.0000
  H   H2027     1.0  0.69771  0.40453  0.67204  1.0000
  C   C1198     1.0  0.59195  0.51806  0.51323  1.0000
  H   H2028     1.0  0.55303  0.45877  0.92237  1.0000
  H   H2029     1.0  0.55814  0.49186  0.88155  1.0000
  H   H2030     1.0  0.62790  0.54703  0.52220  1.0000
  H   H2031     1.0  0.62733  0.38109  0.96688  1.0000
  H   H2032     1.0  0.54635  0.47225  0.87091  1.0000
  C   C1199     1.0  0.59953  0.38989  0.60390  1.0000
  H   H2033     1.0  0.60912  0.57196  0.76266  1.0000
  C   C1200     1.0  0.62429  0.40369  0.62917  1.0000
  N   N85       1.0  0.71438  0.38420  0.72239  1.0000
  H   H2034     1.0  0.64781  0.39815  0.94223  1.0000
  H   H2035     1.0  0.59537  0.41206  0.65818  1.0000
  H   H2036     1.0  0.55027  0.48089  0.98133  1.0000
  C   C1201     1.0  0.51442  0.41490  0.94448  1.0000
  S   S345      1.0  0.58473  0.58147  0.51345  1.0000
  C   C1202     1.0  0.73319  0.39773  0.76668  1.0000
  H   H2037     1.0  0.60404  0.59135  0.88151  1.0000
  H   H2038     1.0  0.53515  0.45784  0.51213  1.0000
  H   H2039     1.0  0.70486  0.39616  0.76585  1.0000
  H   H2040     1.0  0.60950  0.34635  0.65337  1.0000
  H   H2041     1.0  0.61601  0.64583  0.57831  1.0000
  H   H2042     1.0  0.52684  0.50749  0.94564  1.0000
  H   H2043     1.0  0.71609  0.35632  0.71391  1.0000
  S   S346      1.0  0.63897  0.34171  0.57774  1.0000
  H   H2044     1.0  0.71973  0.34629  0.57908  1.0000
  H   H2045     1.0  0.74638  0.36761  0.69439  1.0000
  H   H2046     1.0  0.64375  0.35596  0.89646  1.0000
  H   H2047     1.0  0.64171  0.52836  0.51278  1.0000
  C   C1203     1.0  0.63191  0.35073  0.90846  1.0000
  Fe  Fe173     1.0  0.69183  0.66362  0.81307  1.0000
  Fe  Fe174     1.0  0.69322  0.34341  0.64881  1.0000
  H   H2048     1.0  0.75233  0.38605  0.71852  1.0000
  H   H2049     1.0  0.54526  0.45302  0.99512  1.0000
  C   C1204     1.0  0.74477  0.66767  0.89155  1.0000
  H   H2050     1.0  0.61322  0.34769  0.52980  1.0000
  H   H2051     1.0  0.50980  0.59993  0.62813  1.0000
  H   H2052     1.0  0.65824  0.63187  0.97242  1.0000
  H   H2053     1.0  0.51144  0.45597  0.51143  1.0000
  H   H2054     1.0  0.65960  0.66291  0.64322  1.0000
  C   C1205     1.0  0.75512  0.66362  0.82898  1.0000
  H   H2055     1.0  0.61421  0.35487  0.98325  1.0000
  C   C1206     1.0  0.50846  0.60865  0.54164  1.0000
  C   C1207     1.0  0.58914  0.48458  0.98743  1.0000
  H   H2056     1.0  0.74066  0.66920  0.91581  1.0000
  S   S347      1.0  0.64141  0.66901  0.82511  1.0000
  H   H2057     1.0  0.52220  0.45606  0.99190  1.0000
  H   H2058     1.0  0.65412  0.37209  0.98940  1.0000
  S   S348      1.0  0.67971  0.67065  0.85941  1.0000
  C   C1208     1.0  0.65104  0.35797  0.99134  1.0000
  C   C1209     1.0  0.75609  0.35144  0.62363  1.0000
  H   H2059     1.0  0.52537  0.55313  0.99341  1.0000
  H   H2060     1.0  0.54835  0.54826  0.99424  1.0000
  H   H2061     1.0  0.62931  0.63743  0.99560  1.0000
  C   C1210     1.0  0.59580  0.69868  0.42845  1.0000
  Fe  Fe175     1.0  0.66622  0.68616  0.31482  1.0000
  S   S349      1.0  0.66280  0.71385  0.33477  1.0000
  H   H2062     1.0  0.66791  0.90699  0.45924  1.0000
  Fe  Fe176     1.0  0.59568  0.93925  0.04380  1.0000
  H   H2063     1.0  0.61905  0.87417  0.48842  1.0000
  S   S350      1.0  0.60664  0.96680  0.03854  1.0000
  Fe  Fe177     1.0  0.59560  0.90371  0.07968  1.0000
  S   S351      1.0  0.57395  0.89376  0.04833  1.0000
  S   S352      1.0  0.60331  0.88386  0.11872  1.0000
  C   C1211     1.0  0.70385  0.89721  0.36274  1.0000
  H   H2064     1.0  0.50879  0.97525  0.03613  1.0000
  Fe  Fe178     1.0  0.56110  0.92028  0.05428  1.0000
  S   S353      1.0  0.53335  0.92889  0.06865  1.0000
  S   S354      1.0  0.61156  0.91412  0.03863  1.0000
  S   S355      1.0  0.58181  0.92968  0.08749  1.0000
  Fe  Fe179     1.0  0.65459  0.84271  0.34753  1.0000
  S   S356      1.0  0.66916  0.86513  0.32602  1.0000
  S   S357      1.0  0.63789  0.84386  0.39213  1.0000
  Fe  Fe180     1.0  0.66783  0.81670  0.29835  1.0000
  S   S358      1.0  0.68367  0.83748  0.27389  1.0000
  S   S359      1.0  0.66762  0.79027  0.27314  1.0000
  Fe  Fe181     1.0  0.69178  0.84584  0.32227  1.0000
  S   S360      1.0  0.71982  0.85531  0.32956  1.0000
  Fe  Fe182     1.0  0.65989  0.85512  0.27906  1.0000
  S   S361      1.0  0.65319  0.87505  0.23965  1.0000
  S   S362      1.0  0.67773  0.82382  0.34644  1.0000
  S   S363      1.0  0.64357  0.83395  0.30109  1.0000
  Fe  Fe183     1.0  0.58927  0.90574  0.00821  1.0000
  C   C1212     1.0  0.73673  0.84926  0.35633  1.0000
  C   C1213     1.0  0.73403  0.83768  0.38147  1.0000
  H   H2065     1.0  0.73546  0.86660  0.46669  1.0000
  H   H2066     1.0  0.53007  0.94541  0.47587  1.0000
  H   H2067     1.0  0.72149  0.83142  0.38421  1.0000
  H   H2068     1.0  0.65226  0.69182  0.38282  1.0000
  H   H2069     1.0  0.71373  0.90179  0.34535  1.0000
  C   C1214     1.0  0.51264  0.91144  0.02576  1.0000
  C   C1215     1.0  0.52077  0.97806  0.04986  1.0000
  S   S364      1.0  0.57435  0.93133  0.01154  1.0000
  C   C1216     1.0  0.63022  0.89217  0.45508  1.0000
  C   C1217     1.0  0.62499  0.87564  0.46539  1.0000
  C   C1218     1.0  0.62738  0.86098  0.44576  1.0000
  C   C1219     1.0  0.63521  0.86267  0.41588  1.0000
  C   C1220     1.0  0.64066  0.87916  0.40576  1.0000
  C   C1221     1.0  0.63815  0.89384  0.42529  1.0000
  C   C1222     1.0  0.59237  0.99954  0.47118  1.0000
  H   H2070     1.0  0.62324  0.84822  0.45381  1.0000
  H   H2071     1.0  0.64662  0.88064  0.38276  1.0000
  H   H2072     1.0  0.64217  0.90660  0.41709  1.0000
  C   C1223     1.0  0.61693  0.88225  0.15283  1.0000
  C   C1224     1.0  0.61418  0.86845  0.17439  1.0000
  C   C1225     1.0  0.62481  0.86624  0.20132  1.0000
  C   C1226     1.0  0.63873  0.87754  0.20676  1.0000
  C   C1227     1.0  0.64144  0.89138  0.18528  1.0000
  C   C1228     1.0  0.63060  0.89379  0.15863  1.0000
  H   H2073     1.0  0.60356  0.85952  0.17041  1.0000
  H   H2074     1.0  0.62206  0.85592  0.21801  1.0000
  H   H2075     1.0  0.65203  0.90034  0.18926  1.0000
  H   H2076     1.0  0.63295  0.90447  0.14242  1.0000
  C   C1229     1.0  0.51347  0.92398  0.04952  1.0000
  H   H2077     1.0  0.70392  0.85893  0.39609  1.0000
  C   C1230     1.0  0.74744  0.83461  0.40366  1.0000
  C   C1231     1.0  0.61589  0.69639  0.42961  1.0000
  C   C1232     1.0  0.65210  0.67841  0.42718  1.0000
  C   C1233     1.0  0.66464  0.73489  0.31697  1.0000
  C   C1234     1.0  0.66693  0.73716  0.28452  1.0000
  C   C1235     1.0  0.66786  0.75418  0.27154  1.0000
  C   C1236     1.0  0.66661  0.76912  0.29079  1.0000
  C   C1237     1.0  0.66440  0.76684  0.32324  1.0000
  C   C1238     1.0  0.66337  0.74983  0.33619  1.0000
  H   H2078     1.0  0.66793  0.72582  0.26943  1.0000
  H   H2079     1.0  0.66959  0.75578  0.24642  1.0000
  H   H2080     1.0  0.66342  0.77818  0.33834  1.0000
  H   H2081     1.0  0.66168  0.74827  0.36131  1.0000
  H   H2082     1.0  0.58985  0.86609  0.46262  1.0000
  C   C1239     1.0  0.62143  0.70626  0.37407  1.0000
  H   H2083     1.0  0.63499  0.94022  0.01153  1.0000
  H   H2084     1.0  0.67022  0.86009  0.43393  1.0000
  H   H2085     1.0  0.63934  0.72758  0.38686  1.0000
  C   C1240     1.0  0.62520  0.72538  0.38304  1.0000
  H   H2086     1.0  0.52601  0.99532  0.09016  1.0000
  C   C1241     1.0  0.72825  0.86777  0.44412  1.0000
  C   C1242     1.0  0.54168  0.95396  0.47691  1.0000
  H   H2087     1.0  0.68997  0.85634  0.45627  1.0000
  C   C1243     1.0  0.59851  0.98296  0.01188  1.0000
  H   H2088     1.0  0.67870  0.79367  0.14929  1.0000
  H   H2089     1.0  0.57028  0.97883  0.08315  1.0000
  H   H2090     1.0  0.62900  0.70319  0.35222  1.0000
  H   H2091     1.0  0.54976  0.96793  0.08591  1.0000
  H   H2092     1.0  0.54363  0.95453  0.02604  1.0000
  H   H2093     1.0  0.65654  0.79211  0.13361  1.0000
  C   C1244     1.0  0.60428  0.67280  0.36721  1.0000
  C   C1245     1.0  0.68785  0.89792  0.42608  1.0000
  N   N86       1.0  0.62529  0.69264  0.39904  1.0000
  H   H2094     1.0  0.59145  0.70726  0.44815  1.0000
  N   N87       1.0  0.56878  0.89140  0.42818  1.0000
  C   C1246     1.0  0.55581  0.90656  0.42911  1.0000
  C   C1247     1.0  0.58668  0.89879  0.43395  1.0000
  C   C1248     1.0  0.56415  0.87914  0.45484  1.0000
  C   C1249     1.0  0.56750  0.88240  0.39670  1.0000
  C   C1250     1.0  0.53625  0.90183  0.42700  1.0000
  C   C1251     1.0  0.59237  0.91350  0.41122  1.0000
  C   C1252     1.0  0.57595  0.86282  0.45918  1.0000
  C   C1253     1.0  0.58387  0.87190  0.38516  1.0000
  H   H2095     1.0  0.55747  0.91431  0.45102  1.0000
  H   H2096     1.0  0.55818  0.91583  0.40931  1.0000
  H   H2097     1.0  0.59701  0.88858  0.43283  1.0000
  H   H2098     1.0  0.58753  0.90404  0.45830  1.0000
  H   H2099     1.0  0.56407  0.88631  0.47763  1.0000
  H   H2100     1.0  0.55073  0.87395  0.45202  1.0000
  H   H2101     1.0  0.55617  0.87338  0.39658  1.0000
  H   H2102     1.0  0.56485  0.89231  0.37790  1.0000
  H   H2103     1.0  0.53143  0.89578  0.44915  1.0000
  H   H2104     1.0  0.52836  0.91405  0.42375  1.0000
  H   H2105     1.0  0.53353  0.89319  0.40680  1.0000
  H   H2106     1.0  0.60663  0.91572  0.41400  1.0000
  H   H2107     1.0  0.59009  0.91016  0.38626  1.0000
  H   H2108     1.0  0.58568  0.92609  0.41701  1.0000
  C   C1254     1.0  0.54033  0.96557  0.01002  1.0000
  H   H2109     1.0  0.64658  0.67923  0.45130  1.0000
  H   H2110     1.0  0.59461  0.97318  0.48987  1.0000
  H   H2111     1.0  0.57950  0.86078  0.37055  1.0000
  H   H2112     1.0  0.59224  0.86612  0.40374  1.0000
  H   H2113     1.0  0.59202  0.88000  0.36915  1.0000
  C   C1255     1.0  0.65370  0.82801  0.12514  1.0000
  C   C1256     1.0  0.62103  0.67462  0.38702  1.0000
  H   H2114     1.0  0.59098  0.70542  0.40708  1.0000
  H   H2115     1.0  0.63073  0.80334  0.22991  1.0000
  H   H2116     1.0  0.68795  0.90108  0.47769  1.0000
  S   S365      1.0  0.62691  0.91111  0.47827  1.0000
  H   H2117     1.0  0.58926  0.68585  0.43107  1.0000
  C   C1257     1.0  0.64477  0.69294  0.40527  1.0000
  H   H2118     1.0  0.65697  0.84198  0.12117  1.0000
  H   H2119     1.0  0.66542  0.77542  0.15838  1.0000
  H   H2120     1.0  0.68502  0.84228  0.42509  1.0000
  S   S366      1.0  0.68259  0.67620  0.27428  1.0000
  H   H2121     1.0  0.61829  0.68556  0.44672  1.0000
  H   H2122     1.0  0.62138  0.70801  0.44160  1.0000
  C   C1258     1.0  0.68426  0.85622  0.43250  1.0000
  N   N88       1.0  0.65670  0.81843  0.18396  1.0000
  C   C1259     1.0  0.64899  0.82400  0.21522  1.0000
  C   C1260     1.0  0.67513  0.82527  0.18253  1.0000
  C   C1261     1.0  0.65737  0.79867  0.18392  1.0000
  C   C1262     1.0  0.64513  0.82552  0.15795  1.0000
  C   C1263     1.0  0.63040  0.81737  0.22288  1.0000
  C   C1264     1.0  0.67676  0.84535  0.18466  1.0000
  C   C1265     1.0  0.66504  0.78981  0.15433  1.0000
  H   H2123     1.0  0.67319  0.88436  0.46413  1.0000
  H   H2124     1.0  0.65762  0.81969  0.23486  1.0000
  H   H2125     1.0  0.64826  0.83849  0.21695  1.0000
  H   H2126     1.0  0.68214  0.82120  0.16087  1.0000
  H   H2127     1.0  0.68312  0.81947  0.20201  1.0000
  H   H2128     1.0  0.66503  0.79368  0.20446  1.0000
  H   H2129     1.0  0.64404  0.79319  0.18667  1.0000
  H   H2130     1.0  0.63351  0.81707  0.15490  1.0000
  H   H2131     1.0  0.63977  0.83866  0.16456  1.0000
  H   H2132     1.0  0.60601  0.67875  0.34351  1.0000
  H   H2133     1.0  0.62108  0.81956  0.20335  1.0000
  H   H2134     1.0  0.75325  0.77632  0.35616  1.0000
  H   H2135     1.0  0.67561  0.84973  0.20940  1.0000
  H   H2136     1.0  0.68996  0.84927  0.17634  1.0000
  H   H2137     1.0  0.66690  0.85259  0.17043  1.0000
  H   H2138     1.0  0.72288  0.85470  0.43908  1.0000
  H   H2139     1.0  0.71978  0.89429  0.45397  1.0000
  H   H2140     1.0  0.64870  0.70556  0.41584  1.0000
  H   H2141     1.0  0.59572  0.99564  0.44742  1.0000
  H   H2142     1.0  0.52344  0.96593  0.06375  1.0000
  H   H2143     1.0  0.72109  0.90268  0.40117  1.0000
  H   H2144     1.0  0.69455  0.90826  0.36685  1.0000
  H   H2145     1.0  0.60760  0.70616  0.36644  1.0000
  C   C1266     1.0  0.67888  0.89724  0.45871  1.0000
  H   H2146     1.0  0.73808  0.87135  0.42597  1.0000
  H   H2147     1.0  0.69703  0.88624  0.35146  1.0000
  H   H2148     1.0  0.74507  0.82600  0.42348  1.0000
  H   H2149     1.0  0.67723  0.89737  0.40824  1.0000
  H   H2150     1.0  0.72327  0.88128  0.38527  1.0000
  H   H2151     1.0  0.68434  0.87021  0.38915  1.0000
  N   N89       1.0  0.53599  0.98200  0.02827  1.0000
  H   H2152     1.0  0.66532  0.81964  0.12028  1.0000
  H   H2153     1.0  0.70600  0.87791  0.46881  1.0000
  H   H2154     1.0  0.59246  0.67837  0.37869  1.0000
  H   H2155     1.0  0.57449  0.85350  0.43948  1.0000
  H   H2156     1.0  0.62505  0.82468  0.24340  1.0000
  H   H2157     1.0  0.52445  0.90455  0.01833  1.0000
  H   H2158     1.0  0.54057  0.96461  0.45923  1.0000
  H   H2159     1.0  0.61750  0.72968  0.40389  1.0000
  C   C1267     1.0  0.55211  0.98695  0.04644  1.0000
  H   H2160     1.0  0.55317  0.94575  0.46995  1.0000
  C   C1268     1.0  0.55966  0.97295  0.06910  1.0000
  C   C1269     1.0  0.71354  0.88170  0.44757  1.0000
  C   C1270     1.0  0.69402  0.86748  0.40803  1.0000
  H   H2161     1.0  0.56285  0.99045  0.02990  1.0000
  H   H2162     1.0  0.56587  0.96193  0.05610  1.0000
  H   H2163     1.0  0.69328  0.91136  0.42416  1.0000
  N   N90       1.0  0.70196  0.88430  0.41922  1.0000
  H   H2164     1.0  0.64390  0.82497  0.10679  1.0000
  H   H2165     1.0  0.57173  0.85580  0.48084  1.0000
  H   H2166     1.0  0.62139  0.73407  0.36308  1.0000
  C   C1271     1.0  0.71341  0.89129  0.39298  1.0000
  C   C1272     1.0  0.51542  0.99248  0.07329  1.0000
  H   H2167     1.0  0.66650  0.68003  0.42923  1.0000
  H   H2168     1.0  0.74477  0.79822  0.35832  1.0000
  H   H2169     1.0  0.51692  0.99611  0.99942  1.0000
  C   C1273     1.0  0.75320  0.85712  0.35304  1.0000
  C   C1274     1.0  0.59174  0.98675  0.49525  1.0000
  H   H2170     1.0  0.50656  0.91141  0.48604  1.0000
  H   H2171     1.0  0.54977  0.99888  0.06072  1.0000
  C   C1275     1.0  0.60386  0.00042  0.01481  1.0000
  H   H2172     1.0  0.75547  0.86606  0.33365  1.0000
  C   C1276     1.0  0.53118  0.99626  0.00476  1.0000
  H   H2173     1.0  0.52040  0.98376  0.47953  1.0000
  H   H2174     1.0  0.55287  0.99159  0.48031  1.0000
  H   H2175     1.0  0.51454  0.95356  0.00246  1.0000
  H   H2176     1.0  0.61274  0.00384  0.03347  1.0000
  C   C1277     1.0  0.54255  0.99918  0.49295  1.0000
  H   H2177     1.0  0.51096  0.00456  0.06110  1.0000
  C   C1278     1.0  0.51807  0.91566  0.56267  1.0000
  Fe  Fe184     1.0  0.66251  0.68912  0.83127  1.0000
  S   S367      1.0  0.65884  0.71635  0.85266  1.0000
  C   C1279     1.0  0.69690  0.88871  0.92991  1.0000
  Fe  Fe185     1.0  0.59018  0.94644  0.55114  1.0000
  H   H2178     1.0  0.68670  0.88436  0.91317  1.0000
  S   S368      1.0  0.58701  0.97602  0.55747  1.0000
  Fe  Fe186     1.0  0.59589  0.91103  0.58647  1.0000
  S   S369      1.0  0.58966  0.89534  0.54282  1.0000
  S   S370      1.0  0.59913  0.89976  0.63673  1.0000
  H   H2179     1.0  0.51682  0.99712  0.51278  1.0000
  C   C1280     1.0  0.71774  0.71064  0.79996  1.0000
  Fe  Fe187     1.0  0.56758  0.91501  0.53516  1.0000
  C   C1281     1.0  0.75569  0.77892  0.85973  1.0000
  S   S371      1.0  0.61404  0.92954  0.56122  1.0000
  S   S372      1.0  0.57245  0.92930  0.58002  1.0000
  Fe  Fe188     1.0  0.66551  0.85056  0.84534  1.0000
  S   S373      1.0  0.68108  0.86805  0.81308  1.0000
  S   S374      1.0  0.65993  0.86063  0.89503  1.0000
  Fe  Fe189     1.0  0.67092  0.81851  0.80319  1.0000
  S   S375      1.0  0.68706  0.83418  0.76910  1.0000
  S   S376      1.0  0.66782  0.79061  0.78487  1.0000
  Fe  Fe190     1.0  0.70030  0.84541  0.81122  1.0000
  S   S377      1.0  0.72994  0.84937  0.81069  1.0000
  Fe  Fe191     1.0  0.66640  0.85543  0.77332  1.0000
  S   S378      1.0  0.66028  0.86869  0.72544  1.0000
  S   S379      1.0  0.68563  0.82842  0.84504  1.0000
  S   S380      1.0  0.64939  0.83923  0.80576  1.0000
  H   H2180     1.0  0.63610  0.91137  0.90552  1.0000
  C   C1282     1.0  0.74460  0.84686  0.84272  1.0000
  C   C1283     1.0  0.73979  0.83840  0.87067  1.0000
  H   H2181     1.0  0.65178  0.94635  0.92772  1.0000
  H   H2182     1.0  0.73299  0.73772  0.82246  1.0000
  H   H2183     1.0  0.72689  0.83283  0.87278  1.0000
  C   C1284     1.0  0.52014  0.91316  0.53026  1.0000
  C   C1285     1.0  0.64529  0.91932  0.91937  1.0000
  H   H2184     1.0  0.60812  0.96844  0.88536  1.0000
  H   H2185     1.0  0.71204  0.69650  0.84264  1.0000
  H   H2186     1.0  0.52946  0.91553  0.57771  1.0000
  C   C1286     1.0  0.61091  0.88586  0.94088  1.0000
  C   C1287     1.0  0.62601  0.88240  0.95843  1.0000
  C   C1288     1.0  0.64081  0.87455  0.94398  1.0000
  C   C1289     1.0  0.64072  0.87012  0.91188  1.0000
  C   C1290     1.0  0.62565  0.87366  0.89427  1.0000
  C   C1291     1.0  0.61082  0.88148  0.90875  1.0000
  C   C1292     1.0  0.74004  0.86681  0.96099  1.0000
  H   H2187     1.0  0.65233  0.87171  0.95788  1.0000
  H   H2188     1.0  0.62538  0.87030  0.86958  1.0000
  H   H2189     1.0  0.59916  0.88408  0.89502  1.0000
  C   C1293     1.0  0.61617  0.89020  0.66029  1.0000
  C   C1294     1.0  0.61251  0.88596  0.69197  1.0000
  C   C1295     1.0  0.62574  0.87937  0.71222  1.0000
  C   C1296     1.0  0.64288  0.87680  0.70104  1.0000
  C   C1297     1.0  0.64653  0.88102  0.66935  1.0000
  C   C1298     1.0  0.63331  0.88762  0.64909  1.0000
  H   H2190     1.0  0.59937  0.88802  0.70107  1.0000
  H   H2191     1.0  0.62274  0.87654  0.73660  1.0000
  H   H2192     1.0  0.65973  0.87916  0.66037  1.0000
  H   H2193     1.0  0.63644  0.89082  0.62489  1.0000
  C   C1299     1.0  0.58109  0.99182  0.96648  1.0000
  C   C1300     1.0  0.58779  0.99163  0.52621  1.0000
  H   H2194     1.0  0.61240  0.80396  0.75368  1.0000
  C   C1301     1.0  0.69649  0.84945  0.95422  1.0000
  H   H2195     1.0  0.63552  0.97017  0.71985  1.0000
  C   C1302     1.0  0.66116  0.73687  0.83328  1.0000
  C   C1303     1.0  0.66083  0.75230  0.85129  1.0000
  C   C1304     1.0  0.66299  0.76886  0.83701  1.0000
  C   C1305     1.0  0.66535  0.77016  0.80443  1.0000
  C   C1306     1.0  0.66560  0.75474  0.78640  1.0000
  C   C1307     1.0  0.66361  0.73818  0.80072  1.0000
  H   H2196     1.0  0.65886  0.75144  0.87648  1.0000
  H   H2197     1.0  0.66266  0.78059  0.85116  1.0000
  H   H2198     1.0  0.66742  0.75558  0.76118  1.0000
  H   H2199     1.0  0.66388  0.72644  0.78655  1.0000
  H   H2200     1.0  0.59722  0.81743  0.68011  1.0000
  H   H2201     1.0  0.57236  0.98836  0.94761  1.0000
  H   H2202     1.0  0.65603  0.79938  0.71277  1.0000
  H   H2203     1.0  0.71344  0.72261  0.78715  1.0000
  C   C1308     1.0  0.69872  0.71187  0.90310  1.0000
  H   H2204     1.0  0.65703  0.81755  0.73828  1.0000
  H   H2205     1.0  0.59716  0.82899  0.73130  1.0000
  H   H2206     1.0  0.53374  0.95217  0.57517  1.0000
  H   H2207     1.0  0.60720  0.97465  0.63793  1.0000
  H   H2208     1.0  0.60944  0.83293  0.76692  1.0000
  N   N91       1.0  0.63123  0.81359  0.71889  1.0000
  H   H2209     1.0  0.65847  0.92509  0.61496  1.0000
  H   H2210     1.0  0.70902  0.73783  0.89776  1.0000
  H   H2211     1.0  0.70149  0.75853  0.84830  1.0000
  H   H2212     1.0  0.71770  0.84859  0.92041  1.0000
  H   H2213     1.0  0.68661  0.71574  0.91615  1.0000
  H   H2214     1.0  0.62699  0.81575  0.66876  1.0000
  H   H2215     1.0  0.69584  0.89983  0.97765  1.0000
  C   C1309     1.0  0.60827  0.83608  0.74145  1.0000
  C   C1310     1.0  0.53864  0.96531  0.58092  1.0000
  H   H2216     1.0  0.53189  0.96951  0.60293  1.0000
  H   H2217     1.0  0.62048  0.77695  0.72502  1.0000
  H   H2218     1.0  0.69559  0.70013  0.88921  1.0000
  C   C1311     1.0  0.62207  0.96435  0.93049  1.0000
  C   C1312     1.0  0.70447  0.72724  0.88195  1.0000
  H   H2219     1.0  0.73020  0.70212  0.88499  1.0000
  C   C1313     1.0  0.62578  0.83252  0.72409  1.0000
  S   S381      1.0  0.58418  0.93304  0.50607  1.0000
  H   H2220     1.0  0.64298  0.77870  0.73757  1.0000
  C   C1314     1.0  0.62231  0.93894  0.96587  1.0000
  H   H2221     1.0  0.71238  0.69940  0.78686  1.0000
  H   H2222     1.0  0.66352  0.94232  0.64133  1.0000
  H   H2223     1.0  0.73781  0.72339  0.89378  1.0000
  H   H2224     1.0  0.64396  0.93470  0.70163  1.0000
  H   H2225     1.0  0.60036  0.79458  0.67040  1.0000
  C   C1315     1.0  0.58706  0.97876  0.98758  1.0000
  C   C1316     1.0  0.71051  0.71023  0.83399  1.0000
  H   H2226     1.0  0.59785  0.80051  0.71007  1.0000
  C   C1317     1.0  0.52571  0.95870  0.98856  1.0000
  S   S382      1.0  0.59208  0.89611  0.95766  1.0000
  N   N92       1.0  0.71246  0.87620  0.92958  1.0000
  H   H2227     1.0  0.63579  0.83949  0.73809  1.0000
  C   C1318     1.0  0.65098  0.81296  0.71607  1.0000
  C   C1319     1.0  0.70658  0.85754  0.92634  1.0000
  H   H2228     1.0  0.63371  0.80658  0.76815  1.0000
  H   H2229     1.0  0.62604  0.77586  0.76575  1.0000
  H   H2230     1.0  0.73076  0.74806  0.85938  1.0000
  C   C1320     1.0  0.62924  0.78242  0.74307  1.0000
  N   N93       1.0  0.71817  0.72294  0.85722  1.0000
  H   H2231     1.0  0.69607  0.71226  0.83172  1.0000
  S   S383      1.0  0.54109  0.91002  0.51251  1.0000
  H   H2232     1.0  0.69227  0.73242  0.87090  1.0000
  C   C1321     1.0  0.73370  0.71485  0.87402  1.0000
  H   H2233     1.0  0.64102  0.94239  0.89181  1.0000
  H   H2234     1.0  0.67343  0.82419  0.69204  1.0000
  S   S384      1.0  0.67553  0.68300  0.78504  1.0000
  H   H2235     1.0  0.60494  0.85026  0.73983  1.0000
  H   H2236     1.0  0.69775  0.85625  0.90579  1.0000
  H   H2237     1.0  0.60798  0.95718  0.60927  1.0000
  C   C1322     1.0  0.62637  0.80238  0.74694  1.0000
  C   C1323     1.0  0.70850  0.75148  0.82909  1.0000
  Fe  Fe192     1.0  0.60668  0.91480  0.51741  1.0000
  H   H2238     1.0  0.52640  0.98945  0.56386  1.0000
  H   H2239     1.0  0.65422  0.83754  0.68850  1.0000
  C   C1324     1.0  0.75167  0.83729  0.89596  1.0000
  H   H2240     1.0  0.62996  0.79415  0.68171  1.0000
  C   C1325     1.0  0.51356  0.96206  0.52588  1.0000
  C   C1326     1.0  0.65899  0.82378  0.68891  1.0000
  H   H2241     1.0  0.70883  0.70847  0.92088  1.0000
  H   H2242     1.0  0.71615  0.87697  0.98045  1.0000
  C   C1327     1.0  0.72360  0.73994  0.84213  1.0000
  N   N94       1.0  0.62735  0.94556  0.66470  1.0000
  C   C1328     1.0  0.63520  0.93728  0.63550  1.0000
  C   C1329     1.0  0.60796  0.94806  0.65890  1.0000
  C   C1330     1.0  0.63053  0.93313  0.69201  1.0000
  C   C1331     1.0  0.63639  0.96269  0.66999  1.0000
  H   H2243     1.0  0.70953  0.86739  0.86302  1.0000
  C   C1332     1.0  0.60291  0.96119  0.63263  1.0000
  C   C1333     1.0  0.61760  0.93400  0.72001  1.0000
  C   C1334     1.0  0.62940  0.97413  0.69721  1.0000
  H   H2244     1.0  0.62759  0.92558  0.62861  1.0000
  H   H2245     1.0  0.63454  0.94643  0.61508  1.0000
  H   H2246     1.0  0.60077  0.95256  0.68015  1.0000
  H   H2247     1.0  0.60193  0.93531  0.65311  1.0000
  H   H2248     1.0  0.63011  0.91932  0.68406  1.0000
  H   H2249     1.0  0.68220  0.85224  0.95221  1.0000
  H   H2250     1.0  0.65050  0.96036  0.67520  1.0000
  H   H2251     1.0  0.63257  0.98803  0.69227  1.0000
  H   H2252     1.0  0.61088  0.96921  0.94493  1.0000
  H   H2253     1.0  0.62094  0.92447  0.96783  1.0000
  C   C1335     1.0  0.68763  0.89192  0.96180  1.0000
  H   H2254     1.0  0.62509  0.83978  0.70131  1.0000
  H   H2255     1.0  0.58840  0.96175  0.63056  1.0000
  C   C1336     1.0  0.60365  0.80494  0.68757  1.0000
  H   H2256     1.0  0.62268  0.92544  0.73925  1.0000
  H   H2257     1.0  0.60466  0.92871  0.71338  1.0000
  H   H2258     1.0  0.61593  0.94732  0.72967  1.0000
  H   H2259     1.0  0.73485  0.87130  0.89871  1.0000
  H   H2260     1.0  0.61498  0.97408  0.69971  1.0000
  H   H2261     1.0  0.74780  0.83089  0.91762  1.0000
  H   H2262     1.0  0.51624  0.94879  0.53548  1.0000
  C   C1337     1.0  0.65459  0.93123  0.63767  1.0000
  C   C1338     1.0  0.62371  0.80684  0.68869  1.0000
  H   H2263     1.0  0.65663  0.81765  0.66575  1.0000
  H   H2264     1.0  0.71382  0.76158  0.81290  1.0000
  H   H2265     1.0  0.69894  0.74373  0.81580  1.0000
  H   H2266     1.0  0.55283  0.96385  0.58612  1.0000
  C   C1339     1.0  0.72364  0.87882  0.95831  1.0000
  H   H2267     1.0  0.65023  0.93794  0.97991  1.0000
  H   H2268     1.0  0.63674  0.97084  0.64817  1.0000
  H   H2269     1.0  0.61920  0.98703  0.89987  1.0000
  C   C1340     1.0  0.71424  0.88059  0.86912  1.0000
  H   H2270     1.0  0.70324  0.89022  0.86791  1.0000
  H   H2271     1.0  0.68382  0.87972  0.97387  1.0000
  H   H2272     1.0  0.61036  0.93848  0.88817  1.0000
  H   H2273     1.0  0.73215  0.70936  0.79854  1.0000
  H   H2274     1.0  0.63180  0.96974  0.88233  1.0000
  H   H2275     1.0  0.50799  0.95960  0.50219  1.0000
  H   H2276     1.0  0.72377  0.88422  0.85040  1.0000
  H   H2277     1.0  0.74352  0.78056  0.84571  1.0000
  H   H2278     1.0  0.65853  0.91695  0.90908  1.0000
  C   C1341     1.0  0.60888  0.93624  0.91394  1.0000
  H   H2279     1.0  0.70081  0.90195  0.92148  1.0000
  H   H2280     1.0  0.63378  0.97042  0.94110  1.0000
  H   H2281     1.0  0.55215  0.96753  0.99505  1.0000
  C   C1342     1.0  0.62021  0.97255  0.89740  1.0000
  H   H2282     1.0  0.58066  0.93524  0.90806  1.0000
  H   H2283     1.0  0.54663  0.94925  0.52581  1.0000
  H   H2284     1.0  0.58702  0.93755  0.94788  1.0000
  N   N95       1.0  0.53013  0.97255  0.52331  1.0000
  C   C1343     1.0  0.53577  0.97929  0.55486  1.0000
  C   C1344     1.0  0.59012  0.94187  0.92362  1.0000
  H   H2285     1.0  0.58769  0.95615  0.92131  1.0000
  N   N96       1.0  0.62348  0.94464  0.93189  1.0000
  H   H2286     1.0  0.67536  0.89958  0.95769  1.0000
  C   C1345     1.0  0.72362  0.88062  0.90120  1.0000
  C   C1346     1.0  0.52656  0.98799  0.50186  1.0000
  H   H2287     1.0  0.72955  0.89378  0.90386  1.0000
  H   H2288     1.0  0.72815  0.89263  0.95923  1.0000
  H   H2289     1.0  0.64567  0.91441  0.94392  1.0000
  C   C1347     1.0  0.64073  0.93905  0.91730  1.0000
  H   H2290     1.0  0.60942  0.92178  0.91686  1.0000
  H   H2291     1.0  0.70115  0.85357  0.97753  1.0000
  H   H2292     1.0  0.65675  0.92110  0.65611  1.0000
  H   H2293     1.0  0.63927  0.95876  0.98761  1.0000
  H   H2294     1.0  0.73672  0.85274  0.96068  1.0000
  H   H2295     1.0  0.55742  0.96769  0.51078  1.0000
  H   H2296     1.0  0.69852  0.83501  0.95396  1.0000
  H   H2297     1.0  0.53103  0.94745  0.97482  1.0000
  C   C1348     1.0  0.54460  0.96095  0.51044  1.0000
  H   H2298     1.0  0.54839  0.98632  0.55262  1.0000
  H   H2299     1.0  0.62622  0.88562  0.98319  1.0000
  H   H2300     1.0  0.61027  0.94446  0.97721  1.0000
  H   H2301     1.0  0.74653  0.86926  0.98385  1.0000
  H   H2302     1.0  0.74996  0.86961  0.94252  1.0000
  H   H2303     1.0  0.58304  0.96539  0.98472  1.0000
  H   H2304     1.0  0.52094  0.96866  0.97146  1.0000
  H   H2305     1.0  0.75160  0.77935  0.88480  1.0000
  H   H2306     1.0  0.53792  0.99398  0.98171  1.0000
  H   H2307     1.0  0.74797  0.70011  0.83750  1.0000
  C   C1349     1.0  0.75019  0.71095  0.85407  1.0000
  H   H2308     1.0  0.75527  0.72259  0.84164  1.0000
  C   C1350     1.0  0.63771  0.94437  0.98694  1.0000
  H   H2309     1.0  0.54826  0.00563  0.51371  1.0000
  H   H2310     1.0  0.78612  0.30364  0.15074  1.0000
  H   H2311     1.0  0.89641  0.09752  0.03851  1.0000
  Fe  Fe193     1.0  0.83964  0.32491  0.07186  1.0000
  S   S385      1.0  0.84515  0.29703  0.08937  1.0000
  C   C1351     1.0  0.89077  0.13192  0.04169  1.0000
  Fe  Fe194     1.0  0.83001  0.19759  0.04123  1.0000
  S   S386      1.0  0.81128  0.17996  0.01669  1.0000
  S   S387      1.0  0.83197  0.22474  0.01872  1.0000
  Fe  Fe195     1.0  0.84022  0.16822  0.08713  1.0000
  S   S388      1.0  0.82160  0.14897  0.06577  1.0000
  S   S389      1.0  0.86154  0.16318  0.12371  1.0000
  Fe  Fe196     1.0  0.83212  0.15881  0.01907  1.0000
  S   S390      1.0  0.84149  0.14976  0.47083  1.0000
  Fe  Fe197     1.0  0.80225  0.17178  0.06506  1.0000
  S   S391      1.0  0.77223  0.17392  0.06888  1.0000
  S   S392      1.0  0.85145  0.17697  0.04039  1.0000
  S   S393      1.0  0.82026  0.19048  0.08950  1.0000
  Fe  Fe198     1.0  0.90326  0.10097  0.33277  1.0000
  S   S394      1.0  0.90941  0.11800  0.29068  1.0000
  S   S395      1.0  0.89995  0.11145  0.38362  1.0000
  Fe  Fe199     1.0  0.91082  0.06691  0.29365  1.0000
  S   S396      1.0  0.91764  0.08188  0.24976  1.0000
  S   S397      1.0  0.91059  0.03702  0.29836  1.0000
  Fe  Fe200     1.0  0.93251  0.09964  0.28205  1.0000
  S   S398      1.0  0.95906  0.11218  0.27239  1.0000
  Fe  Fe201     1.0  0.89410  0.09882  0.26188  1.0000
  S   S399      1.0  0.87213  0.10242  0.22593  1.0000
  S   S400      1.0  0.92724  0.08358  0.32532  1.0000
  S   S401      1.0  0.88647  0.08284  0.30467  1.0000
  C   C1352     1.0  0.97988  0.10180  0.27654  1.0000
  C   C1353     1.0  0.98180  0.08359  0.27807  1.0000
  C   C1354     1.0  0.99494  0.11217  0.27799  1.0000
  H   H2312     1.0  0.97033  0.07546  0.27703  1.0000
  H   H2313     1.0  0.99354  0.12628  0.27716  1.0000
  C   C1355     1.0  0.91216  0.02096  0.26819  1.0000
  C   C1356     1.0  0.91442  0.02550  0.23650  1.0000
  C   C1357     1.0  0.95937  0.14937  0.41538  1.0000
  H   H2314     1.0  0.91594  0.03910  0.22997  1.0000
  C   C1358     1.0  0.84953  0.01664  0.22459  1.0000
  C   C1359     1.0  0.86407  0.14614  0.15194  1.0000
  C   C1360     1.0  0.87910  0.14586  0.17095  1.0000
  C   C1361     1.0  0.88179  0.13259  0.19369  1.0000
  C   C1362     1.0  0.86944  0.11943  0.19762  1.0000
  C   C1363     1.0  0.85450  0.11958  0.17835  1.0000
  C   C1364     1.0  0.85180  0.13286  0.15560  1.0000
  H   H2315     1.0  0.88867  0.15607  0.16829  1.0000
  H   H2316     1.0  0.89334  0.13264  0.20832  1.0000
  H   H2317     1.0  0.84485  0.10946  0.18124  1.0000
  H   H2318     1.0  0.84017  0.13293  0.14119  1.0000
  C   C1365     1.0  0.85807  0.13925  0.44706  1.0000
  C   C1366     1.0  0.87459  0.13448  0.45871  1.0000
  C   C1367     1.0  0.88710  0.12599  0.43902  1.0000
  C   C1368     1.0  0.88343  0.12223  0.40725  1.0000
  C   C1369     1.0  0.86697  0.12719  0.39552  1.0000
  C   C1370     1.0  0.85442  0.13559  0.41528  1.0000
  H   H2319     1.0  0.86511  0.04582  0.19004  1.0000
  H   H2320     1.0  0.89961  0.12210  0.44871  1.0000
  H   H2321     1.0  0.86382  0.12444  0.37128  1.0000
  H   H2322     1.0  0.84170  0.13914  0.40588  1.0000
  H   H2323     1.0  0.99997  0.06173  0.28077  1.0000
  C   C1371     1.0  0.87926  0.10102  0.11117  1.0000
  H   H2324     1.0  0.95412  0.01638  0.18336  1.0000
  H   H2325     1.0  0.77379  0.15443  0.12890  1.0000
  C   C1372     1.0  0.84103  0.27715  0.06928  1.0000
  C   C1373     1.0  0.84156  0.26129  0.08626  1.0000
  C   C1374     1.0  0.83854  0.24517  0.07130  1.0000
  C   C1375     1.0  0.83512  0.24473  0.03902  1.0000
  C   C1376     1.0  0.83439  0.26062  0.02209  1.0000
  C   C1377     1.0  0.83725  0.27675  0.03713  1.0000
  H   H2326     1.0  0.84451  0.26144  0.11113  1.0000
  H   H2327     1.0  0.83918  0.23308  0.08463  1.0000
  C   C1378     1.0  0.76022  0.15732  0.12351  1.0000
  H   H2328     1.0  0.83685  0.28883  0.02373  1.0000
  H   H2329     1.0  0.85147  0.09729  0.07053  1.0000
  C   C1379     1.0  0.79628  0.30030  0.04478  1.0000
  H   H2330     1.0  0.90168  0.11292  0.08945  1.0000
  H   H2331     1.0  0.87929  0.19236  0.42429  1.0000
  H   H2332     1.0  0.95619  0.02247  0.22347  1.0000
  H   H2333     1.0  0.80279  0.19439  0.43433  1.0000
  C   C1380     1.0  0.96213  0.01412  0.20474  1.0000
  H   H2334     1.0  0.88080  0.19584  0.46658  1.0000
  C   C1381     1.0  0.84822  0.20284  0.38194  1.0000
  H   H2335     1.0  0.79287  0.31160  0.02929  1.0000
  H   H2336     1.0  0.95817  0.10498  0.33920  1.0000
  C   C1382     1.0  0.88729  0.11558  0.09073  1.0000
  H   H2337     1.0  0.99077  0.09833  0.34384  1.0000
  H   H2338     1.0  0.79523  0.23762  0.07964  1.0000
  H   H2339     1.0  0.96932  0.15577  0.43023  1.0000
  H   H2340     1.0  0.94039  0.09861  0.38675  1.0000
  H   H2341     1.0  0.80166  0.25041  0.11226  1.0000
  S   S402      1.0  0.82609  0.33242  0.02701  1.0000
  C   C1383     1.0  0.84615  0.23978  0.46486  1.0000
  H   H2342     1.0  0.77482  0.30807  0.07408  1.0000
  N   N97       1.0  0.78291  0.28190  0.08974  1.0000
  C   C1384     1.0  0.78906  0.26530  0.07354  1.0000
  C   C1385     1.0  0.79682  0.28695  0.11290  1.0000
  C   C1386     1.0  0.79114  0.24888  0.09465  1.0000
  C   C1387     1.0  0.91428  0.01244  0.21314  1.0000
  H   H2343     1.0  0.80212  0.26707  0.06228  1.0000
  H   H2344     1.0  0.87781  0.17449  0.45129  1.0000
  C   C1388     1.0  0.78003  0.29556  0.06446  1.0000
  H   H2345     1.0  0.79779  0.27711  0.13219  1.0000
  H   H2346     1.0  0.81011  0.28639  0.10215  1.0000
  H   H2347     1.0  0.82063  0.21971  0.43389  1.0000
  C   C1389     1.0  0.89250  0.14954  0.05892  1.0000
  H   H2348     1.0  0.94838  0.14582  0.43106  1.0000
  H   H2349     1.0  0.97531  0.12581  0.41689  1.0000
  H   H2350     1.0  0.88556  0.12772  0.10488  1.0000
  H   H2351     1.0  0.94739  0.11783  0.44868  1.0000
  H   H2352     1.0  0.94871  0.13853  0.31686  1.0000
  C   C1390     1.0  0.85406  0.19042  0.44991  1.0000
  H   H2353     1.0  0.93216  0.12202  0.35352  1.0000
  H   H2354     1.0  0.91576  0.01614  0.18867  1.0000
  C   C1391     1.0  0.94610  0.14501  0.33975  1.0000
  C   C1392     1.0  0.85186  0.21477  0.41027  1.0000
  H   H2355     1.0  0.84879  0.18015  0.43447  1.0000
  N   N98       1.0  0.84645  0.20827  0.44239  1.0000
  C   C1393     1.0  0.85339  0.22079  0.46659  1.0000
  C   C1394     1.0  0.93856  0.11295  0.43015  1.0000
  H   H2356     1.0  0.93271  0.13822  0.38275  1.0000
  H   H2357     1.0  0.78000  0.26186  0.05410  1.0000
  H   H2358     1.0  0.99927  0.12874  0.20787  1.0000
  H   H2359     1.0  0.95466  0.15942  0.39841  1.0000
  H   H2360     1.0  0.85795  0.20555  0.36303  1.0000
  H   H2361     1.0  0.86354  0.02149  0.32250  1.0000
  H   H2362     1.0  0.77872  0.24522  0.10643  1.0000
  C   C1395     1.0  0.94109  0.13140  0.36510  1.0000
  H   H2363     1.0  0.86786  0.22189  0.46475  1.0000
  H   H2364     1.0  0.76594  0.19884  0.16144  1.0000
  C   C1396     1.0  0.79461  0.30472  0.12953  1.0000
  H   H2365     1.0  0.82276  0.20909  0.47093  1.0000
  H   H2366     1.0  0.87962  0.15509  0.06599  1.0000
  H   H2367     1.0  0.84989  0.18871  0.38690  1.0000
  H   H2368     1.0  0.80773  0.30915  0.13706  1.0000
  H   H2369     1.0  0.85150  0.24727  0.48491  1.0000
  H   H2370     1.0  0.93489  0.15422  0.33597  1.0000
  H   H2371     1.0  0.89867  0.15919  0.04283  1.0000
  H   H2372     1.0  0.85005  0.18639  0.47408  1.0000
  H   H2373     1.0  0.80730  0.30433  0.05980  1.0000
  C   C1397     1.0  0.84681  0.11069  0.06520  1.0000
  H   H2374     1.0  0.81962  0.18028  0.44897  1.0000
  H   H2375     1.0  0.97250  0.12306  0.33819  1.0000
  H   H2376     1.0  0.78971  0.31534  0.11406  1.0000
  H   H2377     1.0  0.87765  0.13707  0.48304  1.0000
  H   H2378     1.0  0.75916  0.22123  0.16384  1.0000
  N   N99       1.0  0.87995  0.11814  0.05810  1.0000
  H   H2379     1.0  0.83168  0.24048  0.46722  1.0000
  H   H2380     1.0  0.83490  0.20542  0.37244  1.0000
  H   H2381     1.0  0.85952  0.13460  0.07832  1.0000
  H   H2382     1.0  0.85757  0.13158  0.03743  1.0000
  H   H2383     1.0  0.93184  0.10136  0.44016  1.0000
  H   H2384     1.0  0.85303  0.01740  0.19921  1.0000
  C   C1398     1.0  0.87572  0.10244  0.00506  1.0000
  C   C1399     1.0  0.94901  0.10724  0.40078  1.0000
  C   C1400     1.0  0.96806  0.13349  0.39865  1.0000
  H   H2385     1.0  0.76827  0.27148  0.12943  1.0000
  H   H2386     1.0  0.85071  0.21584  0.49088  1.0000
  H   H2387     1.0  0.95771  0.15271  0.34614  1.0000
  H   H2388     1.0  0.83802  0.11015  0.04446  1.0000
  H   H2389     1.0  0.97770  0.08830  0.37329  1.0000
  H   H2390     1.0  0.92818  0.12276  0.42492  1.0000
  H   H2391     1.0  0.87584  0.09020  0.05049  1.0000
  C   C1401     1.0  0.82670  0.20809  0.44569  1.0000
  H   H2392     1.0  0.97843  0.13907  0.38315  1.0000
  C   C1402     1.0  0.86115  0.12456  0.05960  1.0000
  H   H2393     1.0  0.95965  0.09861  0.41000  1.0000
  H   H2394     1.0  0.80053  0.28950  0.02903  1.0000
  H   H2395     1.0  0.86532  0.10383  0.11682  1.0000
  C   C1403     1.0  0.86227  0.02257  0.29652  1.0000
  C   C1404     1.0  0.98228  0.10118  0.36458  1.0000
  H   H2396     1.0  0.97565  0.01872  0.20075  1.0000
  H   H2397     1.0  0.88520  0.13521  0.01823  1.0000
  C   C1405     1.0  0.87418  0.18851  0.44773  1.0000
  H   H2398     1.0  0.83842  0.11474  0.08546  1.0000
  N   N100      1.0  0.85533  0.04600  0.25368  1.0000
  C   C1406     1.0  0.84915  0.06486  0.25126  1.0000
  C   C1407     1.0  0.87358  0.04509  0.23987  1.0000
  C   C1408     1.0  0.85616  0.04131  0.28819  1.0000
  C   C1409     1.0  0.84254  0.03460  0.23657  1.0000
  C   C1410     1.0  0.83120  0.06932  0.26641  1.0000
  C   C1411     1.0  0.87535  0.05123  0.20536  1.0000
  H   H2399     1.0  0.86597  0.21829  0.40959  1.0000
  H   H2400     1.0  0.99062  0.10741  0.38244  1.0000
  H   H2401     1.0  0.85885  0.07371  0.26203  1.0000
  H   H2402     1.0  0.84810  0.06911  0.22624  1.0000
  H   H2403     1.0  0.87921  0.03171  0.24100  1.0000
  H   H2404     1.0  0.88270  0.05311  0.25404  1.0000
  H   H2405     1.0  0.86498  0.05043  0.30073  1.0000
  H   H2406     1.0  0.84308  0.04279  0.29958  1.0000
  H   H2407     1.0  0.83084  0.03211  0.25165  1.0000
  H   H2408     1.0  0.83753  0.04162  0.21531  1.0000
  H   H2409     1.0  0.82075  0.06043  0.25868  1.0000
  H   H2410     1.0  0.83195  0.06947  0.29248  1.0000
  H   H2411     1.0  0.82723  0.08281  0.25915  1.0000
  H   H2412     1.0  0.87503  0.06574  0.20369  1.0000
  H   H2413     1.0  0.85035  0.24660  0.44308  1.0000
  H   H2414     1.0  0.88828  0.04685  0.19591  1.0000
  H   H2415     1.0  0.75782  0.26897  0.09250  1.0000
  C   C1412     1.0  0.81715  0.19181  0.43350  1.0000
  H   H2416     1.0  0.82062  0.18840  0.40902  1.0000
  H   H2417     1.0  0.84502  0.22738  0.40480  1.0000
  H   H2418     1.0  0.88612  0.10067  0.13418  1.0000
  H   H2419     1.0  0.90436  0.12695  0.03708  1.0000
  N   N101      1.0  0.95622  0.12166  0.38025  1.0000
  C   C1413     1.0  0.96676  0.11306  0.35421  1.0000
  C   C1414     1.0  0.88229  0.10152  0.03936  1.0000
  H   H2420     1.0  0.88094  0.08782  0.10082  1.0000
  C   C1415     1.0  0.99865  0.07584  0.28017  1.0000
  H   H2421     1.0  0.90107  0.14836  0.07984  1.0000
  C   C1416     1.0  0.76582  0.27818  0.10650  1.0000
  H   H2422     1.0  0.85248  0.01279  0.28946  1.0000
  H   H2423     1.0  0.76977  0.29122  0.04778  1.0000
  H   H2424     1.0  0.86210  0.10762  0.00334  1.0000
  H   H2425     1.0  0.76004  0.30493  0.12510  1.0000
  H   H2426     1.0  0.87534  0.01921  0.28670  1.0000
  H   H2427     1.0  0.86065  0.01087  0.23776  1.0000
  H   H2428     1.0  0.83880  0.00700  0.22611  1.0000
  H   H2429     1.0  0.83177  0.26044  0.99711  1.0000
  H   H2430     1.0  0.80948  0.18316  0.91840  1.0000
  C   C1417     1.0  0.78983  0.30587  0.62472  1.0000
  Fe  Fe202     1.0  0.84005  0.32826  0.55855  1.0000
  S   S403      1.0  0.84742  0.30081  0.57639  1.0000
  H   H2431     1.0  0.83174  0.12817  0.69466  1.0000
  Fe  Fe203     1.0  0.82632  0.19852  0.54819  1.0000
  S   S404      1.0  0.81143  0.17806  0.52196  1.0000
  S   S405      1.0  0.82030  0.22639  0.53061  1.0000
  Fe  Fe204     1.0  0.84353  0.17031  0.58920  1.0000
  S   S406      1.0  0.82986  0.14809  0.56551  1.0000
  S   S407      1.0  0.86177  0.16815  0.63136  1.0000
  Fe  Fe205     1.0  0.83650  0.16201  0.51994  1.0000
  S   S408      1.0  0.83762  0.14031  0.97706  1.0000
  Fe  Fe206     1.0  0.80587  0.16580  0.56905  1.0000
  S   S409      1.0  0.77863  0.15481  0.57928  1.0000
  S   S410      1.0  0.85180  0.18335  0.54351  1.0000
  S   S411      1.0  0.81914  0.18717  0.59541  1.0000
  Fe  Fe207     1.0  0.90100  0.10177  0.83128  1.0000
  S   S412      1.0  0.90876  0.11603  0.78635  1.0000
  S   S413      1.0  0.89779  0.11821  0.87687  1.0000
  Fe  Fe208     1.0  0.90444  0.06556  0.79842  1.0000
  S   S414      1.0  0.91189  0.07782  0.75269  1.0000
  S   S415      1.0  0.90495  0.03564  0.80340  1.0000
  Fe  Fe209     1.0  0.92971  0.09495  0.78051  1.0000
  S   S416      1.0  0.95635  0.09719  0.75548  1.0000
  Fe  Fe210     1.0  0.89050  0.09762  0.76219  1.0000
  S   S417      1.0  0.87155  0.10189  0.72136  1.0000
  S   S418      1.0  0.92328  0.08178  0.82641  1.0000
  S   S419      1.0  0.88165  0.08429  0.80704  1.0000
  C   C1418     1.0  0.97801  0.09712  0.77100  1.0000
  C   C1419     1.0  0.98129  0.09838  0.80325  1.0000
  C   C1420     1.0  0.99236  0.09592  0.75006  1.0000
  H   H2432     1.0  0.97043  0.09937  0.81966  1.0000
  H   H2433     1.0  0.99002  0.09498  0.72507  1.0000
  C   C1421     1.0  0.90497  0.02018  0.77200  1.0000
  C   C1422     1.0  0.90315  0.02535  0.74054  1.0000
  C   C1423     1.0  0.76448  0.30172  0.58931  1.0000
  H   H2434     1.0  0.90102  0.03903  0.73484  1.0000
  C   C1424     1.0  0.78850  0.27925  0.59051  1.0000
  C   C1425     1.0  0.86440  0.14953  0.65592  1.0000
  C   C1426     1.0  0.87181  0.15156  0.68585  1.0000
  C   C1427     1.0  0.87422  0.13708  0.70611  1.0000
  C   C1428     1.0  0.86948  0.12038  0.69638  1.0000
  C   C1429     1.0  0.86225  0.11830  0.66630  1.0000
  C   C1430     1.0  0.85967  0.13281  0.64615  1.0000
  H   H2435     1.0  0.87550  0.16447  0.69357  1.0000
  H   H2436     1.0  0.87947  0.13887  0.72944  1.0000
  H   H2437     1.0  0.85854  0.10539  0.65861  1.0000
  H   H2438     1.0  0.85419  0.13103  0.62299  1.0000
  C   C1431     1.0  0.85465  0.13438  0.94961  1.0000
  C   C1432     1.0  0.87168  0.14084  0.95147  1.0000
  C   C1433     1.0  0.88461  0.13570  0.92914  1.0000
  C   C1434     1.0  0.88076  0.12414  0.90438  1.0000
  C   C1435     1.0  0.86370  0.11777  0.90248  1.0000
  C   C1436     1.0  0.85081  0.12280  0.92495  1.0000
  H   H2439     1.0  0.87494  0.14977  0.97010  1.0000
  H   H2440     1.0  0.89773  0.14075  0.93096  1.0000
  H   H2441     1.0  0.86044  0.10885  0.88377  1.0000
  H   H2442     1.0  0.83773  0.11766  0.92313  1.0000
  H   H2443     1.0  0.80291  0.27700  0.58807  1.0000
  C   C1437     1.0  0.94835  0.04676  0.75517  1.0000
  H   H2444     1.0  0.81442  0.26129  0.50748  1.0000
  H   H2445     1.0  0.77788  0.17658  0.63642  1.0000
  C   C1438     1.0  0.83976  0.28026  0.56319  1.0000
  C   C1439     1.0  0.84468  0.26495  0.57970  1.0000
  C   C1440     1.0  0.83885  0.24836  0.57017  1.0000
  C   C1441     1.0  0.82791  0.24691  0.54408  1.0000
  C   C1442     1.0  0.82285  0.26224  0.52773  1.0000
  C   C1443     1.0  0.82886  0.27880  0.53702  1.0000
  H   H2446     1.0  0.85315  0.26592  0.59991  1.0000
  H   H2447     1.0  0.84287  0.23671  0.58299  1.0000
  H   H2448     1.0  0.80501  0.10672  0.60333  1.0000
  H   H2449     1.0  0.78201  0.11952  0.68567  1.0000
  C   C1444     1.0  0.80934  0.30293  0.63275  1.0000
  N   N102      1.0  0.84727  0.19287  0.92308  1.0000
  C   C1445     1.0  0.83762  0.17710  0.91111  1.0000
  C   C1446     1.0  0.86311  0.19506  0.90206  1.0000
  C   C1447     1.0  0.83519  0.20860  0.91966  1.0000
  C   C1448     1.0  0.85188  0.18981  0.95721  1.0000
  C   C1449     1.0  0.81962  0.17357  0.92632  1.0000
  H   H2450     1.0  0.87085  0.16808  0.88862  1.0000
  H   H2451     1.0  0.85428  0.23009  0.91410  1.0000
  C   C1450     1.0  0.78758  0.30447  0.53397  1.0000
  H   H2452     1.0  0.78957  0.14583  0.72624  1.0000
  H   H2453     1.0  0.84550  0.16489  0.91479  1.0000
  H   H2454     1.0  0.87077  0.20672  0.90812  1.0000
  H   H2455     1.0  0.79212  0.32255  0.57152  1.0000
  H   H2456     1.0  0.84557  0.22731  0.95386  1.0000
  H   H2457     1.0  0.82338  0.20722  0.93495  1.0000
  H   H2458     1.0  0.84027  0.19251  0.97257  1.0000
  H   H2459     1.0  0.76816  0.26249  0.61077  1.0000
  H   H2460     1.0  0.81518  0.16040  0.91906  1.0000
  H   H2461     1.0  0.82029  0.17340  0.95227  1.0000
  H   H2462     1.0  0.75727  0.21110  0.63283  1.0000
  H   H2463     1.0  0.79546  0.31253  0.51753  1.0000
  H   H2464     1.0  0.81659  0.13951  0.71831  1.0000
  C   C1451     1.0  0.80089  0.11812  0.61789  1.0000
  H   H2465     1.0  0.85521  0.17574  0.96129  1.0000
  H   H2466     1.0  0.82519  0.29041  0.52380  1.0000
  H   H2467     1.0  0.81807  0.31003  0.61640  1.0000
  H   H2468     1.0  0.88003  0.17519  0.92550  1.0000
  H   H2469     1.0  0.87111  0.21206  0.95724  1.0000
  H   H2470     1.0  0.95751  0.01823  0.71924  1.0000
  N   N103      1.0  0.92747  0.12250  0.67316  1.0000
  C   C1452     1.0  0.92953  0.10289  0.66915  1.0000
  C   C1453     1.0  0.94497  0.13040  0.66529  1.0000
  C   C1454     1.0  0.91372  0.12891  0.65021  1.0000
  C   C1455     1.0  0.92182  0.12588  0.70670  1.0000
  C   C1456     1.0  0.91244  0.09232  0.66978  1.0000
  C   C1457     1.0  0.96016  0.12521  0.68745  1.0000
  C   C1458     1.0  0.91293  0.14870  0.64279  1.0000
  C   C1459     1.0  0.92201  0.14498  0.71853  1.0000
  H   H2471     1.0  0.93623  0.09972  0.64645  1.0000
  H   H2472     1.0  0.93799  0.09711  0.68792  1.0000
  H   H2473     1.0  0.94440  0.14489  0.66498  1.0000
  H   H2474     1.0  0.94902  0.12682  0.64087  1.0000
  H   H2475     1.0  0.91555  0.12234  0.62701  1.0000
  H   H2476     1.0  0.90040  0.12530  0.65852  1.0000
  H   H2477     1.0  0.90827  0.12120  0.71078  1.0000
  H   H2478     1.0  0.92969  0.11783  0.72351  1.0000
  H   H2479     1.0  0.91577  0.07810  0.66946  1.0000
  H   H2480     1.0  0.90464  0.09472  0.69135  1.0000
  H   H2481     1.0  0.90417  0.09504  0.64888  1.0000
  H   H2482     1.0  0.96341  0.11103  0.68641  1.0000
  H   H2483     1.0  0.97215  0.13224  0.68006  1.0000
  H   H2484     1.0  0.95736  0.12901  0.71216  1.0000
  H   H2485     1.0  0.92452  0.15296  0.62905  1.0000
  H   H2486     1.0  0.91117  0.15687  0.66394  1.0000
  H   H2487     1.0  0.90133  0.15143  0.62772  1.0000
  H   H2488     1.0  0.90878  0.15114  0.71690  1.0000
  H   H2489     1.0  0.93152  0.15348  0.70657  1.0000
  H   H2490     1.0  0.92592  0.14501  0.74369  1.0000
  H   H2491     1.0  0.81315  0.28886  0.63331  1.0000
  C   C1460     1.0  0.84268  0.22653  0.92839  1.0000
  H   H2492     1.0  0.78710  0.32026  0.62537  1.0000
  H   H2493     1.0  0.76811  0.14130  0.71468  1.0000
  H   H2494     1.0  0.86384  0.20495  0.99459  1.0000
  S   S420      1.0  0.82666  0.33480  0.51306  1.0000
  H   H2495     1.0  0.81953  0.17573  0.66191  1.0000
  C   C1461     1.0  0.87616  0.17941  0.90154  1.0000
  H   H2496     1.0  0.78239  0.30052  0.64494  1.0000
  H   H2497     1.0  0.80768  0.16734  0.69482  1.0000
  C   C1462     1.0  0.78161  0.26683  0.61628  1.0000
  H   H2498     1.0  0.83252  0.23679  0.92383  1.0000
  H   H2499     1.0  0.97764  0.05879  0.78752  1.0000
  H   H2500     1.0  0.90250  0.01696  0.69209  1.0000
  H   H2501     1.0  0.82393  0.14587  0.64047  1.0000
  C   C1463     1.0  0.81762  0.12862  0.70125  1.0000
  C   C1464     1.0  0.90399  0.01277  0.71630  1.0000
  C   C1465     1.0  0.86737  0.20028  0.97062  1.0000
  H   H2502     1.0  0.80472  0.12999  0.60471  1.0000
  C   C1466     1.0  0.99871  0.09883  0.81426  1.0000
  H   H2503     1.0  0.98533  0.02278  0.77631  1.0000
  C   C1467     1.0  0.81764  0.16394  0.67683  1.0000
  N   N104      1.0  0.78393  0.29844  0.59375  1.0000
  H   H2504     1.0  0.96123  0.01401  0.80647  1.0000
  H   H2505     1.0  0.81187  0.30826  0.65654  1.0000
  H   H2506     1.0  0.95144  0.05840  0.76935  1.0000
  C   C1468     1.0  0.79349  0.30817  0.56800  1.0000
  H   H2507     1.0  0.93866  0.01515  0.74296  1.0000
  C   C1469     1.0  0.76214  0.15991  0.60778  1.0000
  H   H2508     1.0  0.83551  0.17809  0.88522  1.0000
  H   H2509     1.0  0.98243  0.03060  0.73724  1.0000
  H   H2510     1.0  0.93411  0.04479  0.75946  1.0000
  N   N105      1.0  0.95866  0.03067  0.76515  1.0000
  H   H2511     1.0  0.77371  0.30836  0.52992  1.0000
  H   H2512     1.0  0.78336  0.27405  0.56805  1.0000
  H   H2513     1.0  0.94490  0.06558  0.71698  1.0000
  H   H2514     1.0  0.00107  0.10020  0.83919  1.0000
  H   H2515     1.0  0.79042  0.25512  0.61756  1.0000
  C   C1470     1.0  0.76524  0.17058  0.63379  1.0000
  H   H2516     1.0  0.97039  0.04182  0.82833  1.0000
  H   H2517     1.0  0.76199  0.31528  0.58045  1.0000
  C   C1471     1.0  0.95630  0.03957  0.82402  1.0000
  H   H2518     1.0  0.96447  0.05260  0.71301  1.0000
  H   H2519     1.0  0.94318  0.04342  0.70466  1.0000
  C   C1472     1.0  0.78723  0.13268  0.67977  1.0000
  C   C1473     1.0  0.95365  0.02572  0.79839  1.0000
  H   H2520     1.0  0.78640  0.11777  0.61987  1.0000
  H   H2521     1.0  0.95073  0.03456  0.84649  1.0000
  C   C1474     1.0  0.95054  0.05221  0.72037  1.0000
  H   H2522     1.0  0.79976  0.11078  0.72660  1.0000
  C   C1475     1.0  0.97824  0.03288  0.76207  1.0000
  H   H2523     1.0  0.87906  0.19161  0.97379  1.0000
  H   H2524     1.0  0.80191  0.15345  0.63964  1.0000
  C   C1476     1.0  0.81229  0.14849  0.65585  1.0000
  C   C1477     1.0  0.80989  0.11676  0.65026  1.0000
  H   H2525     1.0  0.83032  0.20965  0.89503  1.0000
  H   H2526     1.0  0.94923  0.05203  0.81910  1.0000
  H   H2527     1.0  0.88829  0.18328  0.88887  1.0000
  H   H2528     1.0  0.85894  0.19752  0.87731  1.0000
  H   H2529     1.0  0.82423  0.11494  0.64580  1.0000
  N   N106      1.0  0.80659  0.13190  0.67238  1.0000
  H   H2530     1.0  0.93964  0.02192  0.79946  1.0000
  H   H2531     1.0  0.77968  0.13650  0.65840  1.0000
  H   H2532     1.0  0.81814  0.09986  0.70690  1.0000
  H   H2533     1.0  0.80780  0.30530  0.56863  1.0000
  H   H2534     1.0  0.78187  0.27246  0.64016  1.0000
  H   H2535     1.0  0.82148  0.11177  0.74202  1.0000
  C   C1478     1.0  0.78101  0.14559  0.70540  1.0000
  C   C1479     1.0  0.81377  0.11173  0.71990  1.0000
  H   H2536     1.0  0.80534  0.10424  0.66073  1.0000
  H   H2537     1.0  0.83043  0.16121  0.68833  1.0000
  C   C1480     1.0  0.95319  0.01590  0.74395  1.0000
  H   H2538     1.0  0.77937  0.15901  0.69568  1.0000
  C   C1481     1.0  0.98564  0.05096  0.77089  1.0000
  H   H2539     1.0  0.98813  0.05885  0.74935  1.0000
  H   H2540     1.0  0.78986  0.29064  0.52716  1.0000
  H   H2541     1.0  0.99867  0.04908  0.78204  1.0000
  H   H2542     1.0  0.88446  0.11040  0.98993  1.0000
  H   H2543     1.0  0.75923  0.29294  0.57090  1.0000
  H   H2544     1.0  0.87584  0.08906  0.99493  1.0000
  Fe  Fe211     1.0  0.84444  0.35543  0.02446  1.0000
  S   S421      1.0  0.86264  0.36219  0.46439  1.0000
  H   H2545     1.0  0.78818  0.59543  0.43809  1.0000
  H   H2546     1.0  0.84017  0.37344  0.36146  1.0000
  Fe  Fe212     1.0  0.83999  0.36326  0.09487  1.0000
  S   S422      1.0  0.84484  0.38363  0.13300  1.0000
  S   S423      1.0  0.82568  0.37296  0.05157  1.0000
  Fe  Fe213     1.0  0.94810  0.59195  0.16371  1.0000
  S   S424      1.0  0.92820  0.58178  0.12961  1.0000
  S   S425      1.0  0.97638  0.58241  0.15563  1.0000
  Fe  Fe214     1.0  0.91908  0.60780  0.20614  1.0000
  S   S426      1.0  0.89731  0.59876  0.17494  1.0000
  S   S427      1.0  0.91683  0.62024  0.25475  1.0000
  Fe  Fe215     1.0  0.91302  0.57334  0.17262  1.0000
  S   S428      1.0  0.90129  0.54598  0.17601  1.0000
  Fe  Fe216     1.0  0.91422  0.60793  0.13421  1.0000
  S   S429      1.0  0.90701  0.62591  0.09197  1.0000
  S   S430      1.0  0.93356  0.58187  0.20608  1.0000
  S   S431      1.0  0.93528  0.61863  0.16610  1.0000
  Fe  Fe217     1.0  0.91490  0.41803  0.25533  1.0000
  S   S432      1.0  0.89503  0.43715  0.27545  1.0000
  S   S433      1.0  0.91277  0.39864  0.21478  1.0000
  Fe  Fe218     1.0  0.94240  0.42648  0.30489  1.0000
  S   S434      1.0  0.92422  0.44567  0.32906  1.0000
  S   S435      1.0  0.96935  0.41950  0.32493  1.0000
  Fe  Fe219     1.0  0.90291  0.42586  0.32296  1.0000
  S   S436      1.0  0.88120  0.42066  0.35999  1.0000
  Fe  Fe220     1.0  0.91787  0.45553  0.28013  1.0000
  S   S437      1.0  0.92040  0.48540  0.27518  1.0000
  S   S438      1.0  0.92156  0.40594  0.30230  1.0000
  S   S439      1.0  0.93722  0.43711  0.25653  1.0000
  Fe  Fe221     1.0  0.84250  0.65921  0.37294  1.0000
  S   S440      1.0  0.82666  0.64116  0.40344  1.0000
  S   S441      1.0  0.84858  0.65188  0.32198  1.0000
  N   N107      1.0  0.79710  0.61995  0.48945  1.0000
  H   H2547     1.0  0.79208  0.61727  0.42190  1.0000
  Fe  Fe222     1.0  0.84336  0.65044  0.44392  1.0000
  C   C1482     1.0  0.00529  0.41669  0.32029  1.0000
  C   C1483     1.0  0.85477  0.36800  0.23318  1.0000
  H   H2548     1.0  0.85717  0.55746  0.20704  1.0000
  C   C1484     1.0  0.98594  0.53270  0.16274  1.0000
  C   C1485     1.0  0.98982  0.42283  0.30582  1.0000
  H   H2549     1.0  0.78132  0.64946  0.35174  1.0000
  C   C1486     1.0  0.99093  0.43045  0.27589  1.0000
  H   H2550     1.0  0.90375  0.37602  0.27375  1.0000
  H   H2551     1.0  0.97920  0.43547  0.26468  1.0000
  C   C1487     1.0  0.99680  0.59230  0.16360  1.0000
  Fe  Fe223     1.0  0.80868  0.34918  0.05842  1.0000
  N   N108      1.0  0.85868  0.38260  0.28740  1.0000
  H   H2552     1.0  0.98634  0.61778  0.17532  1.0000
  C   C1488     1.0  0.00393  0.52606  0.17475  1.0000
  C   C1489     1.0  0.89757  0.62853  0.27323  1.0000
  C   C1490     1.0  0.88180  0.63057  0.25699  1.0000
  C   C1491     1.0  0.86687  0.63746  0.27251  1.0000
  C   C1492     1.0  0.86745  0.64211  0.30447  1.0000
  C   C1493     1.0  0.88315  0.63980  0.32087  1.0000
  C   C1494     1.0  0.89817  0.63317  0.30521  1.0000
  H   H2553     1.0  0.88118  0.62712  0.23236  1.0000
  H   H2554     1.0  0.85480  0.63934  0.25959  1.0000
  H   H2555     1.0  0.88378  0.64331  0.34546  1.0000
  H   H2556     1.0  0.91032  0.63156  0.31796  1.0000
  C   C1495     1.0  0.89110  0.62774  0.06127  1.0000
  C   C1496     1.0  0.89299  0.64098  0.03828  1.0000
  C   C1497     1.0  0.91594  0.42122  0.05622  1.0000
  C   C1498     1.0  0.86606  0.63246  0.01214  1.0000
  C   C1499     1.0  0.86428  0.61907  0.03483  1.0000
  C   C1500     1.0  0.87666  0.61672  0.05920  1.0000
  H   H2557     1.0  0.90416  0.64951  0.03941  1.0000
  S   S442      1.0  0.82169  0.34088  0.10309  1.0000
  H   H2558     1.0  0.76013  0.59418  0.48845  1.0000
  H   H2559     1.0  0.87496  0.60646  0.07655  1.0000
  C   C1501     1.0  0.90686  0.52920  0.20357  1.0000
  C   C1502     1.0  0.90032  0.51224  0.19937  1.0000
  C   C1503     1.0  0.90439  0.49858  0.22079  1.0000
  C   C1504     1.0  0.91490  0.50182  0.24693  1.0000
  C   C1505     1.0  0.92133  0.51881  0.25118  1.0000
  C   C1506     1.0  0.91741  0.53240  0.22964  1.0000
  H   H2560     1.0  0.89209  0.50961  0.17936  1.0000
  H   H2561     1.0  0.89930  0.48561  0.21723  1.0000
  H   H2562     1.0  0.92945  0.52146  0.27134  1.0000
  H   H2563     1.0  0.92254  0.54533  0.23328  1.0000
  C   C1507     1.0  0.86762  0.37882  0.43587  1.0000
  C   C1508     1.0  0.88258  0.37668  0.41652  1.0000
  C   C1509     1.0  0.88715  0.38939  0.39364  1.0000
  C   C1510     1.0  0.87673  0.40448  0.38959  1.0000
  C   C1511     1.0  0.86171  0.40658  0.40881  1.0000
  C   C1512     1.0  0.85720  0.39391  0.43177  1.0000
  H   H2564     1.0  0.89077  0.36508  0.41932  1.0000
  H   H2565     1.0  0.89869  0.38746  0.37909  1.0000
  H   H2566     1.0  0.85341  0.41807  0.40575  1.0000
  H   H2567     1.0  0.84547  0.39566  0.44589  1.0000
  C   C1513     1.0  0.86414  0.38785  0.15453  1.0000
  C   C1514     1.0  0.86401  0.40189  0.17584  1.0000
  C   C1515     1.0  0.87883  0.40550  0.19418  1.0000
  C   C1516     1.0  0.89397  0.39505  0.19143  1.0000
  C   C1517     1.0  0.89419  0.38115  0.16979  1.0000
  C   C1518     1.0  0.87936  0.37755  0.15141  1.0000
  H   H2568     1.0  0.85232  0.40998  0.17828  1.0000
  H   H2569     1.0  0.87852  0.41634  0.21047  1.0000
  H   H2570     1.0  0.90583  0.37297  0.16752  1.0000
  H   H2571     1.0  0.87960  0.36666  0.13522  1.0000
  H   H2572     1.0  0.85312  0.61053  0.03378  1.0000
  H   H2573     1.0  0.80774  0.60010  0.41709  1.0000
  S   S443      1.0  0.85932  0.34658  0.06793  1.0000
  H   H2574     1.0  0.87851  0.39225  0.25512  1.0000
  C   C1519     1.0  0.97187  0.36913  0.21559  1.0000
  H   H2575     1.0  0.82371  0.65686  0.03444  1.0000
  Fe  Fe224     1.0  0.80908  0.66457  0.41199  1.0000
  C   C1520     1.0  0.98260  0.36293  0.18674  1.0000
  H   H2576     1.0  0.95773  0.36920  0.20920  1.0000
  H   H2577     1.0  0.94459  0.51842  0.13509  1.0000
  H   H2578     1.0  0.85012  0.35565  0.22258  1.0000
  H   H2579     1.0  0.78007  0.63441  0.45703  1.0000
  C   C1521     1.0  0.91103  0.40282  0.04447  1.0000
  H   H2580     1.0  0.84675  0.37876  0.22276  1.0000
  H   H2581     1.0  0.89642  0.37382  0.49305  1.0000
  H   H2582     1.0  0.85498  0.40975  0.04158  1.0000
  H   H2583     1.0  0.96519  0.40396  0.26442  1.0000
  N   N109      1.0  0.97705  0.38611  0.23059  1.0000
  H   H2584     1.0  0.95454  0.39327  0.17816  1.0000
  H   H2585     1.0  0.87567  0.57154  0.20084  1.0000
  C   C1522     1.0  0.99811  0.60984  0.17254  1.0000
  H   H2586     1.0  0.88749  0.36018  0.26736  1.0000
  H   H2587     1.0  0.99416  0.35494  0.19413  1.0000
  H   H2588     1.0  0.84745  0.67119  0.00676  1.0000
  C   C1523     1.0  0.83913  0.37541  0.33558  1.0000
  C   C1524     1.0  0.78968  0.63675  0.47586  1.0000
  C   C1525     1.0  0.88584  0.40327  0.00735  1.0000
  H   H2589     1.0  0.78270  0.35134  0.12323  1.0000
  H   H2590     1.0  0.99646  0.37128  0.25738  1.0000
  C   C1526     1.0  0.86103  0.40574  0.06419  1.0000
  H   H2591     1.0  0.87553  0.37611  0.03979  1.0000
  H   H2592     1.0  0.98689  0.37363  0.17109  1.0000
  H   H2593     1.0  0.86863  0.36940  0.22578  1.0000
  H   H2594     1.0  0.96636  0.56095  0.21539  1.0000
  C   C1527     1.0  0.76927  0.34795  0.11844  1.0000
  H   H2595     1.0  0.84106  0.42543  0.28937  1.0000
  H   H2596     1.0  0.81918  0.61827  0.45745  1.0000
  C   C1528     1.0  0.97710  0.55192  0.22263  1.0000
  C   C1529     1.0  0.79800  0.60573  0.43393  1.0000
  H   H2597     1.0  0.98055  0.41350  0.21977  1.0000
  C   C1530     1.0  0.96364  0.39032  0.25591  1.0000
  H   H2598     1.0  0.85386  0.57969  0.19496  1.0000
  H   H2599     1.0  0.96121  0.41543  0.17305  1.0000
  H   H2600     1.0  0.85408  0.66274  0.04351  1.0000
  H   H2601     1.0  0.89938  0.36858  0.00120  1.0000
  H   H2602     1.0  0.98692  0.39964  0.18884  1.0000
  H   H2603     1.0  0.83830  0.36482  0.27358  1.0000
  N   N110      1.0  0.97025  0.52771  0.18238  1.0000
  C   C1531     1.0  0.95436  0.53741  0.16990  1.0000
  C   C1532     1.0  0.97262  0.53260  0.21640  1.0000
  C   C1533     1.0  0.96807  0.50815  0.18043  1.0000
  H   H2604     1.0  0.85464  0.41374  0.08292  1.0000
  C   C1534     1.0  0.76774  0.65267  0.35683  1.0000
  H   H2605     1.0  0.95005  0.38986  0.24653  1.0000
  C   C1535     1.0  0.95150  0.50081  0.19636  1.0000
  C   C1536     1.0  0.76320  0.66033  0.38567  1.0000
  H   H2606     1.0  0.94298  0.53599  0.18598  1.0000
  H   H2607     1.0  0.95666  0.55172  0.16897  1.0000
  C   C1537     1.0  0.76409  0.34489  0.08745  1.0000
  H   H2608     1.0  0.96043  0.53008  0.23013  1.0000
  H   H2609     1.0  0.96826  0.50370  0.15553  1.0000
  H   H2610     1.0  0.97929  0.50116  0.19173  1.0000
  C   C1538     1.0  0.95935  0.40489  0.19081  1.0000
  H   H2611     1.0  0.89757  0.35347  0.03283  1.0000
  H   H2612     1.0  0.91261  0.42272  0.08157  1.0000
  S   S444      1.0  0.86040  0.66699  0.41230  1.0000
  H   H2613     1.0  0.98944  0.55598  0.21101  1.0000
  S   S445      1.0  0.77878  0.34702  0.05495  1.0000
  C   C1539     1.0  0.80760  0.61042  0.46445  1.0000
  S   S446      1.0  0.85338  0.62898  0.47842  1.0000
  H   H2614     1.0  0.93924  0.50650  0.18658  1.0000
  H   H2615     1.0  0.95171  0.50260  0.22222  1.0000
  H   H2616     1.0  0.95105  0.48646  0.19232  1.0000
  H   H2617     1.0  0.89253  0.43975  0.48356  1.0000
  H   H2618     1.0  0.85910  0.35469  0.27767  1.0000
  H   H2619     1.0  0.98470  0.52772  0.13832  1.0000
  N   N111      1.0  0.87381  0.56887  0.26703  1.0000
  C   C1540     1.0  0.86069  0.57699  0.24451  1.0000
  C   C1541     1.0  0.86794  0.57382  0.29982  1.0000
  C   C1542     1.0  0.87308  0.54924  0.26323  1.0000
  C   C1543     1.0  0.89179  0.57558  0.25861  1.0000
  C   C1544     1.0  0.86210  0.57095  0.20997  1.0000
  C   C1545     1.0  0.86698  0.59364  0.30653  1.0000
  C   C1546     1.0  0.88333  0.53791  0.28710  1.0000
  C   C1547     1.0  0.90604  0.57465  0.28441  1.0000
  H   H2620     1.0  0.84700  0.57437  0.25237  1.0000
  H   H2621     1.0  0.86181  0.59152  0.24394  1.0000
  H   H2622     1.0  0.87643  0.56797  0.31819  1.0000
  H   H2623     1.0  0.85472  0.56843  0.30488  1.0000
  H   H2624     1.0  0.85922  0.54484  0.26426  1.0000
  H   H2625     1.0  0.87819  0.54525  0.23968  1.0000
  H   H2626     1.0  0.89711  0.56868  0.23751  1.0000
  H   H2627     1.0  0.89089  0.58963  0.25141  1.0000
  H   H2628     1.0  0.87947  0.60011  0.30084  1.0000
  H   H2629     1.0  0.85611  0.60023  0.29367  1.0000
  H   H2630     1.0  0.86438  0.59575  0.33200  1.0000
  H   H2631     1.0  0.88165  0.52389  0.28098  1.0000
  H   H2632     1.0  0.87840  0.53945  0.31152  1.0000
  H   H2633     1.0  0.89758  0.54019  0.28575  1.0000
  H   H2634     1.0  0.91853  0.56978  0.27382  1.0000
  H   H2635     1.0  0.90328  0.56613  0.30477  1.0000
  H   H2636     1.0  0.90888  0.58799  0.29316  1.0000
  H   H2637     1.0  0.97888  0.55376  0.24832  1.0000
  H   H2638     1.0  0.93651  0.54025  0.13065  1.0000
  C   C1548     1.0  0.88094  0.40886  0.06471  1.0000
  H   H2639     1.0  0.91838  0.40033  0.02213  1.0000
  H   H2640     1.0  0.75834  0.39854  0.10291  1.0000
  H   H2641     1.0  0.87448  0.39554  0.49355  1.0000
  H   H2642     1.0  0.85788  0.39196  0.06967  1.0000
  H   H2643     1.0  0.90963  0.43202  0.04288  1.0000
  H   H2644     1.0  0.80022  0.64425  0.46396  1.0000
  C   C1549     1.0  0.97689  0.40123  0.20758  1.0000
  C   C1550     1.0  0.84963  0.41476  0.29874  1.0000
  H   H2645     1.0  0.88246  0.42323  0.06257  1.0000
  H   H2646     1.0  0.89249  0.36728  0.30702  1.0000
  C   C1551     1.0  0.76552  0.60754  0.48576  1.0000
  H   H2647     1.0  0.99602  0.39401  0.26534  1.0000
  H   H2648     1.0  0.83012  0.38674  0.33191  1.0000
  C   C1552     1.0  0.88911  0.37977  0.04590  1.0000
  C   C1553     1.0  0.90117  0.36716  0.02694  1.0000
  H   H2649     1.0  0.83308  0.39473  0.28010  1.0000
  H   H2650     1.0  0.98669  0.54714  0.16015  1.0000
  H   H2651     1.0  0.96140  0.36445  0.27950  1.0000
  H   H2652     1.0  0.84587  0.41281  0.32374  1.0000
  H   H2653     1.0  0.98291  0.52424  0.22767  1.0000
  C   C1554     1.0  0.88067  0.64326  0.01381  1.0000
  H   H2654     1.0  0.95335  0.38262  0.30169  1.0000
  H   H2655     1.0  0.97289  0.35821  0.23292  1.0000
  C   C1555     1.0  0.84720  0.39814  0.27884  1.0000
  S   S447      1.0  0.77903  0.66447  0.41548  1.0000
  C   C1556     1.0  0.85764  0.37853  0.32210  1.0000
  C   C1557     1.0  0.87742  0.38683  0.27934  1.0000
  C   C1558     1.0  0.89079  0.37152  0.28222  1.0000
  H   H2656     1.0  0.91521  0.36851  0.03282  1.0000
  H   H2657     1.0  0.86364  0.38910  0.33606  1.0000
  H   H2658     1.0  0.86549  0.36656  0.32788  1.0000
  H   H2659     1.0  0.84955  0.40217  0.25396  1.0000
  H   H2660     1.0  0.95845  0.53536  0.11855  1.0000
  C   C1559     1.0  0.94839  0.53233  0.13662  1.0000
  H   H2661     1.0  0.88230  0.39736  0.29485  1.0000
  H   H2662     1.0  0.94917  0.40977  0.20741  1.0000
  H   H2663     1.0  0.86323  0.41951  0.29759  1.0000
  C   C1560     1.0  0.85252  0.36694  0.26930  1.0000
  N   N112      1.0  0.89175  0.39910  0.04040  1.0000
  H   H2664     1.0  0.93035  0.42279  0.05398  1.0000
  C   C1561     1.0  0.99483  0.38436  0.24597  1.0000
  C   C1562     1.0  0.96392  0.37829  0.28529  1.0000
  H   H2665     1.0  0.83329  0.36339  0.32590  1.0000
  H   H2666     1.0  0.85755  0.66717  0.09433  1.0000
  H   H2667     1.0  0.89075  0.37638  0.07130  1.0000
  H   H2668     1.0  0.91697  0.39373  0.06221  1.0000
  C   C1563     1.0  0.82705  0.67050  0.04094  1.0000
  H   H2669     1.0  0.88555  0.40537  0.08885  1.0000
  H   H2670     1.0  0.97631  0.37932  0.29863  1.0000
  H   H2671     1.0  0.81299  0.59780  0.47361  1.0000
  H   H2672     1.0  0.76612  0.61023  0.46023  1.0000
  H   H2673     1.0  0.82443  0.67180  0.06649  1.0000
  H   H2674     1.0  0.00458  0.41080  0.34347  1.0000
  H   H2675     1.0  0.97418  0.35471  0.17173  1.0000
  C   C1564     1.0  0.89080  0.42561  0.48887  1.0000
  H   H2676     1.0  0.00476  0.51158  0.17621  1.0000
  H   H2677     1.0  0.77300  0.65937  0.48634  1.0000
  H   H2678     1.0  0.87811  0.43111  0.01254  1.0000
  H   H2679     1.0  0.75831  0.64279  0.31255  1.0000
  H   H2680     1.0  0.76104  0.34984  0.16707  1.0000
  H   H2681     1.0  0.88251  0.65337  0.99631  1.0000
  H   H2682     1.0  0.87880  0.42170  0.47653  1.0000
  H   H2683     1.0  0.87223  0.39873  0.00382  1.0000
  H   H2684     1.0  0.90233  0.41888  0.47801  1.0000
  C   C1565     1.0  0.75693  0.34712  0.14329  1.0000
  C   C1566     1.0  0.88628  0.42258  0.99715  1.0000
  H   H2685     1.0  0.87002  0.38277  0.52675  1.0000
  H   H2686     1.0  0.94514  0.39853  0.70973  1.0000
  Fe  Fe225     1.0  0.80949  0.35274  0.54275  1.0000
  H   H2687     1.0  0.93899  0.33951  0.74475  1.0000
  Fe  Fe226     1.0  0.84080  0.36695  0.57870  1.0000
  S   S448      1.0  0.84597  0.38845  0.61453  1.0000
  S   S449      1.0  0.82700  0.37596  0.53439  1.0000
  Fe  Fe227     1.0  0.94128  0.58770  0.66617  1.0000
  S   S450      1.0  0.91940  0.57693  0.63695  1.0000
  S   S451      1.0  0.96862  0.58406  0.64417  1.0000
  Fe  Fe228     1.0  0.91515  0.60123  0.71617  1.0000
  S   S452      1.0  0.89168  0.59153  0.69021  1.0000
  S   S453      1.0  0.91523  0.61746  0.76110  1.0000
  Fe  Fe229     1.0  0.90838  0.56701  0.68302  1.0000
  S   S454      1.0  0.89758  0.53923  0.68416  1.0000
  Fe  Fe230     1.0  0.90453  0.60214  0.64600  1.0000
  S   S455      1.0  0.89305  0.62303  0.61176  1.0000
  S   S456      1.0  0.93116  0.57617  0.71154  1.0000
  S   S457      1.0  0.92708  0.61336  0.67293  1.0000
  Fe  Fe231     1.0  0.90823  0.41168  0.76128  1.0000
  S   S458      1.0  0.88960  0.43126  0.78370  1.0000
  S   S459      1.0  0.90498  0.39284  0.72006  1.0000
  Fe  Fe232     1.0  0.93737  0.41864  0.80838  1.0000
  S   S460      1.0  0.92074  0.43838  0.83441  1.0000
  S   S461      1.0  0.96447  0.41059  0.82655  1.0000
  Fe  Fe233     1.0  0.89839  0.41965  0.83046  1.0000
  S   S462      1.0  0.87825  0.41757  0.87130  1.0000
  Fe  Fe234     1.0  0.91318  0.44873  0.78645  1.0000
  S   S463      1.0  0.91452  0.47870  0.78470  1.0000
  S   S464      1.0  0.91555  0.39903  0.80773  1.0000
  S   S465      1.0  0.93128  0.42994  0.76082  1.0000
  Fe  Fe235     1.0  0.84177  0.66327  0.87387  1.0000
  S   S466      1.0  0.82481  0.64633  0.90456  1.0000
  S   S467      1.0  0.84757  0.65145  0.82560  1.0000
  H   H2688     1.0  0.88701  0.43572  0.53603  1.0000
  H   H2689     1.0  0.84374  0.61770  0.86758  1.0000
  H   H2690     1.0  0.89324  0.63685  0.71385  1.0000
  H   H2691     1.0  0.91139  0.58508  0.90354  1.0000
  C   C1567     1.0  0.76399  0.35126  0.56798  1.0000
  H   H2692     1.0  0.84984  0.59962  0.89202  1.0000
  H   H2693     1.0  0.89307  0.64155  0.67354  1.0000
  C   C1568     1.0  0.98497  0.41508  0.80828  1.0000
  H   H2694     1.0  0.90061  0.37511  0.53414  1.0000
  C   C1569     1.0  0.98609  0.42252  0.77820  1.0000
  H   H2695     1.0  0.90936  0.67005  0.68386  1.0000
  H   H2696     1.0  0.97429  0.42680  0.76629  1.0000
  C   C1570     1.0  0.98918  0.59113  0.65841  1.0000
  C   C1571     1.0  0.99058  0.60201  0.68461  1.0000
  H   H2697     1.0  0.97574  0.61017  0.59304  1.0000
  H   H2698     1.0  0.97886  0.60635  0.69695  1.0000
  C   C1572     1.0  0.90066  0.64301  0.90743  1.0000
  C   C1573     1.0  0.89630  0.62534  0.78107  1.0000
  C   C1574     1.0  0.87946  0.62035  0.77240  1.0000
  C   C1575     1.0  0.86468  0.62797  0.78726  1.0000
  C   C1576     1.0  0.86656  0.64054  0.81101  1.0000
  C   C1577     1.0  0.88340  0.64522  0.82021  1.0000
  C   C1578     1.0  0.89820  0.63757  0.80541  1.0000
  H   H2699     1.0  0.87783  0.61088  0.75384  1.0000
  H   H2700     1.0  0.85168  0.62435  0.77991  1.0000
  H   H2701     1.0  0.88501  0.65525  0.83776  1.0000
  H   H2702     1.0  0.91119  0.64158  0.81210  1.0000
  C   C1579     1.0  0.88203  0.62427  0.57459  1.0000
  C   C1580     1.0  0.87815  0.64088  0.56146  1.0000
  C   C1581     1.0  0.86949  0.64264  0.53219  1.0000
  C   C1582     1.0  0.86460  0.62777  0.51541  1.0000
  C   C1583     1.0  0.86852  0.61117  0.52854  1.0000
  C   C1584     1.0  0.87710  0.60940  0.55786  1.0000
  H   H2703     1.0  0.88187  0.65252  0.57399  1.0000
  H   H2704     1.0  0.77982  0.61279  0.52765  1.0000
  H   H2705     1.0  0.92153  0.59964  0.87554  1.0000
  H   H2706     1.0  0.87985  0.59652  0.56749  1.0000
  C   C1585     1.0  0.90333  0.52231  0.71141  1.0000
  C   C1586     1.0  0.89806  0.50502  0.70563  1.0000
  C   C1587     1.0  0.90187  0.49134  0.72717  1.0000
  C   C1588     1.0  0.91080  0.49487  0.75504  1.0000
  C   C1589     1.0  0.91602  0.51215  0.76082  1.0000
  C   C1590     1.0  0.91246  0.52575  0.73909  1.0000
  H   H2707     1.0  0.89095  0.50221  0.68435  1.0000
  H   H2708     1.0  0.89765  0.47817  0.72245  1.0000
  H   H2709     1.0  0.92284  0.51506  0.78236  1.0000
  H   H2710     1.0  0.91652  0.53896  0.74398  1.0000
  C   C1591     1.0  0.86602  0.37716  0.95052  1.0000
  C   C1592     1.0  0.88050  0.37454  0.93019  1.0000
  C   C1593     1.0  0.88442  0.38662  0.90585  1.0000
  C   C1594     1.0  0.87393  0.40163  0.90144  1.0000
  C   C1595     1.0  0.85952  0.40433  0.92191  1.0000
  C   C1596     1.0  0.85555  0.39221  0.94617  1.0000
  H   H2711     1.0  0.88875  0.36301  0.93321  1.0000
  H   H2712     1.0  0.89555  0.38428  0.89047  1.0000
  H   H2713     1.0  0.85125  0.41583  0.91884  1.0000
  H   H2714     1.0  0.84437  0.39449  0.96146  1.0000
  C   C1597     1.0  0.86205  0.38893  0.64457  1.0000
  C   C1598     1.0  0.86171  0.40288  0.66610  1.0000
  C   C1599     1.0  0.87461  0.40422  0.68957  1.0000
  C   C1600     1.0  0.88808  0.39165  0.69159  1.0000
  C   C1601     1.0  0.88846  0.37773  0.66997  1.0000
  C   C1602     1.0  0.87549  0.37632  0.64665  1.0000
  H   H2715     1.0  0.85142  0.41275  0.66458  1.0000
  H   H2716     1.0  0.87419  0.41502  0.70594  1.0000
  H   H2717     1.0  0.89882  0.36794  0.67132  1.0000
  H   H2718     1.0  0.87595  0.36556  0.63021  1.0000
  H   H2719     1.0  0.98934  0.35589  0.78843  1.0000
  C   C1603     1.0  0.87575  0.66541  0.73467  1.0000
  H   H2720     1.0  0.90159  0.59190  0.95424  1.0000
  H   H2721     1.0  0.97608  0.61756  0.50800  1.0000
  C   C1604     1.0  0.90920  0.65865  0.70007  1.0000
  C   C1605     1.0  0.88620  0.41676  0.59587  1.0000
  H   H2722     1.0  0.81161  0.59928  0.53972  1.0000
  C   C1606     1.0  0.99720  0.54675  0.69311  1.0000
  C   C1607     1.0  0.87939  0.39255  0.51737  1.0000
  H   H2723     1.0  0.89258  0.42905  0.58843  1.0000
  H   H2724     1.0  0.87268  0.41958  0.60437  1.0000
  H   H2725     1.0  0.89351  0.41156  0.61656  1.0000
  H   H2726     1.0  0.89099  0.65071  0.89363  1.0000
  C   C1608     1.0  0.85035  0.42035  0.51391  1.0000
  N   N113      1.0  0.86642  0.47528  0.83882  1.0000
  C   C1609     1.0  0.85988  0.45682  0.84299  1.0000
  C   C1610     1.0  0.88532  0.47507  0.84904  1.0000
  C   C1611     1.0  0.85489  0.48749  0.85799  1.0000
  C   C1612     1.0  0.84128  0.45316  0.83088  1.0000
  C   C1613     1.0  0.88865  0.46971  0.88356  1.0000
  H   H2727     1.0  0.86888  0.44727  0.83126  1.0000
  H   H2728     1.0  0.85979  0.45296  0.86828  1.0000
  H   H2729     1.0  0.89177  0.48777  0.84501  1.0000
  H   H2730     1.0  0.89309  0.46576  0.83425  1.0000
  H   H2731     1.0  0.85093  0.48095  0.88040  1.0000
  H   H2732     1.0  0.83723  0.44010  0.83979  1.0000
  H   H2733     1.0  0.83143  0.46288  0.83933  1.0000
  H   H2734     1.0  0.84104  0.45232  0.80482  1.0000
  H   H2735     1.0  0.88723  0.45537  0.88693  1.0000
  H   H2736     1.0  0.90243  0.47270  0.88959  1.0000
  H   H2737     1.0  0.88000  0.47679  0.90034  1.0000
  N   N114      1.0  0.95327  0.61447  0.56266  1.0000
  H   H2738     1.0  0.88264  0.63563  0.94445  1.0000
  C   C1614     1.0  0.93884  0.60546  0.58061  1.0000
  C   C1615     1.0  0.96698  0.62114  0.58497  1.0000
  C   C1616     1.0  0.94642  0.62900  0.54168  1.0000
  H   H2739     1.0  0.84771  0.62515  0.67325  1.0000
  H   H2740     1.0  0.80265  0.63152  0.53491  1.0000
  H   H2741     1.0  0.86487  0.59953  0.51592  1.0000
  H   H2742     1.0  0.95026  0.64020  0.61146  1.0000
  H   H2743     1.0  0.93955  0.62371  0.52078  1.0000
  H   H2744     1.0  0.93275  0.61398  0.59879  1.0000
  H   H2745     1.0  0.94435  0.59417  0.59420  1.0000
  C   C1617     1.0  0.89201  0.62888  0.92816  1.0000
  S   S468      1.0  0.85952  0.67109  0.91363  1.0000
  S   S469      1.0  0.77809  0.67126  0.91460  1.0000
  H   H2746     1.0  0.92579  0.63802  0.57599  1.0000
  H   H2747     1.0  0.96232  0.35640  0.70806  1.0000
  H   H2748     1.0  0.00317  0.42922  0.73940  1.0000
  C   C1618     1.0  0.86006  0.64581  0.69969  1.0000
  H   H2749     1.0  0.87316  0.58845  0.92116  1.0000
  H   H2750     1.0  0.86109  0.63853  0.64905  1.0000
  C   C1619     1.0  0.76888  0.35238  0.59958  1.0000
  S   S470      1.0  0.77966  0.35223  0.53679  1.0000
  Fe  Fe236     1.0  0.80801  0.67043  0.91087  1.0000
  H   H2751     1.0  0.86361  0.60518  0.94476  1.0000
  H   H2752     1.0  0.97572  0.63060  0.57282  1.0000
  H   H2753     1.0  0.84749  0.65335  0.69807  1.0000
  H   H2754     1.0  0.85257  0.51569  0.86523  1.0000
  C   C1620     1.0  0.95942  0.39585  0.71219  1.0000
  H   H2755     1.0  0.93678  0.37072  0.72083  1.0000
  C   C1621     1.0  0.82019  0.60969  0.53042  1.0000
  C   C1622     1.0  0.93423  0.64299  0.55683  1.0000
  H   H2756     1.0  0.96387  0.38674  0.69349  1.0000
  H   H2757     1.0  0.91126  0.66289  0.72469  1.0000
  H   H2758     1.0  0.86637  0.50506  0.89292  1.0000
  C   C1623     1.0  0.89426  0.60623  0.88566  1.0000
  C   C1624     1.0  0.86278  0.50524  0.86764  1.0000
  C   C1625     1.0  0.93156  0.35078  0.75471  1.0000
  H   H2759     1.0  0.84245  0.49036  0.84526  1.0000
  S   S471      1.0  0.86002  0.34960  0.55278  1.0000
  H   H2760     1.0  0.83667  0.42357  0.52126  1.0000
  C   C1626     1.0  0.76275  0.66772  0.88404  1.0000
  H   H2761     1.0  0.86662  0.65551  0.52261  1.0000
  H   H2762     1.0  0.87080  0.62254  0.67535  1.0000
  H   H2763     1.0  0.91330  0.59347  0.57620  1.0000
  C   C1627     1.0  0.91232  0.59896  0.89588  1.0000
  S   S472      1.0  0.82206  0.34511  0.58838  1.0000
  H   H2764     1.0  0.87415  0.50955  0.85358  1.0000
  H   H2765     1.0  0.91856  0.60664  0.91456  1.0000
  H   H2766     1.0  0.86032  0.42648  0.55890  1.0000
  H   H2767     1.0  0.95434  0.37538  0.80139  1.0000
  C   C1628     1.0  0.98137  0.36696  0.79788  1.0000
  N   N115      1.0  0.88286  0.61446  0.91082  1.0000
  C   C1629     1.0  0.86563  0.47976  0.80420  1.0000
  H   H2768     1.0  0.87410  0.47050  0.79041  1.0000
  H   H2769     1.0  0.90255  0.62378  0.94365  1.0000
  H   H2770     1.0  0.87092  0.63290  0.87787  1.0000
  C   C1630     1.0  0.96379  0.38899  0.74548  1.0000
  H   H2771     1.0  0.97783  0.39152  0.74931  1.0000
  H   H2772     1.0  0.85216  0.47834  0.79497  1.0000
  H   H2773     1.0  0.85309  0.40457  0.55550  1.0000
  C   C1631     1.0  0.93982  0.36850  0.74614  1.0000
  C   C1632     1.0  0.96904  0.35737  0.73120  1.0000
  H   H2774     1.0  0.93231  0.37878  0.75918  1.0000
  H   H2775     1.0  0.97172  0.63643  0.62698  1.0000
  H   H2776     1.0  0.86106  0.50831  0.80329  1.0000
  C   C1633     1.0  0.86017  0.63246  0.67258  1.0000
  H   H2777     1.0  0.95284  0.59606  0.52378  1.0000
  H   H2778     1.0  0.95798  0.35285  0.79268  1.0000
  C   C1634     1.0  0.00251  0.42389  0.76300  1.0000
  H   H2779     1.0  0.88753  0.59496  0.87481  1.0000
  C   C1635     1.0  0.88651  0.40279  0.56972  1.0000
  H   H2780     1.0  0.90043  0.39836  0.56770  1.0000
  C   C1636     1.0  0.87077  0.49848  0.79469  1.0000
  H   H2781     1.0  0.87082  0.49949  0.76858  1.0000
  H   H2782     1.0  0.88024  0.65528  0.75175  1.0000
  H   H2783     1.0  0.91080  0.63740  0.89144  1.0000
  N   N116      1.0  0.95922  0.37018  0.75205  1.0000
  H   H2784     1.0  0.99592  0.34908  0.72100  1.0000
  C   C1637     1.0  0.80967  0.62491  0.51516  1.0000
  N   N117      1.0  0.87942  0.40851  0.53809  1.0000
  C   C1638     1.0  0.87623  0.60079  0.93369  1.0000
  H   H2785     1.0  0.90733  0.65247  0.92292  1.0000
  H   H2786     1.0  0.99982  0.40409  0.84680  1.0000
  H   H2787     1.0  0.95682  0.39780  0.76242  1.0000
  H   H2788     1.0  0.98353  0.59533  0.50970  1.0000
  H   H2789     1.0  0.88412  0.50189  0.80231  1.0000
  H   H2790     1.0  0.88865  0.60642  0.97910  1.0000
  N   N118      1.0  0.87539  0.65804  0.70170  1.0000
  C   C1639     1.0  0.86706  0.62270  0.89506  1.0000
  C   C1640     1.0  0.88816  0.59570  0.96157  1.0000
  H   H2791     1.0  0.87924  0.39124  0.57886  1.0000
  H   H2792     1.0  0.85911  0.63779  0.72161  1.0000
  Fe  Fe237     1.0  0.84155  0.65544  0.94477  1.0000
  H   H2793     1.0  0.90797  0.39227  0.50770  1.0000
  H   H2794     1.0  0.86192  0.60447  0.85597  1.0000
  C   C1641     1.0  0.96231  0.36624  0.78643  1.0000
  H   H2795     1.0  0.95746  0.63637  0.53111  1.0000
  H   H2796     1.0  0.98945  0.60971  0.54057  1.0000
  S   S473      1.0  0.86220  0.36159  0.98149  1.0000
  H   H2797     1.0  0.85562  0.43239  0.50302  1.0000
  H   H2798     1.0  0.91737  0.60909  0.54615  1.0000
  Fe  Fe238     1.0  0.84535  0.35748  0.50860  1.0000
  H   H2799     1.0  0.78832  0.59466  0.50600  1.0000
  H   H2800     1.0  0.89623  0.61532  0.86536  1.0000
  H   H2801     1.0  0.98769  0.37954  0.79244  1.0000
  C   C1642     1.0  0.86080  0.41486  0.54327  1.0000
  H   H2802     1.0  0.90466  0.42044  0.53155  1.0000
  H   H2803     1.0  0.81931  0.63462  0.50624  1.0000
  H   H2804     1.0  0.79034  0.65626  0.51374  1.0000
  H   H2805     1.0  0.99530  0.36944  0.74085  1.0000
  C   C1643     1.0  0.89071  0.42296  0.52507  1.0000
  H   H2806     1.0  0.92787  0.58753  0.54522  1.0000
  C   C1644     1.0  0.98837  0.36157  0.72324  1.0000
  H   H2807     1.0  0.96569  0.58894  0.55634  1.0000
  S   S474      1.0  0.84973  0.63497  0.98231  1.0000
  C   C1645     1.0  0.96049  0.63007  0.61538  1.0000
  H   H2808     1.0  0.92067  0.65018  0.69391  1.0000
  H   H2809     1.0  0.85865  0.62954  0.91277  1.0000
  H   H2810     1.0  0.88246  0.58429  0.97409  1.0000
  H   H2811     1.0  0.83004  0.60400  0.51395  1.0000
  H   H2812     1.0  0.78249  0.35421  0.60548  1.0000
  H   H2813     1.0  0.88077  0.42372  0.97305  1.0000
  C   C1646     1.0  0.96198  0.60075  0.54208  1.0000
  H   H2814     1.0  0.96605  0.40854  0.70831  1.0000
  C   C1647     1.0  0.89235  0.64796  0.69681  1.0000
  C   C1648     1.0  0.00053  0.40984  0.82352  1.0000
  C   C1649     1.0  0.85517  0.61013  0.87683  1.0000
  H   H2815     1.0  0.98144  0.36565  0.82393  1.0000
  H   H2816     1.0  0.93000  0.34923  0.78055  1.0000
  C   C1650     1.0  0.92368  0.59859  0.56042  1.0000
  C   C1651     1.0  0.97868  0.60646  0.52429  1.0000
  H   H2817     1.0  0.82774  0.61487  0.55054  1.0000
  H   H2818     1.0  0.96878  0.34398  0.74169  1.0000
  H   H2819     1.0  0.95566  0.62016  0.63229  1.0000
  H   H2820     1.0  0.99207  0.53446  0.70345  1.0000
  H   H2821     1.0  0.00123  0.55755  0.73849  1.0000
  H   H2822     1.0  0.00366  0.57729  0.62230  1.0000
  H   H2823     1.0  0.98557  0.55524  0.68807  1.0000
  H   H2824     1.0  0.88408  0.65857  0.63764  1.0000
  H   H2825     1.0  0.00364  0.54401  0.67030  1.0000
  H   H2826     1.0  0.84839  0.66261  0.75139  1.0000
  C   C1652     1.0  0.76788  0.66560  0.85259  1.0000
  H   H2827     1.0  0.89392  0.39602  0.98972  1.0000
  C   C1653     1.0  0.87506  0.66949  0.64362  1.0000
  H   H2828     1.0  0.91812  0.35051  0.74478  1.0000
  H   H2829     1.0  0.94187  0.65419  0.56557  1.0000
  H   H2830     1.0  0.98937  0.36802  0.69983  1.0000
  H   H2831     1.0  0.86205  0.66702  0.63308  1.0000
  C   C1654     1.0  0.00459  0.58569  0.64262  1.0000
  H   H2832     1.0  0.77130  0.64230  0.51524  1.0000
  H   H2833     1.0  0.76008  0.35247  0.64790  1.0000
  C   C1655     1.0  0.78057  0.64920  0.49954  1.0000
  C   C1656     1.0  0.89725  0.38309  0.51305  1.0000
  H   H2834     1.0  0.92484  0.64797  0.53887  1.0000
  H   H2835     1.0  0.75922  0.66209  0.80473  1.0000
  H   H2836     1.0  0.78166  0.66560  0.84642  1.0000
  C   C1657     1.0  0.78319  0.60833  0.50339  1.0000
  H   H2837     1.0  0.89988  0.42735  0.99567  1.0000
  H   H2838     1.0  0.84941  0.40968  0.49650  1.0000
  Fe  Fe239     1.0  0.84049  0.68879  0.42105  1.0000
  H   H2839     1.0  0.90575  0.68879  0.34716  1.0000
  S   S475      1.0  0.84879  0.71586  0.43778  1.0000
  H   H2840     1.0  0.87981  0.70214  0.04200  1.0000
  Fe  Fe240     1.0  0.91285  0.94881  0.18834  1.0000
  S   S476      1.0  0.93191  0.93110  0.21412  1.0000
  S   S477      1.0  0.91245  0.97890  0.19042  1.0000
  Fe  Fe241     1.0  0.90171  0.91889  0.14243  1.0000
  S   S478      1.0  0.92067  0.89983  0.16479  1.0000
  S   S479      1.0  0.88193  0.91402  0.10248  1.0000
  Fe  Fe242     1.0  0.91073  0.91077  0.21108  1.0000
  S   S480      1.0  0.90572  0.88991  0.24874  1.0000
  Fe  Fe243     1.0  0.94020  0.92169  0.16623  1.0000
  S   S481      1.0  0.96815  0.92090  0.14644  1.0000
  S   S482      1.0  0.89093  0.92912  0.18874  1.0000
  S   S483      1.0  0.92190  0.94001  0.14035  1.0000
  Fe  Fe244     1.0  0.84057  0.82026  0.40364  1.0000
  S   S484      1.0  0.82783  0.82553  0.45044  1.0000
  S   S485      1.0  0.84421  0.79336  0.38040  1.0000
  Fe  Fe245     1.0  0.83986  0.85961  0.38605  1.0000
  S   S486      1.0  0.82614  0.86713  0.43150  1.0000
  S   S487      1.0  0.84492  0.88201  0.35147  1.0000
  Fe  Fe246     1.0  0.84574  0.84888  0.45466  1.0000
  H   H2841     1.0  0.88703  0.67636  0.35735  1.0000
  Fe  Fe247     1.0  0.80946  0.84340  0.42317  1.0000
  S   S488      1.0  0.78002  0.83904  0.42993  1.0000
  S   S489      1.0  0.85998  0.84215  0.40915  1.0000
  S   S490      1.0  0.82168  0.83746  0.37645  1.0000
  H   H2842     1.0  0.95053  0.96272  0.20695  1.0000
  H   H2843     1.0  0.88517  0.84585  0.15883  1.0000
  H   H2844     1.0  0.77927  0.86001  0.37201  1.0000
  C   C1658     1.0  0.89178  0.69002  0.35447  1.0000
  C   C1659     1.0  0.98854  0.92172  0.16643  1.0000
  C   C1660     1.0  0.96255  0.98442  0.16141  1.0000
  C   C1661     1.0  0.98965  0.92095  0.19925  1.0000
  H   H2845     1.0  0.97756  0.96388  0.13501  1.0000
  H   H2846     1.0  0.97789  0.91921  0.21314  1.0000
  C   C1662     1.0  0.88903  0.88837  0.27787  1.0000
  C   C1663     1.0  0.88834  0.87317  0.29667  1.0000
  C   C1664     1.0  0.87491  0.87094  0.31920  1.0000
  C   C1665     1.0  0.86202  0.88396  0.32322  1.0000
  C   C1666     1.0  0.86280  0.89924  0.30464  1.0000
  C   C1667     1.0  0.87621  0.90145  0.28204  1.0000
  H   H2847     1.0  0.89818  0.86295  0.29355  1.0000
  H   H2848     1.0  0.87447  0.85911  0.33329  1.0000
  H   H2849     1.0  0.85292  0.90942  0.30767  1.0000
  H   H2850     1.0  0.87658  0.91322  0.26779  1.0000
  C   C1668     1.0  0.87791  0.89753  0.07361  1.0000
  C   C1669     1.0  0.86368  0.89984  0.05289  1.0000
  C   C1670     1.0  0.85970  0.88710  0.03003  1.0000
  C   C1671     1.0  0.86987  0.87175  0.02753  1.0000
  C   C1672     1.0  0.88409  0.86943  0.04829  1.0000
  C   C1673     1.0  0.88813  0.88222  0.07103  1.0000
  H   H2851     1.0  0.85559  0.91156  0.05465  1.0000
  H   H2852     1.0  0.90965  0.90041  0.48601  1.0000
  H   H2853     1.0  0.88780  0.90773  0.49146  1.0000
  H   H2854     1.0  0.89918  0.88021  0.08654  1.0000
  C   C1674     1.0  0.76384  0.84269  0.40057  1.0000
  C   C1675     1.0  0.86282  0.68055  0.09675  1.0000
  C   C1676     1.0  0.91051  0.99006  0.25286  1.0000
  H   H2855     1.0  0.79501  0.80075  0.31640  1.0000
  H   H2856     1.0  0.90905  0.97645  0.25940  1.0000
  C   C1677     1.0  0.84583  0.73732  0.42191  1.0000
  C   C1678     1.0  0.84150  0.74030  0.39037  1.0000
  C   C1679     1.0  0.84110  0.75752  0.37811  1.0000
  C   C1680     1.0  0.84425  0.77203  0.39747  1.0000
  C   C1681     1.0  0.84780  0.76911  0.42932  1.0000
  C   C1682     1.0  0.84886  0.75185  0.44129  1.0000
  H   H2857     1.0  0.83879  0.72935  0.37531  1.0000
  H   H2858     1.0  0.83830  0.75962  0.35345  1.0000
  H   H2859     1.0  0.85032  0.78011  0.44451  1.0000
  H   H2860     1.0  0.85222  0.74973  0.46573  1.0000
  H   H2861     1.0  0.84623  0.69550  0.29796  1.0000
  H   H2862     1.0  0.84405  0.90832  0.22573  1.0000
  N   N119      1.0  0.88423  0.89739  0.41894  1.0000
  C   C1683     1.0  0.88030  0.90997  0.39219  1.0000
  C   C1684     1.0  0.86689  0.89256  0.43353  1.0000
  C   C1685     1.0  0.89270  0.88118  0.40501  1.0000
  C   C1686     1.0  0.89632  0.90619  0.44181  1.0000
  H   H2863     1.0  0.85830  0.70721  0.08157  1.0000
  H   H2864     1.0  0.88718  0.86207  0.44321  1.0000
  H   H2865     1.0  0.78814  0.77479  0.33985  1.0000
  H   H2866     1.0  0.79324  0.81230  0.35268  1.0000
  H   H2867     1.0  0.86979  0.90483  0.37693  1.0000
  H   H2868     1.0  0.87507  0.92268  0.40127  1.0000
  H   H2869     1.0  0.96790  0.99444  0.23931  1.0000
  H   H2870     1.0  0.85882  0.88546  0.41613  1.0000
  H   H2871     1.0  0.88385  0.87532  0.38724  1.0000
  H   H2872     1.0  0.90274  0.85499  0.41457  1.0000
  H   H2873     1.0  0.80533  0.75803  0.42335  1.0000
  C   C1687     1.0  0.90111  0.68518  0.28740  1.0000
  H   H2874     1.0  0.77304  0.75902  0.37965  1.0000
  H   H2875     1.0  0.90749  0.67452  0.30126  1.0000
  H   H2876     1.0  0.90869  0.99949  0.30065  1.0000
  H   H2877     1.0  0.81820  0.67920  0.02720  1.0000
  H   H2878     1.0  0.77129  0.80867  0.38434  1.0000
  H   H2879     1.0  0.85353  0.71690  0.01903  1.0000
  C   C1688     1.0  0.79940  0.80076  0.34126  1.0000
  C   C1689     1.0  0.89229  0.69836  0.38738  1.0000
  C   C1690     1.0  0.79524  0.78297  0.35709  1.0000
  H   H2880     1.0  0.86670  0.73612  0.33759  1.0000
  H   H2881     1.0  0.90944  0.69694  0.28707  1.0000
  H   H2882     1.0  0.88810  0.74481  0.34020  1.0000
  H   H2883     1.0  0.96927  0.95300  0.19008  1.0000
  H   H2884     1.0  0.83311  0.89039  0.20828  1.0000
  H   H2885     1.0  0.91009  0.90554  0.43298  1.0000
  H   H2886     1.0  0.79951  0.80633  0.40504  1.0000
  H   H2887     1.0  0.83416  0.88411  0.13195  1.0000
  C   C1691     1.0  0.88807  0.71777  0.32397  1.0000
  H   H2888     1.0  0.81032  0.78625  0.41219  1.0000
  C   C1692     1.0  0.91225  0.99466  0.22111  1.0000
  H   H2889     1.0  0.87886  0.85879  0.12500  1.0000
  H   H2890     1.0  0.81377  0.80287  0.34106  1.0000
  H   H2891     1.0  0.95525  0.95837  0.14455  1.0000
  H   H2892     1.0  0.86105  0.68423  0.12184  1.0000
  H   H2893     1.0  0.79931  0.79984  0.46087  1.0000
  N   N120      1.0  0.78548  0.78387  0.38798  1.0000
  C   C1693     1.0  0.00135  0.97052  0.17739  1.0000
  H   H2894     1.0  0.90032  0.71034  0.38723  1.0000
  H   H2895     1.0  0.80412  0.75003  0.38331  1.0000
  C   C1694     1.0  0.86213  0.69972  0.34006  1.0000
  N   N121      1.0  0.85378  0.69105  0.04095  1.0000
  H   H2896     1.0  0.87914  0.70122  0.39739  1.0000
  C   C1695     1.0  0.76674  0.85372  0.37479  1.0000
  H   H2897     1.0  0.89199  0.92596  0.35532  1.0000
  C   C1696     1.0  0.79706  0.79247  0.41177  1.0000
  C   C1697     1.0  0.78997  0.79275  0.44584  1.0000
  H   H2898     1.0  0.83250  0.72292  0.05938  1.0000
  C   C1698     1.0  0.84888  0.70610  0.31504  1.0000
  H   H2899     1.0  0.84859  0.88904  0.01469  1.0000
  H   H2900     1.0  0.83618  0.70944  0.32665  1.0000
  H   H2901     1.0  0.78882  0.77941  0.45593  1.0000
  H   H2902     1.0  0.99607  0.95720  0.17794  1.0000
  C   C1699     1.0  0.89580  0.91456  0.37030  1.0000
  C   C1700     1.0  0.96507  0.96368  0.20607  1.0000
  C   C1701     1.0  0.84451  0.70580  0.02350  1.0000
  H   H2903     1.0  0.85816  0.68628  0.34705  1.0000
  H   H2904     1.0  0.79142  0.74035  0.41378  1.0000
  C   C1702     1.0  0.97219  0.95869  0.23885  1.0000
  H   H2905     1.0  0.90073  0.85949  0.13924  1.0000
  C   C1703     1.0  0.88243  0.68923  0.29974  1.0000
  C   C1704     1.0  0.76867  0.79444  0.38516  1.0000
  C   C1705     1.0  0.87288  0.69093  0.03121  1.0000
  H   H2906     1.0  0.85990  0.70768  0.36147  1.0000
  H   H2907     1.0  0.90766  0.91818  0.38355  1.0000
  H   H2908     1.0  0.85424  0.84401  0.24648  1.0000
  H   H2909     1.0  0.88070  0.73009  0.36988  1.0000
  H   H2910     1.0  0.98672  0.95850  0.23926  1.0000
  C   C1706     1.0  0.89625  0.89931  0.47621  1.0000
  C   C1707     1.0  0.79650  0.75303  0.40495  1.0000
  H   H2911     1.0  0.85636  0.89092  0.13199  1.0000
  H   H2912     1.0  0.80808  0.77608  0.36016  1.0000
  H   H2913     1.0  0.94766  0.99172  0.21999  1.0000
  H   H2914     1.0  0.87572  0.67649  0.30239  1.0000
  C   C1708     1.0  0.85556  0.90801  0.44579  1.0000
  H   H2915     1.0  0.76343  0.79390  0.33412  1.0000
  H   H2916     1.0  0.95973  0.97379  0.11433  1.0000
  H   H2917     1.0  0.76032  0.79275  0.40649  1.0000
  H   H2918     1.0  0.84721  0.88717  0.24239  1.0000
  H   H2919     1.0  0.89288  0.92039  0.44350  1.0000
  H   H2920     1.0  0.87550  0.69614  0.28021  1.0000
  H   H2921     1.0  0.89890  0.90367  0.35384  1.0000
  C   C1709     1.0  0.78088  0.76553  0.39807  1.0000
  H   H2922     1.0  0.90930  0.87060  0.44296  1.0000
  H   H2923     1.0  0.82167  0.72317  0.02225  1.0000
  H   H2924     1.0  0.84957  0.91552  0.42606  1.0000
  S   S491      1.0  0.82389  0.68230  0.37941  1.0000
  H   H2925     1.0  0.94821  0.98745  0.16307  1.0000
  C   C1710     1.0  0.82840  0.71449  0.03961  1.0000
  H   H2926     1.0  0.85068  0.87129  0.11230  1.0000
  C   C1711     1.0  0.88037  0.73280  0.34431  1.0000
  N   N122      1.0  0.86494  0.87362  0.18545  1.0000
  C   C1712     1.0  0.86737  0.86095  0.21277  1.0000
  C   C1713     1.0  0.86154  0.89181  0.19809  1.0000
  C   C1714     1.0  0.88220  0.87442  0.16795  1.0000
  C   C1715     1.0  0.85046  0.86814  0.16380  1.0000
  C   C1716     1.0  0.85104  0.85101  0.22419  1.0000
  C   C1717     1.0  0.84545  0.89422  0.21973  1.0000
  C   C1718     1.0  0.88679  0.85860  0.14677  1.0000
  C   C1719     1.0  0.84795  0.87932  0.13357  1.0000
  H   H2927     1.0  0.87738  0.85063  0.20759  1.0000
  H   H2928     1.0  0.87297  0.86770  0.23347  1.0000
  H   H2929     1.0  0.86028  0.90162  0.17878  1.0000
  H   H2930     1.0  0.87306  0.89619  0.21183  1.0000
  H   H2931     1.0  0.88297  0.88631  0.15273  1.0000
  H   H2932     1.0  0.89314  0.87583  0.18502  1.0000
  H   H2933     1.0  0.85251  0.85427  0.15652  1.0000
  H   H2934     1.0  0.83763  0.86811  0.17620  1.0000
  H   H2935     1.0  0.83965  0.85972  0.22914  1.0000
  H   H2936     1.0  0.84723  0.84095  0.20685  1.0000
  H   H2937     1.0  0.85340  0.71785  0.30211  1.0000
  H   H2938     1.0  0.88592  0.72196  0.29911  1.0000
  H   H2939     1.0  0.90498  0.88438  0.39220  1.0000
  C   C1720     1.0  0.96168  0.99482  0.21572  1.0000
  H   H2940     1.0  0.89878  0.68901  0.40386  1.0000
  H   H2941     1.0  0.77226  0.76570  0.41930  1.0000
  C   C1721     1.0  0.85296  0.69409  0.07600  1.0000
  C   C1722     1.0  0.75706  0.79025  0.35669  1.0000
  C   C1723     1.0  0.96410  0.96915  0.13786  1.0000
  C   C1724     1.0  0.89814  0.86657  0.42821  1.0000
  H   H2942     1.0  0.90257  0.71784  0.32693  1.0000
  C   C1725     1.0  0.00608  0.92219  0.21410  1.0000
  N   N123      1.0  0.88110  0.69961  0.32987  1.0000
  C   C1726     1.0  0.98960  0.98429  0.19406  1.0000
  H   H2943     1.0  0.84452  0.90278  0.45998  1.0000
  H   H2944     1.0  0.83924  0.69440  0.08480  1.0000
  H   H2945     1.0  0.81866  0.70508  0.04838  1.0000
  N   N124      1.0  0.97007  0.98150  0.19388  1.0000
  H   H2946     1.0  0.89253  0.88551  0.47935  1.0000
  H   H2947     1.0  0.96681  0.96727  0.25762  1.0000
  H   H2948     1.0  0.89211  0.85766  0.04667  1.0000
  H   H2949     1.0  0.77725  0.79990  0.44766  1.0000
  H   H2950     1.0  0.99277  0.99702  0.18277  1.0000
  H   H2951     1.0  0.96796  0.94520  0.24472  1.0000
  H   H2952     1.0  0.96859  0.99599  0.14987  1.0000
  H   H2953     1.0  0.86302  0.91690  0.46102  1.0000
  H   H2954     1.0  0.86838  0.88321  0.45329  1.0000
  H   H2955     1.0  0.99457  0.98567  0.21850  1.0000
  H   H2956     1.0  0.84039  0.70139  0.99979  1.0000
  S   S492      1.0  0.82447  0.67257  0.45483  1.0000
  H   H2957     1.0  0.90030  0.68026  0.26288  1.0000
  C   C1727     1.0  0.00405  0.92364  0.14871  1.0000
  H   H2958     1.0  0.00336  0.92420  0.12331  1.0000
  H   H2959     1.0  0.87974  0.67889  0.03988  1.0000
  H   H2960     1.0  0.00396  0.97433  0.15257  1.0000
  H   H2961     1.0  0.89039  0.90918  0.99756  1.0000
  C   C1728     1.0  0.91038  0.00316  0.27620  1.0000
  H   H2962     1.0  0.87715  0.68032  0.09215  1.0000
  C   C1729     1.0  0.84636  0.67352  0.03241  1.0000
  S   S493      1.0  0.86557  0.85508  0.99914  1.0000
  Fe  Fe248     1.0  0.84009  0.69356  0.92064  1.0000
  H   H2963     1.0  0.80764  0.78125  0.92045  1.0000
  S   S494      1.0  0.84710  0.72006  0.94156  1.0000
  H   H2964     1.0  0.98239  0.88640  0.67080  1.0000
  Fe  Fe249     1.0  0.91106  0.94995  0.68503  1.0000
  S   S495      1.0  0.93146  0.93270  0.70855  1.0000
  S   S496      1.0  0.90798  0.97977  0.69106  1.0000
  Fe  Fe250     1.0  0.89901  0.92000  0.64013  1.0000
  S   S497      1.0  0.91863  0.90118  0.66099  1.0000
  S   S498      1.0  0.87881  0.91377  0.60131  1.0000
  Fe  Fe251     1.0  0.91054  0.91207  0.70823  1.0000
  S   S499      1.0  0.90847  0.89106  0.74641  1.0000
  Fe  Fe252     1.0  0.93795  0.92319  0.65985  1.0000
  S   S500      1.0  0.96514  0.91838  0.63850  1.0000
  S   S501      1.0  0.88963  0.92981  0.68779  1.0000
  S   S502      1.0  0.91884  0.94150  0.63587  1.0000
  Fe  Fe253     1.0  0.84313  0.82314  0.90309  1.0000
  S   S503      1.0  0.82984  0.82813  0.94949  1.0000
  S   S504      1.0  0.84603  0.79643  0.87924  1.0000
  Fe  Fe254     1.0  0.84382  0.86265  0.88700  1.0000
  S   S505      1.0  0.82954  0.86991  0.93202  1.0000
  S   S506      1.0  0.84978  0.88525  0.85347  1.0000
  Fe  Fe255     1.0  0.84831  0.85086  0.95531  1.0000
  H   H2965     1.0  0.95701  0.98830  0.73326  1.0000
  Fe  Fe256     1.0  0.81244  0.84673  0.92185  1.0000
  S   S507      1.0  0.78274  0.84349  0.92633  1.0000
  S   S508      1.0  0.86309  0.84433  0.91028  1.0000
  S   S509      1.0  0.82528  0.84119  0.87553  1.0000
  H   H2966     1.0  0.86902  0.88373  0.72230  1.0000
  H   H2967     1.0  0.86017  0.67957  0.68227  1.0000
  H   H2968     1.0  0.78639  0.85794  0.86280  1.0000
  H   H2969     1.0  0.87069  0.88552  0.95707  1.0000
  C   C1730     1.0  0.98581  0.92028  0.65690  1.0000
  C   C1731     1.0  0.98735  0.92447  0.68876  1.0000
  H   H2970     1.0  0.78716  0.77480  0.80845  1.0000
  H   H2971     1.0  0.97575  0.92781  0.70233  1.0000
  H   H2972     1.0  0.86948  0.68206  0.98177  1.0000
  C   C1732     1.0  0.89205  0.88970  0.77604  1.0000
  C   C1733     1.0  0.89131  0.87457  0.79501  1.0000
  C   C1734     1.0  0.87840  0.87290  0.81870  1.0000
  C   C1735     1.0  0.86612  0.88641  0.82367  1.0000
  C   C1736     1.0  0.86693  0.90157  0.80478  1.0000
  C   C1737     1.0  0.87979  0.90321  0.78104  1.0000
  H   H2973     1.0  0.90074  0.86404  0.79133  1.0000
  H   H2974     1.0  0.87794  0.86118  0.83306  1.0000
  H   H2975     1.0  0.85754  0.91213  0.80857  1.0000
  H   H2976     1.0  0.88031  0.91499  0.76686  1.0000
  C   C1738     1.0  0.87541  0.89751  0.57159  1.0000
  C   C1739     1.0  0.88583  0.88231  0.56902  1.0000
  C   C1740     1.0  0.88194  0.86942  0.54634  1.0000
  C   C1741     1.0  0.86764  0.87146  0.52565  1.0000
  C   C1742     1.0  0.85733  0.88674  0.52801  1.0000
  C   C1743     1.0  0.86118  0.89960  0.55078  1.0000
  H   H2977     1.0  0.89681  0.88038  0.58470  1.0000
  H   H2978     1.0  0.89007  0.85772  0.54484  1.0000
  C   C1744     1.0  0.76158  0.85359  0.83996  1.0000
  H   H2979     1.0  0.85291  0.91119  0.55253  1.0000
  H   H2980     1.0  0.87185  0.88150  0.63572  1.0000
  C   C1745     1.0  0.90663  0.99484  0.72302  1.0000
  C   C1746     1.0  0.90845  0.98965  0.75450  1.0000
  H   H2981     1.0  0.91161  0.87292  0.94681  1.0000
  H   H2982     1.0  0.91046  0.97594  0.76013  1.0000
  C   C1747     1.0  0.84554  0.74119  0.92384  1.0000
  C   C1748     1.0  0.84679  0.75609  0.94300  1.0000
  C   C1749     1.0  0.84654  0.77310  0.92987  1.0000
  C   C1750     1.0  0.84536  0.77538  0.89727  1.0000
  C   C1751     1.0  0.84390  0.76049  0.87813  1.0000
  C   C1752     1.0  0.84381  0.74349  0.89132  1.0000
  H   H2983     1.0  0.84818  0.75448  0.96817  1.0000
  H   H2984     1.0  0.84771  0.78442  0.94489  1.0000
  H   H2985     1.0  0.84305  0.76209  0.85288  1.0000
  H   H2986     1.0  0.84294  0.73216  0.87627  1.0000
  H   H2987     1.0  0.95748  0.90003  0.69699  1.0000
  C   C1753     1.0  0.86939  0.89538  0.93807  1.0000
  N   N125      1.0  0.96576  0.87296  0.70395  1.0000
  H   H2988     1.0  0.95420  0.86039  0.74454  1.0000
  C   C1754     1.0  0.95492  0.86670  0.67672  1.0000
  C   C1755     1.0  0.98371  0.87769  0.69173  1.0000
  C   C1756     1.0  0.96674  0.86005  0.73086  1.0000
  H   H2989     1.0  0.88070  0.68108  0.63159  1.0000
  C   C1757     1.0  0.93693  0.85885  0.68529  1.0000
  H   H2990     1.0  0.00462  0.98885  0.65442  1.0000
  C   C1758     1.0  0.97060  0.84060  0.72268  1.0000
  C   C1759     1.0  0.89528  0.88440  0.90928  1.0000
  H   H2991     1.0  0.99116  0.88524  0.70924  1.0000
  H   H2992     1.0  0.96200  0.85679  0.66235  1.0000
  H   H2993     1.0  0.95248  0.87767  0.65974  1.0000
  H   H2994     1.0  0.83747  0.90307  0.72130  1.0000
  H   H2995     1.0  0.80450  0.82521  0.81626  1.0000
  H   H2996     1.0  0.90510  0.85795  0.91729  1.0000
  H   H2997     1.0  0.80019  0.75698  0.82111  1.0000
  H   H2998     1.0  0.97852  0.90104  0.74427  1.0000
  C   C1760     1.0  0.89866  0.90095  0.98169  1.0000
  H   H2999     1.0  0.83264  0.87215  0.62884  1.0000
  C   C1761     1.0  0.76819  0.79391  0.85119  1.0000
  H   H3000     1.0  0.92810  0.86819  0.69768  1.0000
  H   H3001     1.0  0.76547  0.86005  0.81835  1.0000
  H   H3002     1.0  0.76080  0.70624  0.86998  1.0000
  H   H3003     1.0  0.85274  0.68352  0.73252  1.0000
  H   H3004     1.0  0.97439  0.99701  0.75636  1.0000
  H   H3005     1.0  0.86061  0.67873  0.77117  1.0000
  H   H3006     1.0  0.97131  0.83771  0.69727  1.0000
  H   H3007     1.0  0.96025  0.83219  0.73295  1.0000
  H   H3008     1.0  0.78974  0.76455  0.87054  1.0000
  H   H3009     1.0  0.77600  0.80586  0.90733  1.0000
  C   C1762     1.0  0.96451  0.89766  0.74606  1.0000
  C   C1763     1.0  0.85114  0.90004  0.67534  1.0000
  C   C1764     1.0  0.88314  0.91351  0.89815  1.0000
  H   H3010     1.0  0.86170  0.90723  0.66277  1.0000
  H   H3011     1.0  0.00496  0.92693  0.72801  1.0000
  H   H3012     1.0  0.84690  0.90517  0.96467  1.0000
  H   H3013     1.0  0.82783  0.87739  0.68383  1.0000
  C   C1765     1.0  0.86011  0.87456  0.64487  1.0000
  C   C1766     1.0  0.84035  0.87136  0.69227  1.0000
  H   H3014     1.0  0.93018  0.85526  0.66321  1.0000
  N   N126      1.0  0.88685  0.90038  0.92414  1.0000
  H   H3015     1.0  0.87369  0.70509  0.98561  1.0000
  H   H3016     1.0  0.90205  0.90799  0.85993  1.0000
  H   H3017     1.0  0.91267  0.90811  0.93915  1.0000
  C   C1767     1.0  0.90760  0.00224  0.77879  1.0000
  H   H3018     1.0  0.79648  0.80465  0.80345  1.0000
  H   H3019     1.0  0.90765  0.88778  0.89694  1.0000
  C   C1768     1.0  0.84543  0.87700  0.62034  1.0000
  H   H3020     1.0  0.84901  0.86957  0.59873  1.0000
  H   H3021     1.0  0.88945  0.86456  0.94609  1.0000
  H   H3022     1.0  0.88648  0.87898  0.89096  1.0000
  H   H3023     1.0  0.83914  0.90224  0.66104  1.0000
  H   H3024     1.0  0.87276  0.90872  0.88222  1.0000
  H   H3025     1.0  0.94304  0.88782  0.72063  1.0000
  H   H3026     1.0  0.89086  0.68940  0.99123  1.0000
  H   H3027     1.0  0.84262  0.92307  0.70155  1.0000
  H   H3028     1.0  0.76141  0.76590  0.85390  1.0000
  H   H3029     1.0  0.89546  0.92277  0.95049  1.0000
  C   C1769     1.0  0.84756  0.90960  0.70675  1.0000
  C   C1770     1.0  0.79694  0.80836  0.85523  1.0000
  H   H3030     1.0  0.84025  0.87310  0.71830  1.0000
  C   C1771     1.0  0.00107  0.91619  0.63952  1.0000
  C   C1772     1.0  0.76851  0.84443  0.89344  1.0000
  H   H3031     1.0  0.84402  0.89092  0.61305  1.0000
  H   H3032     1.0  0.91057  0.92187  0.89085  1.0000
  H   H3033     1.0  0.93820  0.84675  0.69958  1.0000
  H   H3034     1.0  0.88249  0.88728  0.68863  1.0000
  H   H3035     1.0  0.85125  0.84471  0.67902  1.0000
  C   C1773     1.0  0.87177  0.87895  0.69807  1.0000
  H   H3036     1.0  0.87051  0.85209  0.71677  1.0000
  H   H3037     1.0  0.79751  0.79733  0.94522  1.0000
  H   H3038     1.0  0.88322  0.85396  0.68027  1.0000
  C   C1774     1.0  0.89887  0.90861  0.94782  1.0000
  H   H3039     1.0  0.85969  0.91116  0.72059  1.0000
  C   C1775     1.0  0.87946  0.86036  0.70268  1.0000
  C   C1776     1.0  0.83892  0.85150  0.68567  1.0000
  C   C1777     1.0  0.77348  0.85239  0.86513  1.0000
  H   H3040     1.0  0.83406  0.84486  0.70728  1.0000
  S   S510      1.0  0.82392  0.68716  0.87817  1.0000
  N   N127      1.0  0.85571  0.88074  0.67771  1.0000
  H   H3041     1.0  0.86405  0.86058  0.64420  1.0000
  C   C1778     1.0  0.89883  0.91854  0.87703  1.0000
  C   C1779     1.0  0.79457  0.81504  0.82117  1.0000
  N   N128      1.0  0.78620  0.79286  0.86564  1.0000
  C   C1780     1.0  0.78382  0.79393  0.90091  1.0000
  H   H3042     1.0  0.77638  0.78260  0.91015  1.0000
  H   H3043     1.0  0.99041  0.85383  0.66413  1.0000
  C   C1781     1.0  0.79576  0.77593  0.85836  1.0000
  C   C1782     1.0  0.80083  0.79420  0.92036  1.0000
  H   H3044     1.0  0.79400  0.81992  0.87032  1.0000
  H   H3045     1.0  0.97697  0.86410  0.74783  1.0000
  C   C1783     1.0  0.79851  0.77140  0.82340  1.0000
  H   H3046     1.0  0.81000  0.80433  0.91209  1.0000
  H   H3047     1.0  0.78154  0.82149  0.81803  1.0000
  H   H3048     1.0  0.76877  0.79430  0.82514  1.0000
  H   H3049     1.0  0.89514  0.93025  0.86276  1.0000
  H   H3050     1.0  0.82888  0.84912  0.66743  1.0000
  C   C1784     1.0  0.85817  0.91063  0.95142  1.0000
  H   H3051     1.0  0.80921  0.77609  0.86838  1.0000
  H   H3052     1.0  0.85251  0.91884  0.93229  1.0000
  H   H3053     1.0  0.86559  0.91889  0.96783  1.0000
  H   H3054     1.0  0.81118  0.80555  0.85825  1.0000
  H   H3055     1.0  0.87789  0.92603  0.90797  1.0000
  H   H3056     1.0  0.86135  0.88885  0.91994  1.0000
  H   H3057     1.0  0.99385  0.96844  0.66026  1.0000
  H   H3058     1.0  0.95725  0.91008  0.75104  1.0000
  C   C1785     1.0  0.99611  0.86255  0.68194  1.0000
  H   H3059     1.0  0.89168  0.86125  0.71659  1.0000
  C   C1786     1.0  0.90050  0.86929  0.93159  1.0000
  H   H3060     1.0  0.81047  0.77775  0.81398  1.0000
  H   H3061     1.0  0.96234  0.88901  0.76673  1.0000
  C   C1787     1.0  0.95713  0.88971  0.71557  1.0000
  H   H3062     1.0  0.90899  0.99806  0.80301  1.0000
  H   H3063     1.0  0.76155  0.80648  0.85787  1.0000
  S   S511      1.0  0.82311  0.67813  0.95386  1.0000
  C   C1788     1.0  0.00392  0.92394  0.70324  1.0000
  H   H3064     1.0  0.89464  0.88718  0.98382  1.0000
  H   H3065     1.0  0.88248  0.68397  0.68480  1.0000
  H   H3066     1.0  0.84619  0.88853  0.51268  1.0000
  H   H3067     1.0  0.98318  0.83620  0.73339  1.0000
  H   H3068     1.0  0.91208  0.90152  0.99157  1.0000
  H   H3069     1.0  0.95314  0.99227  0.77389  1.0000
  H   H3070     1.0  0.88542  0.67611  0.73650  1.0000
  C   C1789     1.0  0.96002  0.99741  0.75276  1.0000
  H   H3071     1.0  0.00001  0.91289  0.61487  1.0000
  C   C1790     1.0  0.87666  0.69190  0.99541  1.0000
  H   H3072     1.0  0.00073  0.85497  0.70266  1.0000
  C   C1791     1.0  0.85825  0.67296  0.74762  1.0000
  C   C1792     1.0  0.87330  0.67325  0.67917  1.0000
  S   S512      1.0  0.86337  0.85448  0.49770  1.0000
