data_image0
_chemical_formula_structural       H3FeSCH2S2CHFeCH4CH13C2H2NFeH2CH2CSH2CH2NCH3CH4CSC2HCH3C2H3C2HCH2C3H2FeH4CNHCSH4CFeSFeS2H3SNH3FeS2FeCFeCS2C2HSHCHC2FeH9CHCFeC3H2CSHC2H3C3HC5SH10CHC5H3CH5CH3SCHNHCH3NC2HCH2NFeS2FeS2FeHFeHS2CH2SCHC3H2C4H2C3H4C2HCH4CSHC2HCHCH2CH2NCH3CH4CH3C2SCH2C3HSH2C2H4CHCHSCH2CHCH4CH5CHC2HCH4CHNH3CHSH4C2HC2H2NHC4SHCHFeS2FeS2FeCFeHS2CSC3H2CH3C4H2NH3C3H2CH2CH4SC2H2C5SHCH2C2H2C2H4CH4CH2CHCHCH2C2SCH2CSH4NSH4CNHNHCH4SH4CH2CH4SHC2HC3HC2H3C4H3CHC2H7CH3SFeHFeS2FeH2SCSHFeSFeS2C2H3C2SHSC5H2SHC2H2C3H5CH2CHCH2C3H2CH2FeH3CNCH3CFeHFeH2SH2SHSFeSHC3HCH2FeC2HCFeSH2SFeSNH4CH3CHCH2CH3CSC4H19FeC3H2CH3CHCHCHNH2C2HCFeC3H2CH2CFeS2FeS2FeSFeHS2HCH2C2HCHCH2C3H2C2HCH2C2SC2H6CH2C2H4SC2H3CH2CH2NCH2CHNHCH4CNHCHC4HC2H3C2SC2H2CH10CH2C2H2CNH4CHC2HC2H2CHFeCH6CHSHSCFeSFeS2FeS2CH3S2CHSHS2CH2FeC3H6C4H2SCNC3HCHFeHCH4CH3CH2CHFeCH3C4H6CH2CHC2H6FeHC3H2CHCHFeH2NCSHCSCH8CH4NC2HFeHSHS2FeCFeCH6CH5CH4SHCH3CH3C2H3CHFeH2CSH3SHC2HCH2NHCHCH6CHCHCHCHC2HCH2FeSFeCHC2S2HCH4CHC2HCH6CNH3CH6CS2CH3CH4FeHSH4CH3CHC2H5FeHCHNCH2CH2CHCFeSHSFeSCHSCHSFeSFeCSH2S2FeH2C2H3CHCH3C3H2CHCH7SHCH3FeCHNHSCHCH4CHCHSH2CH3C2H4CHC2H2CHC2H3CSHCHC2H2CSCH2CHCH5CHSFeS2FeS2FeSFeS3H4CSHC4H4C3H2C2H6CH6CH6CHC4H2C2H2CH2C2H2CHCHCHNH2SH2NH2C2H2CHC2HC2NC2SC2HCHC2HCH6CH2C4HCHCH6CH3SCHCH3CHNC
_chemical_formula_sum              "H768 Fe64 S128 C448 N32"
_cell_length_a       34.9348
_cell_length_b       35.2881
_cell_length_c       49.6476
_cell_angle_alpha    90.1037
_cell_angle_beta     89.9017
_cell_angle_gamma    89.9555

_space_group_name_H-M_alt    "P 1"
_space_group_IT_number       1

loop_
  _space_group_symop_operation_xyz
  'x, y, z'

loop_
  _atom_site_type_symbol
  _atom_site_label
  _atom_site_symmetry_multiplicity
  _atom_site_fract_x
  _atom_site_fract_y
  _atom_site_fract_z
  _atom_site_occupancy
  H   H1        1.0  0.05184  0.31597  0.02202  1.0000
  H   H2        1.0  0.33706  0.02763  0.07786  1.0000
  H   H3        1.0  0.40216  0.45920  0.25724  1.0000
  Fe  Fe1       1.0  0.02025  0.08448  0.09164  1.0000
  S   S1        1.0  0.02393  0.14579  0.07742  1.0000
  C   C1        1.0  0.00259  0.35835  0.05305  1.0000
  H   H4        1.0  0.01254  0.37058  0.21990  1.0000
  H   H5        1.0  0.01203  0.29764  0.26798  1.0000
  S   S2        1.0  0.05865  0.06052  0.12379  1.0000
  S   S3        1.0  0.03221  0.03570  0.06331  1.0000
  C   C2        1.0  0.43003  0.45162  0.99263  1.0000
  H   H6        1.0  0.14140  0.04212  0.15087  1.0000
  Fe  Fe2       1.0  0.00473  0.03321  0.13993  1.0000
  C   C3        1.0  0.10859  0.03245  0.18856  1.0000
  H   H7        1.0  0.99575  0.07845  0.01509  1.0000
  H   H8        1.0  0.34108  0.39599  0.30172  1.0000
  H   H9        1.0  0.27745  0.05158  0.06471  1.0000
  H   H10       1.0  0.37203  0.49656  0.28461  1.0000
  C   C4        1.0  0.99495  0.21840  0.07718  1.0000
  H   H11       1.0  0.40570  0.41149  0.28735  1.0000
  H   H12       1.0  0.28151  0.38983  0.26684  1.0000
  H   H13       1.0  0.23965  0.40792  0.28326  1.0000
  H   H14       1.0  0.99111  0.33480  0.06541  1.0000
  H   H15       1.0  0.47690  0.35923  0.99992  1.0000
  H   H16       1.0  0.06249  0.34207  0.06205  1.0000
  H   H17       1.0  0.41734  0.05589  0.06361  1.0000
  H   H18       1.0  0.02174  0.22603  0.06769  1.0000
  H   H19       1.0  0.13151  0.08326  0.17024  1.0000
  H   H20       1.0  0.31934  0.44417  0.23967  1.0000
  H   H21       1.0  0.04878  0.23119  0.29814  1.0000
  H   H22       1.0  0.16991  0.02501  0.10767  1.0000
  H   H23       1.0  0.33850  0.43539  0.32414  1.0000
  C   C5        1.0  0.04298  0.36667  0.06418  1.0000
  C   C6        1.0  0.13937  0.05281  0.17177  1.0000
  H   H24       1.0  0.40534  0.45482  0.30733  1.0000
  H   H25       1.0  0.30948  0.07235  0.02411  1.0000
  N   N1        1.0  0.33087  0.45006  0.28219  1.0000
  Fe  Fe3       1.0  0.01449  0.38505  0.32327  1.0000
  H   H26       1.0  0.24786  0.03727  0.03720  1.0000
  H   H27       1.0  0.39825  0.03942  0.09489  1.0000
  C   C7        1.0  0.39312  0.42613  0.30505  1.0000
  H   H28       1.0  0.06135  0.02306  0.23325  1.0000
  H   H29       1.0  0.16761  0.05190  0.18190  1.0000
  C   C8        1.0  0.34194  0.43617  0.25443  1.0000
  S   S4        1.0  0.46022  0.47802  0.04054  1.0000
  H   H30       1.0  0.03491  0.27451  0.31503  1.0000
  H   H31       1.0  0.01799  0.25040  0.25630  1.0000
  C   C9        1.0  0.30857  0.04100  0.02676  1.0000
  H   H32       1.0  0.40769  0.00610  0.06850  1.0000
  H   H33       1.0  0.40738  0.44032  0.00515  1.0000
  N   N2        1.0  0.34750  0.02626  0.03465  1.0000
  C   C10       1.0  0.27137  0.40608  0.28459  1.0000
  H   H34       1.0  0.05593  0.39221  0.05490  1.0000
  H   H35       1.0  0.39276  0.42937  0.22929  1.0000
  H   H36       1.0  0.40231  0.40991  0.32309  1.0000
  C   C11       1.0  0.46006  0.47210  0.00475  1.0000
  H   H37       1.0  0.11073  0.04516  0.20901  1.0000
  H   H38       1.0  0.37443  0.47597  0.22894  1.0000
  H   H39       1.0  0.27762  0.39032  0.30341  1.0000
  H   H40       1.0  0.06869  0.27558  0.28804  1.0000
  C   C12       1.0  0.37991  0.45149  0.24245  1.0000
  S   S5        1.0  0.00897  0.38170  0.27706  1.0000
  C   C13       1.0  0.04210  0.26168  0.29532  1.0000
  C   C14       1.0  0.28796  0.44659  0.28551  1.0000
  H   H41       1.0  0.34343  0.40465  0.25408  1.0000
  C   C15       1.0  0.27602  0.03242  0.04697  1.0000
  H   H42       1.0  0.08024  0.04148  0.18062  1.0000
  H   H43       1.0  0.37838  0.07374  0.01766  1.0000
  H   H44       1.0  0.27262  0.46263  0.26955  1.0000
  C   C16       1.0  0.37737  0.04226  0.01580  1.0000
  C   C17       1.0  0.01001  0.26745  0.27439  1.0000
  H   H45       1.0  0.04054  0.37270  0.08611  1.0000
  H   H46       1.0  0.99302  0.07333  0.23922  1.0000
  H   H47       1.0  0.43562  0.33175  0.00635  1.0000
  C   C18       1.0  0.34913  0.42630  0.30390  1.0000
  C   C19       1.0  0.39731  0.03511  0.07272  1.0000
  H   H48       1.0  0.24023  0.02184  0.11511  1.0000
  C   C20       1.0  0.98898  0.18073  0.08534  1.0000
  H   H49       1.0  0.01245  0.40923  0.01813  1.0000
  H   H50       1.0  0.35010  0.07216  0.06388  1.0000
  C   C21       1.0  0.01900  0.38159  0.00821  1.0000
  C   C22       1.0  0.02062  0.31253  0.01844  1.0000
  C   C23       1.0  0.35606  0.04116  0.06258  1.0000
  H   H51       1.0  0.40649  0.03193  0.02123  1.0000
  H   H52       1.0  0.27856  0.45937  0.30497  1.0000
  Fe  Fe4       1.0  0.06549  0.00910  0.09733  1.0000
  H   H53       1.0  0.27670  0.00273  0.05417  1.0000
  H   H54       1.0  0.01218  0.29066  0.03348  1.0000
  H   H55       1.0  0.99912  0.48530  0.01412  1.0000
  H   H56       1.0  0.29938  0.02976  0.00693  1.0000
  C   C24       1.0  0.34100  0.49112  0.28672  1.0000
  N   N3        1.0  0.00001  0.34950  0.02331  1.0000
  H   H57       1.0  0.05074  0.37876  0.00888  1.0000
  C   C25       1.0  0.18519  0.99891  0.10383  1.0000
  S   S6        1.0  0.99937  0.04429  0.18545  1.0000
  H   H58       1.0  0.98837  0.21694  0.31345  1.0000
  H   H59       1.0  0.98605  0.00726  0.01352  1.0000
  H   H60       1.0  0.98638  0.12802  0.01698  1.0000
  H   H61       1.0  0.15563  0.99757  0.21942  1.0000
  C   C26       1.0  0.22517  0.99706  0.10788  1.0000
  Fe  Fe5       1.0  0.02160  0.32554  0.36809  1.0000
  S   S7        1.0  0.02178  0.26104  0.37363  1.0000
  Fe  Fe6       1.0  0.08046  0.39218  0.36530  1.0000
  S   S8        1.0  0.03552  0.43260  0.35027  1.0000
  S   S9        1.0  0.14255  0.40509  0.37782  1.0000
  H   H62       1.0  0.38262  0.13546  0.52202  1.0000
  H   H63       1.0  0.41065  0.35762  0.62749  1.0000
  H   H64       1.0  0.16084  0.49572  0.44427  1.0000
  S   S10       1.0  0.04338  0.36800  0.39845  1.0000
  N   N4        1.0  0.09986  0.48670  0.43939  1.0000
  H   H65       1.0  0.27042  0.46337  0.38352  1.0000
  H   H66       1.0  0.03264  0.13106  0.47466  1.0000
  H   H67       1.0  0.46264  0.48700  0.52675  1.0000
  Fe  Fe7       1.0  0.38880  0.10011  0.60180  1.0000
  S   S11       1.0  0.43491  0.05944  0.61424  1.0000
  S   S12       1.0  0.39530  0.16360  0.59378  1.0000
  Fe  Fe8       1.0  0.32620  0.03704  0.60102  1.0000
  C   C27       1.0  0.46328  0.25705  0.59194  1.0000
  Fe  Fe9       1.0  0.39119  0.03510  0.64300  1.0000
  C   C28       1.0  0.00520  0.08390  0.41672  1.0000
  S   S13       1.0  0.34667  0.07856  0.63229  1.0000
  S   S14       1.0  0.36451  0.06260  0.56919  1.0000
  C   C29       1.0  0.20185  0.48913  0.33867  1.0000
  C   C30       1.0  0.99067  0.18968  0.37042  1.0000
  H   H68       1.0  0.45637  0.21294  0.51539  1.0000
  S   S15       1.0  0.26096  0.03239  0.59537  1.0000
  H   H69       1.0  0.00272  0.09250  0.50329  1.0000
  C   C31       1.0  0.46012  0.18690  0.52766  1.0000
  H   H70       1.0  0.47230  0.10918  0.46317  1.0000
  C   C32       1.0  0.43223  0.23184  0.58956  1.0000
  C   C33       1.0  0.43548  0.19386  0.59775  1.0000
  Fe  Fe10      1.0  0.99778  0.40663  0.38255  1.0000
  H   H71       1.0  0.40552  0.24181  0.58112  1.0000
  H   H72       1.0  0.14901  0.46325  0.41833  1.0000
  H   H73       1.0  0.45783  0.15574  0.49069  1.0000
  H   H74       1.0  0.04786  0.45857  0.42573  1.0000
  H   H75       1.0  0.45504  0.45733  0.42892  1.0000
  H   H76       1.0  0.00797  0.10656  0.40131  1.0000
  H   H77       1.0  0.01999  0.18026  0.36821  1.0000
  H   H78       1.0  0.01075  0.04751  0.46526  1.0000
  H   H79       1.0  0.14606  0.41546  0.44751  1.0000
  C   C34       1.0  0.11448  0.41626  0.44998  1.0000
  H   H80       1.0  0.42803  0.11602  0.55106  1.0000
  C   C35       1.0  0.47472  0.15441  0.50947  1.0000
  Fe  Fe11      1.0  0.40898  0.02064  0.58251  1.0000
  C   C36       1.0  0.21407  0.43797  0.38038  1.0000
  C   C37       1.0  0.17852  0.43766  0.36699  1.0000
  C   C38       1.0  0.17258  0.46351  0.34607  1.0000
  H   H81       1.0  0.00983  0.42367  0.50295  1.0000
  H   H82       1.0  0.48166  0.06371  0.56531  1.0000
  C   C39       1.0  0.05529  0.14806  0.43659  1.0000
  S   S16       1.0  0.45575  0.42852  0.65774  1.0000
  H   H83       1.0  0.06115  0.13794  0.41586  1.0000
  C   C40       1.0  0.98945  0.43255  0.46235  1.0000
  C   C41       1.0  0.43489  0.10326  0.53108  1.0000
  H   H84       1.0  0.21906  0.41817  0.39662  1.0000
  H   H85       1.0  0.08512  0.45872  0.40182  1.0000
  H   H86       1.0  0.06731  0.07137  0.41469  1.0000
  C   C42       1.0  0.47028  0.18128  0.60843  1.0000
  C   C43       1.0  0.13975  0.49018  0.42790  1.0000
  C   C44       1.0  0.47170  0.08275  0.47515  1.0000
  H   H87       1.0  0.46030  0.28602  0.58525  1.0000
  C   C45       1.0  0.40066  0.11314  0.51253  1.0000
  C   C46       1.0  0.10064  0.45534  0.46007  1.0000
  C   C47       1.0  0.46145  0.48052  0.50548  1.0000
  C   C48       1.0  0.47322  0.43787  0.46829  1.0000
  C   C49       1.0  0.38603  0.25002  0.65593  1.0000
  S   S17       1.0  0.47827  0.36818  0.59200  1.0000
  H   H88       1.0  0.17886  0.03292  0.59180  1.0000
  H   H89       1.0  0.03741  0.17404  0.43568  1.0000
  H   H90       1.0  0.40784  0.12185  0.49183  1.0000
  H   H91       1.0  0.14546  0.46378  0.33558  1.0000
  H   H92       1.0  0.03810  0.04431  0.39237  1.0000
  H   H93       1.0  0.38186  0.08788  0.51059  1.0000
  H   H94       1.0  0.38605  0.25808  0.63432  1.0000
  H   H95       1.0  0.43205  0.18041  0.53700  1.0000
  H   H96       1.0  0.44209  0.07196  0.47715  1.0000
  H   H97       1.0  0.48403  0.41115  0.46073  1.0000
  C   C50       1.0  0.18720  0.00433  0.59699  1.0000
  H   H98       1.0  0.27212  0.99899  0.64831  1.0000
  C   C51       1.0  0.23740  0.48944  0.35207  1.0000
  C   C52       1.0  0.45678  0.46404  0.45015  1.0000
  C   C53       1.0  0.03705  0.11736  0.45470  1.0000
  C   C54       1.0  0.24333  0.46361  0.37300  1.0000
  C   C55       1.0  0.03942  0.05665  0.41296  1.0000
  H   H99       1.0  0.38062  0.32195  0.64141  1.0000
  H   H100      1.0  0.23226  0.04895  0.65617  1.0000
  H   H101      1.0  0.10705  0.39431  0.46511  1.0000
  C   C56       1.0  0.40434  0.34146  0.64614  1.0000
  H   H102      1.0  0.05881  0.09484  0.45828  1.0000
  H   H103      1.0  0.39951  0.01489  0.50924  1.0000
  H   H104      1.0  0.44628  0.24539  0.65208  1.0000
  H   H105      1.0  0.43428  0.07208  0.53451  1.0000
  H   H106      1.0  0.03864  0.03251  0.42718  1.0000
  C   C57       1.0  0.44108  0.32103  0.65552  1.0000
  H   H107      1.0  0.10074  0.40802  0.43078  1.0000
  H   H108      1.0  0.47318  0.15215  0.61488  1.0000
  H   H109      1.0  0.07153  0.45043  0.46852  1.0000
  S   S18       1.0  0.06247  0.34651  0.33647  1.0000
  C   C58       1.0  0.99174  0.44084  0.49017  1.0000
  H   H110      1.0  0.00560  0.40914  0.45397  1.0000
  N   N5        1.0  0.00018  0.10055  0.44451  1.0000
  H   H111      1.0  0.08322  0.15660  0.44538  1.0000
  C   C59       1.0  0.07133  0.47658  0.41762  1.0000
  H   H112      1.0  0.11902  0.46334  0.47753  1.0000
  H   H113      1.0  0.45391  0.30701  0.63752  1.0000
  H   H114      1.0  0.40240  0.00414  0.45973  1.0000
  N   N6        1.0  0.47426  0.11551  0.52206  1.0000
  C   C60       1.0  0.42235  0.99798  0.50071  1.0000
  C   C61       1.0  0.47554  0.44577  0.49608  1.0000
  H   H115      1.0  0.48109  0.19403  0.54367  1.0000
  C   C62       1.0  0.98788  0.06926  0.46328  1.0000
  H   H116      1.0  0.37727  0.21980  0.65733  1.0000
  H   H117      1.0  0.45084  0.09680  0.79020  1.0000
  N   N7        1.0  0.45258  0.15616  0.77801  1.0000
  Fe  Fe12      1.0  0.34836  0.41974  0.84578  1.0000
  S   S19       1.0  0.40522  0.45027  0.84169  1.0000
  S   S20       1.0  0.29491  0.45385  0.83325  1.0000
  Fe  Fe13      1.0  0.38890  0.34528  0.86053  1.0000
  S   S21       1.0  0.44698  0.37157  0.85785  1.0000
  S   S22       1.0  0.38104  0.28229  0.86984  1.0000
  Fe  Fe14      1.0  0.42164  0.42108  0.88058  1.0000
  H   H118      1.0  0.45170  0.28535  0.97667  1.0000
  Fe  Fe15      1.0  0.42576  0.39831  0.81936  1.0000
  H   H119      1.0  0.01928  0.26339  0.99195  1.0000
  S   S23       1.0  0.36396  0.39309  0.88572  1.0000
  S   S24       1.0  0.36852  0.36946  0.82114  1.0000
  C   C63       1.0  0.47040  0.14416  0.75155  1.0000
  H   H120      1.0  0.42998  0.23227  0.68387  1.0000
  H   H121      1.0  0.02831  0.45911  0.73014  1.0000
  S   S25       1.0  0.12208  0.47468  0.87546  1.0000
  C   C64       1.0  0.42546  0.02776  0.71420  1.0000
  H   H122      1.0  0.48165  0.36083  0.91211  1.0000
  C   C65       1.0  0.41931  0.24913  0.86943  1.0000
  C   C66       1.0  0.41222  0.21119  0.87652  1.0000
  C   C67       1.0  0.44233  0.18457  0.87780  1.0000
  H   H123      1.0  0.38337  0.20250  0.88149  1.0000
  H   H124      1.0  0.43664  0.15569  0.88390  1.0000
  C   C68       1.0  0.48141  0.35744  0.93443  1.0000
  C   C69       1.0  0.43073  0.42016  0.73795  1.0000
  C   C70       1.0  0.42910  0.42830  0.71011  1.0000
  C   C71       1.0  0.41637  0.21599  0.79594  1.0000
  H   H125      1.0  0.40841  0.43022  0.75133  1.0000
  H   H126      1.0  0.40528  0.44451  0.70229  1.0000
  C   C72       1.0  0.24719  0.45949  0.84574  1.0000
  C   C73       1.0  0.23246  0.43757  0.86681  1.0000
  C   C74       1.0  0.19430  0.44282  0.87562  1.0000
  H   H127      1.0  0.38065  0.29648  0.73714  1.0000
  H   H128      1.0  0.42355  0.27888  0.93202  1.0000
  H   H129      1.0  0.25044  0.41647  0.87625  1.0000
  H   H130      1.0  0.18331  0.42554  0.89185  1.0000
  C   C75       1.0  0.45801  0.45977  0.94792  1.0000
  C   C76       1.0  0.42881  0.44574  0.96446  1.0000
  H   H131      1.0  0.40533  0.43019  0.95556  1.0000
  C   C77       1.0  0.44146  0.02520  0.76238  1.0000
  H   H132      1.0  0.27567  0.07150  0.66406  1.0000
  H   H133      1.0  0.08687  0.38587  0.81601  1.0000
  H   H134      1.0  0.15288  0.47924  0.78127  1.0000
  H   H135      1.0  0.16803  0.37474  0.77271  1.0000
  C   C78       1.0  0.27832  0.01022  0.66876  1.0000
  S   S26       1.0  0.39052  0.02197  0.68838  1.0000
  H   H136      1.0  0.43469  0.36466  0.97947  1.0000
  C   C79       1.0  0.43205  0.12224  0.78949  1.0000
  C   C80       1.0  0.05859  0.46053  0.73697  1.0000
  H   H137      1.0  0.36344  0.26582  0.66674  1.0000
  C   C81       1.0  0.12442  0.48098  0.77130  1.0000
  H   H138      1.0  0.09911  0.38719  0.77095  1.0000
  C   C82       1.0  0.40360  0.28366  0.72452  1.0000
  H   H139      1.0  0.17938  0.42295  0.77957  1.0000
  H   H140      1.0  0.43281  0.02004  0.78298  1.0000
  C   C83       1.0  0.37318  0.03283  0.98568  1.0000
  H   H141      1.0  0.02651  0.40952  0.96955  1.0000
  H   H142      1.0  0.39427  0.25456  0.71928  1.0000
  N   N8        1.0  0.09984  0.44771  0.77920  1.0000
  C   C84       1.0  0.11863  0.41196  0.76893  1.0000
  H   H143      1.0  0.46130  0.34421  0.66088  1.0000
  H   H144      1.0  0.40048  0.36264  0.93696  1.0000
  H   H145      1.0  0.26022  0.02975  0.73616  1.0000
  C   C85       1.0  0.15701  0.40103  0.78233  1.0000
  H   H146      1.0  0.13152  0.48055  0.74942  1.0000
  H   H147      1.0  0.06835  0.48996  0.73323  1.0000
  H   H148      1.0  0.15377  0.39473  0.80409  1.0000
  H   H149      1.0  0.12448  0.41418  0.74696  1.0000
  C   C86       1.0  0.18507  0.49224  0.84271  1.0000
  H   H150      1.0  0.38552  0.01370  0.74580  1.0000
  H   H151      1.0  0.39492  0.04923  0.97421  1.0000
  H   H152      1.0  0.38483  0.14107  0.81567  1.0000
  C   C87       1.0  0.41318  0.12703  0.81729  1.0000
  C   C88       1.0  0.22310  0.48671  0.83371  1.0000
  S   S27       1.0  0.45961  0.45114  0.91237  1.0000
  C   C89       1.0  0.39694  0.33167  0.93935  1.0000
  H   H153      1.0  0.04212  0.47105  0.77822  1.0000
  H   H154      1.0  0.24632  0.05631  0.69100  1.0000
  C   C90       1.0  0.09627  0.44730  0.80940  1.0000
  C   C91       1.0  0.42489  0.18822  0.77253  1.0000
  C   C92       1.0  0.40942  0.30847  0.69930  1.0000
  H   H155      1.0  0.07524  0.44049  0.72437  1.0000
  S   S28       1.0  0.46728  0.39132  0.78360  1.0000
  H   H156      1.0  0.42425  0.10960  0.73326  1.0000
  H   H157      1.0  0.37988  0.00266  0.98168  1.0000
  C   C93       1.0  0.46337  0.03781  0.70862  1.0000
  C   C94       1.0  0.06028  0.45034  0.76714  1.0000
  H   H158      1.0  0.37163  0.32363  0.92705  1.0000
  H   H159      1.0  0.44141  0.23443  0.80025  1.0000
  H   H160      1.0  0.30805  0.02315  0.74760  1.0000
  H   H161      1.0  0.46723  0.23738  0.92347  1.0000
  C   C95       1.0  0.25641  0.04833  0.67071  1.0000
  H   H162      1.0  0.30950  0.01675  0.66867  1.0000
  C   C96       1.0  0.17033  0.47021  0.86373  1.0000
  H   H163      1.0  0.41887  0.33704  0.70634  1.0000
  S   S29       1.0  0.01431  0.47606  0.86004  1.0000
  C   C97       1.0  0.07394  0.41355  0.82132  1.0000
  H   H164      1.0  0.39254  0.23514  0.79009  1.0000
  H   H165      1.0  0.40903  0.09862  0.82641  1.0000
  C   C98       1.0  0.46176  0.39999  0.74850  1.0000
  H   H166      1.0  0.42961  0.28285  0.73730  1.0000
  C   C99       1.0  0.45673  0.25999  0.86306  1.0000
  H   H167      1.0  0.38974  0.32438  0.96047  1.0000
  H   H168      1.0  0.43352  0.31346  0.90702  1.0000
  H   H169      1.0  0.42394  0.15886  0.72282  1.0000
  H   H170      1.0  0.43150  0.14228  0.83176  1.0000
  C   C100      1.0  0.41469  0.02164  0.74122  1.0000
  H   H171      1.0  0.40847  0.11321  0.77594  1.0000
  H   H172      1.0  0.43583  0.20653  0.75594  1.0000
  H   H173      1.0  0.08170  0.47343  0.81672  1.0000
  H   H174      1.0  0.40757  0.20175  0.81475  1.0000
  H   H175      1.0  0.12491  0.44804  0.81906  1.0000
  C   C101      1.0  0.45821  0.41617  0.69246  1.0000
  H   H176      1.0  0.04465  0.42304  0.76943  1.0000
  C   C102      1.0  0.47955  0.03462  0.75674  1.0000
  C   C103      1.0  0.44230  0.13453  0.72850  1.0000
  H   H177      1.0  0.39688  0.17694  0.76542  1.0000
  C   C104      1.0  0.00805  0.38706  0.97835  1.0000
  H   H178      1.0  0.04339  0.41414  0.81526  1.0000
  H   H179      1.0  0.48271  0.31634  0.70333  1.0000
  H   H180      1.0  0.47532  0.26698  0.70764  1.0000
  H   H181      1.0  0.38056  0.31335  0.69077  1.0000
  C   C105      1.0  0.43172  0.30899  0.92917  1.0000
  H   H182      1.0  0.46028  0.37859  0.94132  1.0000
  N   N9        1.0  0.46987  0.31765  0.94196  1.0000
  H   H183      1.0  0.04100  0.30452  0.97691  1.0000
  H   H184      1.0  0.01220  0.36134  0.96603  1.0000
  H   H185      1.0  0.45912  0.12667  0.71029  1.0000
  C   C106      1.0  0.42622  0.25455  0.66826  1.0000
  H   H186      1.0  0.07463  0.41568  0.84365  1.0000
  S   S30       1.0  0.47334  0.06285  0.85726  1.0000
  H   H187      1.0  0.21850  0.00699  0.70731  1.0000
  H   H188      1.0  0.30088  0.04754  0.71676  1.0000
  H   H189      1.0  0.34491  0.04062  0.97732  1.0000
  H   H190      1.0  0.46264  0.28891  0.85732  1.0000
  C   C107      1.0  0.47989  0.19573  0.87207  1.0000
  C   C108      1.0  0.28981  0.02394  0.72929  1.0000
  H   H191      1.0  0.39476  0.36268  0.66128  1.0000
  C   C109      1.0  0.46880  0.31118  0.97200  1.0000
  C   C110      1.0  0.47565  0.28983  0.69223  1.0000
  H   H192      1.0  0.47380  0.18024  0.81564  1.0000
  H   H193      1.0  0.47219  0.04245  0.68799  1.0000
  N   N10       1.0  0.43718  0.29331  0.67856  1.0000
  H   H194      1.0  0.98967  0.29991  0.98008  1.0000
  C   C111      1.0  0.01732  0.29473  0.99014  1.0000
  C   C112      1.0  0.48455  0.16977  0.79599  1.0000
  C   C113      1.0  0.47668  0.99827  0.96678  1.0000
  C   C114      1.0  0.45316  0.34391  0.98980  1.0000
  S   S31       1.0  0.45666  0.95248  0.04098  1.0000
  H   H195      1.0  0.11409  0.89466  0.03803  1.0000
  C   C115      1.0  0.41887  0.72563  0.29781  1.0000
  H   H196      1.0  0.44408  0.74404  0.13225  1.0000
  Fe  Fe16      1.0  0.38354  0.84341  0.09043  1.0000
  S   S32       1.0  0.44276  0.86711  0.09411  1.0000
  S   S33       1.0  0.37282  0.78004  0.08510  1.0000
  Fe  Fe17      1.0  0.34521  0.91993  0.10277  1.0000
  S   S34       1.0  0.40309  0.94735  0.10861  1.0000
  S   S35       1.0  0.29652  0.96363  0.10743  1.0000
  Fe  Fe18      1.0  0.42050  0.91702  0.07049  1.0000
  C   C116      1.0  0.45169  0.75686  0.15197  1.0000
  Fe  Fe19      1.0  0.42034  0.89545  0.13181  1.0000
  H   H197      1.0  0.01700  0.87902  0.07131  1.0000
  S   S36       1.0  0.36226  0.89121  0.06387  1.0000
  S   S37       1.0  0.36152  0.86997  0.12891  1.0000
  C   C117      1.0  0.16529  0.96717  0.09440  1.0000
  S   S38       1.0  0.45864  0.55913  0.09484  1.0000
  C   C118      1.0  0.24591  0.96360  0.10250  1.0000
  C   C119      1.0  0.22602  0.93190  0.09298  1.0000
  C   C120      1.0  0.18600  0.93373  0.08899  1.0000
  H   H198      1.0  0.24146  0.90599  0.08870  1.0000
  H   H199      1.0  0.17103  0.90895  0.08168  1.0000
  C   C121      1.0  0.45467  0.52593  0.26188  1.0000
  H   H200      1.0  0.44485  0.65495  0.99894  1.0000
  H   H201      1.0  0.04956  0.98145  0.19488  1.0000
  H   H202      1.0  0.05380  0.83195  0.04060  1.0000
  C   C122      1.0  0.45509  0.90019  0.20267  1.0000
  C   C123      1.0  0.44740  0.91469  0.25884  1.0000
  C   C124      1.0  0.41744  0.92290  0.24080  1.0000
  C   C125      1.0  0.42123  0.91581  0.21291  1.0000
  H   H203      1.0  0.39096  0.93462  0.24850  1.0000
  H   H204      1.0  0.39784  0.92215  0.19938  1.0000
  N   N11       1.0  0.40935  0.79620  0.28602  1.0000
  H   H205      1.0  0.40793  0.60905  0.05939  1.0000
  H   H206      1.0  0.10710  0.92095  0.13898  1.0000
  H   H207      1.0  0.44691  0.83916  0.30256  1.0000
  C   C126      1.0  0.43398  0.68174  0.08881  1.0000
  C   C127      1.0  0.40431  0.70882  0.09034  1.0000
  C   C128      1.0  0.41043  0.74652  0.08219  1.0000
  H   H208      1.0  0.42913  0.65304  0.09562  1.0000
  H   H209      1.0  0.37666  0.70073  0.09833  1.0000
  C   C129      1.0  0.44672  0.80808  0.29875  1.0000
  H   H210      1.0  0.35984  0.85931  0.30195  1.0000
  H   H211      1.0  0.05695  0.95777  0.04566  1.0000
  C   C130      1.0  0.10666  0.97396  0.16166  1.0000
  H   H212      1.0  0.14283  0.94974  0.21432  1.0000
  H   H213      1.0  0.10311  0.83098  0.03006  1.0000
  H   H214      1.0  0.04999  0.97724  0.24558  1.0000
  H   H215      1.0  0.12054  0.91499  0.17358  1.0000
  S   S39       1.0  0.11483  0.96755  0.08879  1.0000
  C   C131      1.0  0.39454  0.67747  0.01745  1.0000
  C   C132      1.0  0.10045  0.96450  0.01564  1.0000
  H   H216      1.0  0.40351  0.53832  0.04709  1.0000
  H   H217      1.0  0.29379  0.96295  0.01960  1.0000
  C   C133      1.0  0.37901  0.55822  0.04650  1.0000
  C   C134      1.0  0.45472  0.96092  0.00558  1.0000
  C   C135      1.0  0.08251  0.84392  0.04448  1.0000
  C   C136      1.0  0.32020  0.51976  0.26837  1.0000
  C   C137      1.0  0.07678  0.97613  0.20596  1.0000
  S   S40       1.0  0.36529  0.57493  0.32395  1.0000
  H   H218      1.0  0.46840  0.75057  0.20672  1.0000
  C   C138      1.0  0.06153  0.94806  0.02459  1.0000
  H   H219      1.0  0.20813  0.96558  0.19827  1.0000
  H   H220      1.0  0.40469  0.85214  0.26849  1.0000
  C   C139      1.0  0.39866  0.82220  0.26310  1.0000
  C   C140      1.0  0.44623  0.75662  0.07187  1.0000
  H   H221      1.0  0.44553  0.73221  0.30894  1.0000
  H   H222      1.0  0.09005  0.83493  0.06524  1.0000
  C   C141      1.0  0.44875  0.58071  0.01637  1.0000
  C   C142      1.0  0.40953  0.75564  0.27635  1.0000
  H   H223      1.0  0.33291  0.93141  0.01463  1.0000
  H   H224      1.0  0.36724  0.82102  0.25924  1.0000
  H   H225      1.0  0.07988  0.89966  0.06338  1.0000
  H   H226      1.0  0.36449  0.61646  0.04154  1.0000
  C   C143      1.0  0.39142  0.59963  0.04138  1.0000
  H   H227      1.0  0.33432  0.54783  0.26999  1.0000
  H   H228      1.0  0.08174  0.98716  0.15136  1.0000
  H   H229      1.0  0.40187  0.55715  0.26211  1.0000
  H   H230      1.0  0.03917  0.96271  0.01266  1.0000
  C   C144      1.0  0.42449  0.54557  0.24974  1.0000
  H   H231      1.0  0.44932  0.81524  0.23667  1.0000
  H   H232      1.0  0.39467  0.72206  0.31204  1.0000
  C   C145      1.0  0.10114  0.93061  0.15989  1.0000
  H   H233      1.0  0.43003  0.75100  0.25966  1.0000
  C   C146      1.0  0.48419  0.51170  0.24532  1.0000
  H   H234      1.0  0.42935  0.80567  0.17545  1.0000
  C   C147      1.0  0.46978  0.69193  0.07842  1.0000
  H   H235      1.0  0.37922  0.97353  0.03252  1.0000
  H   H236      1.0  0.34055  0.97224  0.05523  1.0000
  C   C148      1.0  0.08382  0.88762  0.04279  1.0000
  C   C149      1.0  0.42332  0.78971  0.15673  1.0000
  S   S41       1.0  0.43955  0.92120  0.29405  1.0000
  C   C150      1.0  0.41778  0.81475  0.23560  1.0000
  H   H237      1.0  0.44997  0.79601  0.31931  1.0000
  H   H238      1.0  0.99640  0.91388  0.01635  1.0000
  C   C151      1.0  0.48448  0.59355  0.00050  1.0000
  S   S42       1.0  0.44887  0.54109  0.16917  1.0000
  H   H239      1.0  0.44479  0.73479  0.16709  1.0000
  H   H240      1.0  0.48479  0.82406  0.13718  1.0000
  H   H241      1.0  0.44551  0.65258  0.03418  1.0000
  H   H242      1.0  0.29013  0.52403  0.27503  1.0000
  N   N12       1.0  0.05720  0.90562  0.02268  1.0000
  S   S43       1.0  0.01379  0.98017  0.11524  1.0000
  H   H243      1.0  0.13154  0.98114  0.14878  1.0000
  H   H244      1.0  0.00890  0.86647  0.02188  1.0000
  H   H245      1.0  0.40912  0.83755  0.22150  1.0000
  H   H246      1.0  0.38110  0.74820  0.26762  1.0000
  C   C152      1.0  0.37839  0.79957  0.30719  1.0000
  N   N13       1.0  0.11077  0.98976  0.18975  1.0000
  H   H247      1.0  0.39957  0.56475  0.21234  1.0000
  N   N14       1.0  0.41421  0.60663  0.01598  1.0000
  H   H248      1.0  0.00825  0.92905  0.06580  1.0000
  C   C153      1.0  0.45298  0.53590  0.20488  1.0000
  H   H249      1.0  0.07104  0.92282  0.16449  1.0000
  H   H250      1.0  0.12448  0.95412  0.02817  1.0000
  H   H251      1.0  0.09900  0.99239  0.24611  1.0000
  H   H252      1.0  0.39391  0.77799  0.15849  1.0000
  S   S44       1.0  0.45609  0.51703  0.29732  1.0000
  H   H253      1.0  0.37877  0.67702  0.03685  1.0000
  H   H254      1.0  0.17960  0.94510  0.17241  1.0000
  H   H255      1.0  0.40768  0.78789  0.22641  1.0000
  H   H256      1.0  0.48370  0.77362  0.27112  1.0000
  C   C154      1.0  0.18274  0.97061  0.18531  1.0000
  H   H257      1.0  0.42307  0.69767  0.28790  1.0000
  H   H258      1.0  0.44106  0.55189  0.00899  1.0000
  C   C155      1.0  0.42343  0.55005  0.22146  1.0000
  H   H259      1.0  0.33458  0.49930  0.30788  1.0000
  H   H260      1.0  0.35775  0.54828  0.03153  1.0000
  H   H261      1.0  0.45115  0.78537  0.06516  1.0000
  H   H262      1.0  0.42269  0.80934  0.13934  1.0000
  S   S45       1.0  0.46090  0.88857  0.16795  1.0000
  H   H263      1.0  0.35072  0.78813  0.29952  1.0000
  C   C156      1.0  0.32463  0.96180  0.01438  1.0000
  C   C157      1.0  0.42674  0.64755  0.01648  1.0000
  H   H264      1.0  0.18962  0.99500  0.17226  1.0000
  C   C158      1.0  0.34927  0.98345  0.03517  1.0000
  C   C159      1.0  0.47563  0.72943  0.06987  1.0000
  C   C160      1.0  0.01594  0.89580  0.02845  1.0000
  H   H265      1.0  0.07801  0.94490  0.20897  1.0000
  C   C161      1.0  0.00305  0.90010  0.05801  1.0000
  C   C162      1.0  0.14721  0.97700  0.20344  1.0000
  H   H266      1.0  0.45914  0.57660  0.03735  1.0000
  H   H267      1.0  0.36495  0.55658  0.06657  1.0000
  H   H268      1.0  0.40760  0.70613  0.01605  1.0000
  C   C163      1.0  0.48359  0.51693  0.21707  1.0000
  C   C164      1.0  0.48411  0.79979  0.28324  1.0000
  C   C165      1.0  0.47650  0.99082  0.99472  1.0000
  C   C166      1.0  0.07209  0.99347  0.23434  1.0000
  H   H269      1.0  0.41594  0.91555  0.99603  1.0000
  H   H270      1.0  0.47706  0.68534  0.13953  1.0000
  H   H271      1.0  0.32089  0.51124  0.24690  1.0000
  C   C167      1.0  0.48516  0.89219  0.22068  1.0000
  H   H272      1.0  0.19686  0.50894  0.32245  1.0000
  C   C168      1.0  0.37039  0.83999  0.31790  1.0000
  C   C169      1.0  0.48143  0.89948  0.24856  1.0000
  H   H273      1.0  0.32857  0.97168  0.99349  1.0000
  H   H274      1.0  0.37441  0.67457  0.00035  1.0000
  H   H275      1.0  0.09965  0.99576  0.01838  1.0000
  H   H276      1.0  0.38546  0.78230  0.32518  1.0000
  H   H277      1.0  0.36056  0.61212  0.99388  1.0000
  H   H278      1.0  0.06272  0.86020  0.99359  1.0000
  H   H279      1.0  0.10649  0.95918  0.99405  1.0000
  C   C170      1.0  0.06739  0.89136  0.99496  1.0000
  H   H280      1.0  0.42480  0.64673  0.40489  1.0000
  H   H281      1.0  0.02915  0.50755  0.46042  1.0000
  H   H282      1.0  0.03975  0.72717  0.62676  1.0000
  S   S46       1.0  0.35127  0.57481  0.38872  1.0000
  Fe  Fe20      1.0  0.33488  0.53726  0.35401  1.0000
  H   H283      1.0  0.13128  0.51222  0.38703  1.0000
  Fe  Fe21      1.0  0.38572  0.60914  0.35931  1.0000
  S   S47       1.0  0.38075  0.67359  0.36088  1.0000
  S   S48       1.0  0.43927  0.57513  0.36501  1.0000
  Fe  Fe22      1.0  0.48539  0.92849  0.39221  1.0000
  H   H284      1.0  0.47552  0.58932  0.41806  1.0000
  H   H285      1.0  0.00515  0.79862  0.48162  1.0000
  S   S49       1.0  0.04346  0.84590  0.63018  1.0000
  C   C171      1.0  0.08998  0.52298  0.45398  1.0000
  S   S50       1.0  0.04620  0.87885  0.56843  1.0000
  H   H286      1.0  0.00702  0.80239  0.51690  1.0000
  Fe  Fe23      1.0  0.01637  0.83152  0.59051  1.0000
  S   S51       1.0  0.01670  0.77154  0.57328  1.0000
  Fe  Fe24      1.0  0.06942  0.89665  0.60899  1.0000
  S   S52       1.0  0.13406  0.90430  0.61683  1.0000
  S   S53       1.0  0.01895  0.93477  0.61900  1.0000
  C   C172      1.0  0.05297  0.52181  0.47104  1.0000
  C   C173      1.0  0.05113  0.50973  0.40307  1.0000
  H   H287      1.0  0.08728  0.54716  0.43987  1.0000
  H   H288      1.0  0.07120  0.53061  0.39444  1.0000
  H   H289      1.0  0.17683  0.52183  0.40110  1.0000
  C   C174      1.0  0.99642  0.95357  0.50043  1.0000
  C   C175      1.0  0.45299  0.96915  0.46088  1.0000
  S   S54       1.0  0.27328  0.52219  0.34136  1.0000
  H   H290      1.0  0.02399  0.87337  0.51164  1.0000
  S   S55       1.0  0.38569  0.49841  0.35981  1.0000
  C   C176      1.0  0.99811  0.96110  0.47248  1.0000
  C   C177      1.0  0.14579  0.52042  0.40602  1.0000
  C   C178      1.0  0.15859  0.97666  0.60137  1.0000
  C   C179      1.0  0.16876  0.93967  0.60857  1.0000
  C   C180      1.0  0.20798  0.93073  0.61082  1.0000
  H   H291      1.0  0.46380  0.66344  0.35719  1.0000
  H   H292      1.0  0.13704  0.54917  0.41251  1.0000
  S   S56       1.0  0.45656  0.88336  0.36692  1.0000
  H   H293      1.0  0.44561  0.62002  0.47337  1.0000
  C   C181      1.0  0.02871  0.85117  0.49624  1.0000
  C   C182      1.0  0.04680  0.69806  0.63357  1.0000
  H   H294      1.0  0.01516  0.69215  0.56173  1.0000
  H   H295      1.0  0.35882  0.64485  0.42142  1.0000
  C   C183      1.0  0.41989  0.70506  0.36433  1.0000
  C   C184      1.0  0.41257  0.74352  0.36964  1.0000
  C   C185      1.0  0.44276  0.76975  0.37183  1.0000
  H   H296      1.0  0.38332  0.75307  0.37210  1.0000
  H   H297      1.0  0.43669  0.79924  0.37602  1.0000
  H   H298      1.0  0.05795  0.83963  0.49943  1.0000
  H   H299      1.0  0.98967  0.62968  0.64660  1.0000
  H   H300      1.0  0.42934  0.71698  0.45317  1.0000
  C   C186      1.0  0.42403  0.99172  0.47256  1.0000
  H   H301      1.0  0.42390  0.66345  0.48011  1.0000
  H   H302      1.0  0.20432  0.98870  0.65690  1.0000
  C   C187      1.0  0.48069  0.75769  0.36889  1.0000
  H   H303      1.0  0.02187  0.94478  0.51112  1.0000
  C   C188      1.0  0.44536  0.50684  0.48729  1.0000
  H   H304      1.0  0.26652  0.95082  0.60784  1.0000
  H   H305      1.0  0.02501  0.95779  0.46189  1.0000
  C   C189      1.0  0.45780  0.69291  0.36153  1.0000
  C   C190      1.0  0.44266  0.49874  0.45954  1.0000
  C   C191      1.0  0.23659  0.95830  0.60618  1.0000
  H   H306      1.0  0.43970  0.71223  0.41840  1.0000
  H   H307      1.0  0.05785  0.50715  0.49053  1.0000
  C   C192      1.0  0.47915  0.95981  0.50599  1.0000
  H   H308      1.0  0.43438  0.53349  0.49484  1.0000
  H   H309      1.0  0.11362  0.53123  0.46787  1.0000
  Fe  Fe25      1.0  0.40426  0.53855  0.39313  1.0000
  H   H310      1.0  0.21627  0.90221  0.61624  1.0000
  H   H311      1.0  0.37238  0.65746  0.45477  1.0000
  H   H312      1.0  0.07846  0.69664  0.63529  1.0000
  C   C193      1.0  0.38037  0.66077  0.43331  1.0000
  N   N15       1.0  0.45364  0.66243  0.44191  1.0000
  C   C194      1.0  0.44999  0.98212  0.51768  1.0000
  H   H313      1.0  0.04365  0.55114  0.47590  1.0000
  H   H314      1.0  0.41878  0.61364  0.43117  1.0000
  H   H315      1.0  0.47804  0.69209  0.49807  1.0000
  C   C195      1.0  0.42054  0.64453  0.42702  1.0000
  Fe  Fe26      1.0  0.99461  0.91400  0.57915  1.0000
  H   H316      1.0  0.02834  0.86441  0.47599  1.0000
  Fe  Fe27      1.0  0.41661  0.53831  0.33123  1.0000
  H   H317      1.0  0.39584  0.85264  0.32770  1.0000
  H   H318      1.0  0.03836  0.67743  0.61779  1.0000
  S   S57       1.0  0.42218  0.53345  0.43773  1.0000
  H   H319      1.0  0.37749  0.69082  0.42711  1.0000
  H   H320      1.0  0.03050  0.52453  0.41641  1.0000
  S   S58       1.0  0.45381  0.96313  0.42504  1.0000
  H   H321      1.0  0.34766  0.83853  0.33353  1.0000
  S   S59       1.0  0.36914  0.99239  0.61259  1.0000
  Fe  Fe28      1.0  0.99200  0.88273  0.63786  1.0000
  S   S60       1.0  0.45031  0.99002  0.55332  1.0000
  H   H322      1.0  0.32276  0.90867  0.65815  1.0000
  C   C196      1.0  0.45027  0.65113  0.47108  1.0000
  C   C197      1.0  0.98670  0.70010  0.56830  1.0000
  C   C198      1.0  0.45064  0.70498  0.43876  1.0000
  H   H323      1.0  0.48428  0.64300  0.50720  1.0000
  C   C199      1.0  0.99933  0.81867  0.49845  1.0000
  H   H324      1.0  0.12867  0.98414  0.59963  1.0000
  H   H325      1.0  0.03392  0.49823  0.38617  1.0000
  Fe  Fe29      1.0  0.47994  0.91278  0.33003  1.0000
  C   C200      1.0  0.48049  0.95310  0.47788  1.0000
  C   C201      1.0  0.48302  0.66310  0.49002  1.0000
  H   H326      1.0  0.48027  0.75902  0.44120  1.0000
  C   C202      1.0  0.22638  0.99551  0.59957  1.0000
  Fe  Fe30      1.0  0.06806  0.51014  0.86695  1.0000
  S   S61       1.0  0.05326  0.55296  0.83474  1.0000
  H   H327      1.0  0.23416  0.50395  0.81747  1.0000
  H   H328      1.0  0.03839  0.81730  0.77754  1.0000
  S   S62       1.0  0.04097  0.54416  0.90061  1.0000
  Fe  Fe31      1.0  0.02166  0.58431  0.86786  1.0000
  S   S63       1.0  0.02737  0.64821  0.87438  1.0000
  N   N16       1.0  0.98639  0.78662  0.78791  1.0000
  H   H329      1.0  0.11748  0.54142  0.76318  1.0000
  H   H330      1.0  0.19904  0.94101  0.66958  1.0000
  H   H331      1.0  0.02336  0.78119  0.73510  1.0000
  H   H332      1.0  0.09843  0.89529  0.99074  1.0000
  C   C203      1.0  0.43353  0.94572  0.96004  1.0000
  H   H333      1.0  0.16939  0.97815  0.68208  1.0000
  H   H334      1.0  0.01502  0.81874  0.85179  1.0000
  H   H335      1.0  0.00719  0.93742  0.75453  1.0000
  C   C204      1.0  0.04452  0.90910  0.97154  1.0000
  H   H336      1.0  0.41702  0.92788  0.94666  1.0000
  C   C205      1.0  0.99640  0.53897  0.74586  1.0000
  H   H337      1.0  0.01349  0.90267  0.97297  1.0000
  H   H338      1.0  0.00874  0.73822  0.76616  1.0000
  C   C206      1.0  0.10868  0.52058  0.77874  1.0000
  H   H339      1.0  0.33402  0.95795  0.66007  1.0000
  H   H340      1.0  0.98954  0.99300  0.96453  1.0000
  H   H341      1.0  0.02407  0.72689  0.88909  1.0000
  C   C207      1.0  0.32076  0.93420  0.67121  1.0000
  S   S64       1.0  0.45693  0.98179  0.91350  1.0000
  C   C208      1.0  0.02134  0.80823  0.83115  1.0000
  C   C209      1.0  0.27833  0.94184  0.67815  1.0000
  C   C210      1.0  0.19889  0.97151  0.67512  1.0000
  C   C211      1.0  0.40542  0.60521  0.96398  1.0000
  H   H342      1.0  0.42288  0.58074  0.95696  1.0000
  H   H343      1.0  0.26896  0.91897  0.69216  1.0000
  H   H344      1.0  0.28798  0.96279  0.72930  1.0000
  H   H345      1.0  0.02526  0.83128  0.73060  1.0000
  H   H346      1.0  0.00092  0.49918  0.96502  1.0000
  H   H347      1.0  0.00776  0.59371  0.95708  1.0000
  H   H348      1.0  0.42236  0.63153  0.96255  1.0000
  H   H349      1.0  0.32458  0.98367  0.70941  1.0000
  H   H350      1.0  0.00635  0.91982  0.70599  1.0000
  H   H351      1.0  0.03974  0.82989  0.82149  1.0000
  H   H352      1.0  0.38141  0.60940  0.94962  1.0000
  H   H353      1.0  0.04860  0.94016  0.97010  1.0000
  H   H354      1.0  0.05466  0.89675  0.95220  1.0000
  H   H355      1.0  0.11998  0.52989  0.79857  1.0000
  H   H356      1.0  0.04068  0.66067  0.66732  1.0000
  H   H357      1.0  0.22276  0.95839  0.71390  1.0000
  H   H358      1.0  0.38121  0.56714  0.99217  1.0000
  H   H359      1.0  0.01809  0.55064  0.75895  1.0000
  H   H360      1.0  0.04021  0.70914  0.67619  1.0000
  Fe  Fe32      1.0  0.98676  0.51222  0.89200  1.0000
  C   C212      1.0  0.43283  0.93865  0.98807  1.0000
  C   C213      1.0  0.99679  0.54729  0.71801  1.0000
  C   C214      1.0  0.38886  0.59775  0.99226  1.0000
  H   H361      1.0  0.98986  0.62162  0.69011  1.0000
  H   H362      1.0  0.33781  0.92818  0.68956  1.0000
  C   C215      1.0  0.00858  0.74995  0.78695  1.0000
  H   H363      1.0  0.99597  0.84413  0.77419  1.0000
  H   H364      1.0  0.03712  0.78116  0.83351  1.0000
  H   H365      1.0  0.03951  0.75449  0.79131  1.0000
  C   C216      1.0  0.00880  0.80809  0.74038  1.0000
  H   H366      1.0  0.07711  0.52198  0.77952  1.0000
  C   C217      1.0  0.98955  0.68172  0.87283  1.0000
  H   H367      1.0  0.16730  0.51365  0.83351  1.0000
  C   C218      1.0  0.29367  0.98580  0.71446  1.0000
  H   H368      1.0  0.02054  0.62573  0.93087  1.0000
  N   N17       1.0  0.26926  0.98050  0.68971  1.0000
  H   H369      1.0  0.01921  0.56506  0.70994  1.0000
  H   H370      1.0  0.01347  0.64967  0.71523  1.0000
  C   C219      1.0  0.45574  0.97530  0.94915  1.0000
  C   C220      1.0  0.00796  0.81526  0.77112  1.0000
  H   H371      1.0  0.01891  0.69919  0.81086  1.0000
  C   C221      1.0  0.22762  0.98002  0.69792  1.0000
  Fe  Fe33      1.0  0.99786  0.52088  0.82983  1.0000
  C   C222      1.0  0.99434  0.71743  0.80498  1.0000
  C   C223      1.0  0.99713  0.61797  0.94497  1.0000
  C   C224      1.0  0.99614  0.71915  0.88147  1.0000
  H   H372      1.0  0.99188  0.64254  0.95840  1.0000
  H   H373      1.0  0.47833  0.60010  0.97920  1.0000
  C   C225      1.0  0.98605  0.64542  0.70434  1.0000
  H   H374      1.0  0.26223  0.93698  0.65914  1.0000
  H   H375      1.0  0.01387  0.76515  0.66355  1.0000
  C   C226      1.0  0.02875  0.68864  0.66118  1.0000
  Fe  Fe34      1.0  0.82327  0.39487  0.09466  1.0000
  S   S65       1.0  0.86469  0.44082  0.10633  1.0000
  S   S66       1.0  0.75769  0.39790  0.08968  1.0000
  Fe  Fe35      1.0  0.88745  0.33337  0.09575  1.0000
  S   S67       1.0  0.93256  0.37566  0.10791  1.0000
  S   S68       1.0  0.89167  0.26853  0.09316  1.0000
  Fe  Fe36      1.0  0.88860  0.39934  0.13683  1.0000
  S   S69       1.0  0.88949  0.41550  0.18182  1.0000
  Fe  Fe37      1.0  0.90512  0.41365  0.07633  1.0000
  H   H376      1.0  0.71888  0.46393  0.01237  1.0000
  S   S70       1.0  0.84514  0.35492  0.12636  1.0000
  S   S71       1.0  0.86228  0.36986  0.06281  1.0000
  H   H377      1.0  0.86813  0.18504  0.05152  1.0000
  C   C227      1.0  0.97361  0.02733  0.21407  1.0000
  H   H378      1.0  0.64989  0.42066  0.03652  1.0000
  H   H379      1.0  0.76897  0.02771  0.30688  1.0000
  C   C228      1.0  0.95803  0.34752  0.01626  1.0000
  C   C229      1.0  0.88281  0.10809  0.05962  1.0000
  H   H380      1.0  0.50769  0.49641  0.25440  1.0000
  C   C230      1.0  0.94326  0.09235  0.03682  1.0000
  H   H381      1.0  0.92745  0.15888  0.00995  1.0000
  C   C231      1.0  0.91327  0.41432  0.23489  1.0000
  H   H382      1.0  0.90553  0.31539  0.02171  1.0000
  H   H383      1.0  0.88290  0.03589  0.01958  1.0000
  C   C232      1.0  0.93097  0.23639  0.09218  1.0000
  C   C233      1.0  0.95446  0.17140  0.09800  1.0000
  C   C234      1.0  0.92532  0.19885  0.10080  1.0000
  H   H384      1.0  0.94980  0.14283  0.10502  1.0000
  H   H385      1.0  0.89820  0.19095  0.10971  1.0000
  C   C235      1.0  0.77342  0.45545  0.23400  1.0000
  C   C236      1.0  0.72870  0.45751  0.18004  1.0000
  H   H386      1.0  0.69828  0.42036  0.99919  1.0000
  C   C237      1.0  0.98475  0.38272  0.22424  1.0000
  H   H387      1.0  0.93113  0.41457  0.27675  1.0000
  H   H388      1.0  0.97025  0.30335  0.23350  1.0000
  C   C238      1.0  0.94361  0.45863  0.01332  1.0000
  C   C239      1.0  0.65627  0.45283  0.10284  1.0000
  S   S72       1.0  0.96638  0.05958  0.10854  1.0000
  C   C240      1.0  0.72352  0.43442  0.09593  1.0000
  C   C241      1.0  0.68473  0.42466  0.09957  1.0000
  H   H389      1.0  0.85447  0.17010  0.01777  1.0000
  H   H390      1.0  0.78140  0.42652  0.24074  1.0000
  H   H391      1.0  0.71088  0.43996  0.19386  1.0000
  H   H392      1.0  0.67658  0.39508  0.09953  1.0000
  H   H393      1.0  0.82115  0.45515  0.20644  1.0000
  H   H394      1.0  0.55737  0.44199  0.01888  1.0000
  C   C242      1.0  0.77255  0.40375  0.18634  1.0000
  H   H395      1.0  0.96683  0.38209  0.18244  1.0000
  H   H396      1.0  0.93997  0.06118  0.03846  1.0000
  C   C243      1.0  0.75449  0.37906  0.16403  1.0000
  C   C244      1.0  0.88701  0.05541  0.00244  1.0000
  H   H397      1.0  0.93723  0.17118  0.31004  1.0000
  H   H398      1.0  0.80297  0.39448  0.18861  1.0000
  H   H399      1.0  0.92012  0.29700  0.22895  1.0000
  H   H400      1.0  0.91450  0.25168  0.26377  1.0000
  S   S73       1.0  0.51870  0.49106  0.10985  1.0000
  C   C245      1.0  0.95881  0.38912  0.20290  1.0000
  C   C246      1.0  0.95723  0.03507  0.26197  1.0000
  H   H401      1.0  0.72427  0.38658  0.15988  1.0000
  H   H402      1.0  0.77123  0.38021  0.14515  1.0000
  H   H403      1.0  0.75491  0.34896  0.17052  1.0000
  C   C247      1.0  0.97257  0.09994  0.01416  1.0000
  H   H404      1.0  0.93672  0.32141  0.25825  1.0000
  H   H405      1.0  0.93387  0.16436  0.04507  1.0000
  C   C248      1.0  0.78263  0.00876  0.29177  1.0000
  H   H406      1.0  0.74189  0.45870  0.23451  1.0000
  H   H407      1.0  0.88570  0.42691  0.23918  1.0000
  N   N18       1.0  0.90520  0.11213  0.03374  1.0000
  C   C249      1.0  0.91328  0.15384  0.02972  1.0000
  H   H408      1.0  0.95953  0.09855  0.99385  1.0000
  H   H409      1.0  0.89602  0.26953  0.30270  1.0000
  C   C250      1.0  0.79188  0.45540  0.15694  1.0000
  H   H410      1.0  0.78566  0.47542  0.24902  1.0000
  N   N19       1.0  0.63608  0.47228  0.01491  1.0000
  H   H411      1.0  0.96981  0.31486  0.30009  1.0000
  C   C251      1.0  0.66338  0.44808  0.03090  1.0000
  H   H412      1.0  0.89864  0.12148  0.07658  1.0000
  H   H413      1.0  0.55168  0.45879  0.05246  1.0000
  H   H414      1.0  0.71789  0.45116  0.15938  1.0000
  H   H415      1.0  0.88682  0.20890  0.02292  1.0000
  C   C252      1.0  0.93201  0.20044  0.30262  1.0000
  N   N20       1.0  0.77028  0.44618  0.18240  1.0000
  H   H416      1.0  0.89765  0.04865  0.06974  1.0000
  C   C253      1.0  0.73356  0.47277  0.09594  1.0000
  H   H417      1.0  0.61316  0.42195  0.99537  1.0000
  C   C254      1.0  0.87827  0.18053  0.03053  1.0000
  C   C255      1.0  0.97513  0.39176  0.25107  1.0000
  C   C256      1.0  0.97068  0.21823  0.29483  1.0000
  C   C257      1.0  0.94311  0.29762  0.24438  1.0000
  H   H418      1.0  0.95382  0.23749  0.24418  1.0000
  C   C258      1.0  0.88231  0.09769  0.01000  1.0000
  C   C259      1.0  0.87251  0.06757  0.06840  1.0000
  H   H419      1.0  0.95951  0.05109  0.28050  1.0000
  H   H420      1.0  0.75775  0.39514  0.20519  1.0000
  H   H421      1.0  0.95718  0.10106  0.05603  1.0000
  C   C260      1.0  0.91291  0.44837  0.99679  1.0000
  C   C261      1.0  0.92293  0.40525  0.20805  1.0000
  S   S74       1.0  0.94437  0.44875  0.04857  1.0000
  C   C262      1.0  0.57336  0.44925  0.03747  1.0000
  C   C263      1.0  0.93904  0.40744  0.25629  1.0000
  H   H422      1.0  0.91835  0.21577  0.31953  1.0000
  H   H423      1.0  0.77866  0.44135  0.13926  1.0000
  C   C264      1.0  0.94449  0.25925  0.25914  1.0000
  H   H424      1.0  0.79196  0.49538  0.20436  1.0000
  H   H425      1.0  0.62657  0.44487  0.10529  1.0000
  H   H426      1.0  0.58724  0.42360  0.04581  1.0000
  H   H427      1.0  0.91534  0.04971  0.99320  1.0000
  H   H428      1.0  0.91216  0.19771  0.28536  1.0000
  H   H429      1.0  0.97141  0.27486  0.07476  1.0000
  H   H430      1.0  0.82156  0.44410  0.15809  1.0000
  H   H431      1.0  0.85989  0.06871  0.08895  1.0000
  H   H432      1.0  0.88836  0.43420  0.00544  1.0000
  H   H433      1.0  0.49345  0.00834  0.00804  1.0000
  C   C265      1.0  0.96639  0.24618  0.08102  1.0000
  H   H434      1.0  0.71945  0.42164  0.03176  1.0000
  H   H435      1.0  0.61192  0.49093  0.05300  1.0000
  C   C266      1.0  0.70192  0.43834  0.01732  1.0000
  C   C267      1.0  0.66632  0.49123  0.10231  1.0000
  H   H436      1.0  0.94363  0.37477  0.02143  1.0000
  H   H437      1.0  0.93236  0.32007  0.05184  1.0000
  C   C268      1.0  0.91505  0.29198  0.31036  1.0000
  N   N21       1.0  0.96988  0.25800  0.28369  1.0000
  H   H438      1.0  0.85494  0.12321  0.05843  1.0000
  H   H439      1.0  0.98458  0.38328  0.05822  1.0000
  H   H440      1.0  0.67040  0.46193  0.05028  1.0000
  H   H441      1.0  0.85027  0.05513  0.05517  1.0000
  C   C269      1.0  0.93513  0.31547  0.02985  1.0000
  H   H442      1.0  0.94741  0.28708  0.02574  1.0000
  C   C270      1.0  0.60221  0.48163  0.03269  1.0000
  C   C271      1.0  0.79052  0.46420  0.20602  1.0000
  H   H443      1.0  0.90554  0.31973  0.30218  1.0000
  C   C272      1.0  0.97624  0.04760  0.23848  1.0000
  C   C273      1.0  0.97520  0.47716  0.00157  1.0000
  H   H444      1.0  0.85118  0.10282  0.01325  1.0000
  H   H445      1.0  0.76309  0.48079  0.09272  1.0000
  C   C274      1.0  0.95840  0.28625  0.30515  1.0000
  H   H446      1.0  0.76069  0.00250  0.27649  1.0000
  Fe  Fe38      1.0  0.98059  0.00918  0.08210  1.0000
  C   C275      1.0  0.93562  0.00171  0.26148  1.0000
  H   H447      1.0  0.97191  0.27893  0.32475  1.0000
  H   H448      1.0  0.80556  0.02588  0.28212  1.0000
  H   H449      1.0  0.95323  0.34425  0.99435  1.0000
  H   H450      1.0  0.98448  0.19858  0.28011  1.0000
  H   H451      1.0  0.62154  0.02136  0.39321  1.0000
  H   H452      1.0  0.65409  0.00940  0.46479  1.0000
  C   C276      1.0  0.76027  0.46218  0.59796  1.0000
  H   H453      1.0  0.76791  0.42162  0.52429  1.0000
  S   S75       1.0  0.55153  0.37915  0.63426  1.0000
  H   H454      1.0  0.61685  0.06283  0.41247  1.0000
  S   S76       1.0  0.56680  0.37340  0.56930  1.0000
  C   C277      1.0  0.94538  0.48467  0.45695  1.0000
  Fe  Fe39      1.0  0.53423  0.33968  0.60040  1.0000
  S   S77       1.0  0.53796  0.27554  0.60606  1.0000
  Fe  Fe40      1.0  0.57878  0.41579  0.60221  1.0000
  S   S78       1.0  0.62838  0.45792  0.60808  1.0000
  S   S79       1.0  0.52434  0.44845  0.59443  1.0000
  Fe  Fe41      1.0  0.88877  0.07749  0.37008  1.0000
  S   S80       1.0  0.94205  0.04480  0.35941  1.0000
  S   S81       1.0  0.88415  0.14201  0.37273  1.0000
  C   C278      1.0  0.62791  0.03330  0.41350  1.0000
  H   H455      1.0  0.63049  0.42668  0.49226  1.0000
  H   H456      1.0  0.64641  0.06829  0.48462  1.0000
  H   H457      1.0  0.52774  0.06107  0.54870  1.0000
  S   S82       1.0  0.87321  0.04077  0.40574  1.0000
  S   S83       1.0  0.85047  0.04510  0.34147  1.0000
  C   C279      1.0  0.92946  0.11855  0.43632  1.0000
  H   H458      1.0  0.58351  0.46201  0.46676  1.0000
  S   S84       1.0  0.91826  0.48114  0.60429  1.0000
  H   H459      1.0  0.52195  0.09359  0.49892  1.0000
  S   S85       1.0  0.49768  0.41181  0.51770  1.0000
  S   S86       1.0  0.81118  0.46243  0.59432  1.0000
  C   C280      1.0  0.89763  0.41754  0.53767  1.0000
  H   H460      1.0  0.91058  0.14385  0.43505  1.0000
  H   H461      1.0  0.52833  0.19654  0.61888  1.0000
  Fe  Fe42      1.0  0.83950  0.00542  0.37609  1.0000
  C   C281      1.0  0.74012  0.42835  0.59272  1.0000
  C   C282      1.0  0.69990  0.42635  0.59568  1.0000
  C   C283      1.0  0.67923  0.45821  0.60414  1.0000
  H   H462      1.0  0.59468  0.06638  0.48341  1.0000
  H   H463      1.0  0.75581  0.40334  0.58658  1.0000
  H   H464      1.0  0.68502  0.40006  0.59171  1.0000
  H   H465      1.0  0.82647  0.39671  0.55338  1.0000
  H   H466      1.0  0.91710  0.09967  0.45188  1.0000
  H   H467      1.0  0.74003  0.02015  0.35244  1.0000
  C   C284      1.0  0.69929  0.49214  0.60910  1.0000
  C   C285      1.0  0.92278  0.17467  0.37298  1.0000
  C   C286      1.0  0.91505  0.21358  0.37603  1.0000
  C   C287      1.0  0.94490  0.24049  0.37597  1.0000
  H   H468      1.0  0.88573  0.22299  0.37833  1.0000
  H   H469      1.0  0.93855  0.27031  0.37839  1.0000
  S   S87       1.0  0.96235  0.44568  0.41018  1.0000
  C   C288      1.0  0.62740  0.41938  0.51383  1.0000
  N   N22       1.0  0.86526  0.40475  0.51980  1.0000
  C   C289      1.0  0.82801  0.41258  0.53406  1.0000
  C   C290      1.0  0.86798  0.42618  0.49355  1.0000
  C   C291      1.0  0.86779  0.36293  0.51393  1.0000
  H   H470      1.0  0.92870  0.40653  0.57459  1.0000
  C   C292      1.0  0.90628  0.34923  0.50206  1.0000
  H   H471      1.0  0.93021  0.35267  0.51652  1.0000
  Fe  Fe43      1.0  0.51121  0.40480  0.56274  1.0000
  H   H472      1.0  0.85138  0.41207  0.47728  1.0000
  C   C293      1.0  0.97044  0.13150  0.44319  1.0000
  H   H473      1.0  0.86160  0.34593  0.53229  1.0000
  H   H474      1.0  0.84526  0.35438  0.49929  1.0000
  H   H475      1.0  0.60577  0.44162  0.55125  1.0000
  H   H476      1.0  0.89457  0.44808  0.54285  1.0000
  C   C294      1.0  0.97075  0.47095  0.50163  1.0000
  H   H477      1.0  0.82384  0.47071  0.49769  1.0000
  H   H478      1.0  0.90529  0.36541  0.56217  1.0000
  H   H479      1.0  0.68337  0.04973  0.39732  1.0000
  C   C295      1.0  0.67193  0.03551  0.41559  1.0000
  H   H480      1.0  0.60835  0.00320  0.47845  1.0000
  H   H481      1.0  0.65608  0.41589  0.52310  1.0000
  C   C296      1.0  0.50825  0.07936  0.56069  1.0000
  H   H482      1.0  0.96700  0.13314  0.36709  1.0000
  Fe  Fe44      1.0  0.49677  0.40899  0.62453  1.0000
  C   C297      1.0  0.85515  0.46800  0.49450  1.0000
  H   H483      1.0  0.68124  0.05266  0.43312  1.0000
  H   H484      1.0  0.86173  0.48154  0.47485  1.0000
  H   H485      1.0  0.92825  0.10450  0.41640  1.0000
  C   C298      1.0  0.96077  0.16287  0.36997  1.0000
  C   C299      1.0  0.90209  0.39642  0.56467  1.0000
  C   C300      1.0  0.54404  0.00988  0.40954  1.0000
  C   C301      1.0  0.57457  0.48570  0.48013  1.0000
  H   H486      1.0  0.56196  0.05156  0.43813  1.0000
  H   H487      1.0  0.61307  0.39129  0.51490  1.0000
  H   H488      1.0  0.52275  0.08502  0.58019  1.0000
  H   H489      1.0  0.89798  0.42617  0.48590  1.0000
  H   H490      1.0  0.92550  0.41537  0.52696  1.0000
  H   H491      1.0  0.78238  0.37239  0.52353  1.0000
  C   C302      1.0  0.79129  0.40179  0.51855  1.0000
  H   H492      1.0  0.49060  0.05797  0.51165  1.0000
  H   H493      1.0  0.82591  0.44272  0.54053  1.0000
  C   C303      1.0  0.49125  0.08694  0.50277  1.0000
  H   H494      1.0  0.55015  0.47636  0.49252  1.0000
  C   C304      1.0  0.65496  0.49403  0.53311  1.0000
  C   C305      1.0  0.50148  0.20651  0.61068  1.0000
  H   H495      1.0  0.62222  0.08166  0.45484  1.0000
  H   H496      1.0  0.87823  0.40286  0.57874  1.0000
  H   H497      1.0  0.79437  0.40412  0.49645  1.0000
  H   H498      1.0  0.65977  0.48199  0.55353  1.0000
  H   H499      1.0  0.51429  0.02087  0.41103  1.0000
  H   H500      1.0  0.50434  0.16193  0.50303  1.0000
  Fe  Fe45      1.0  0.90316  0.01016  0.33271  1.0000
  H   H501      1.0  0.55095  0.00721  0.45263  1.0000
  C   C306      1.0  0.62138  0.06131  0.47175  1.0000
  C   C307      1.0  0.62397  0.01942  0.46271  1.0000
  C   C308      1.0  0.96631  0.45454  0.44549  1.0000
  H   H502      1.0  0.57294  0.44258  0.52467  1.0000
  H   H503      1.0  0.52827  0.13006  0.54125  1.0000
  C   C309      1.0  0.60316  0.44864  0.52947  1.0000
  H   H504      1.0  0.91345  0.36386  0.48295  1.0000
  C   C310      1.0  0.49814  0.24457  0.60252  1.0000
  H   H505      1.0  0.87052  0.48421  0.51023  1.0000
  Fe  Fe46      1.0  0.92430  0.00603  0.39367  1.0000
  H   H506      1.0  0.90420  0.31850  0.49742  1.0000
  H   H507      1.0  0.48735  0.06097  0.46324  1.0000
  N   N23       1.0  0.60804  0.01068  0.43522  1.0000
  C   C311      1.0  0.56606  0.02053  0.43528  1.0000
  S   S88       1.0  0.97291  0.36233  0.35415  1.0000
  H   H508      1.0  0.55691  0.02225  0.39112  1.0000
  C   C312      1.0  0.50002  0.11734  0.54649  1.0000
  S   S89       1.0  0.97494  0.47996  0.53690  1.0000
  C   C313      1.0  0.94762  0.49291  0.48479  1.0000
  H   H509      1.0  0.67228  0.01541  0.33747  1.0000
  H   H510      1.0  0.63507  0.49308  0.48413  1.0000
  H   H511      1.0  0.67413  0.47773  0.51941  1.0000
  H   H512      1.0  0.95375  0.10199  0.49301  1.0000
  H   H513      1.0  0.96921  0.14778  0.46240  1.0000
  H   H514      1.0  0.91001  0.29366  0.33244  1.0000
  H   H515      1.0  0.68535  0.00710  0.41656  1.0000
  H   H516      1.0  0.53370  0.48504  0.54020  1.0000
  C   C314      1.0  0.73947  0.49419  0.60598  1.0000
  H   H517      1.0  0.96781  0.05577  0.50350  1.0000
  H   H518      1.0  0.96284  0.05372  0.45495  1.0000
  H   H519      1.0  0.97934  0.06753  0.41083  1.0000
  H   H520      1.0  0.97814  0.15274  0.42755  1.0000
  N   N24       1.0  0.61353  0.48961  0.52490  1.0000
  C   C315      1.0  0.98292  0.22864  0.37327  1.0000
  C   C316      1.0  0.97757  0.08128  0.49229  1.0000
  H   H521      1.0  0.48748  0.13611  0.56224  1.0000
  Fe  Fe47      1.0  0.49555  0.01984  0.88749  1.0000
  H   H522      1.0  0.53636  0.27878  0.68623  1.0000
  S   S90       1.0  0.56455  0.07797  0.84311  1.0000
  H   H523      1.0  0.59504  0.01037  0.93736  1.0000
  S   S91       1.0  0.64043  0.01990  0.88870  1.0000
  S   S92       1.0  0.53988  0.05902  0.90459  1.0000
  Fe  Fe48      1.0  0.52081  0.10006  0.87247  1.0000
  C   C317      1.0  0.48683  0.23351  0.86457  1.0000
  Fe  Fe49      1.0  0.57977  0.03355  0.87346  1.0000
  C   C318      1.0  0.51560  0.14038  0.80271  1.0000
  H   H524      1.0  0.57781  0.49289  0.98204  1.0000
  H   H525      1.0  0.84438  0.01463  0.75087  1.0000
  H   H526      1.0  0.78491  0.03537  0.76262  1.0000
  H   H527      1.0  0.64930  0.44472  0.97707  1.0000
  H   H528      1.0  0.49095  0.24105  0.95586  1.0000
  H   H529      1.0  0.80972  0.03253  0.79462  1.0000
  C   C319      1.0  0.64391  0.45754  0.69235  1.0000
  H   H530      1.0  0.57365  0.44967  0.96406  1.0000
  H   H531      1.0  0.50696  0.25383  0.66293  1.0000
  H   H532      1.0  0.51136  0.38560  0.68968  1.0000
  H   H533      1.0  0.51580  0.24244  0.86017  1.0000
  H   H534      1.0  0.49917  0.19463  0.78673  1.0000
  C   C320      1.0  0.51012  0.28113  0.67375  1.0000
  H   H535      1.0  0.66673  0.45314  0.67700  1.0000
  H   H536      1.0  0.48844  0.11839  0.75418  1.0000
  H   H537      1.0  0.60925  0.48404  0.95425  1.0000
  H   H538      1.0  0.49352  0.02141  0.95881  1.0000
  S   S93       1.0  0.51942  0.16468  0.87589  1.0000
  H   H539      1.0  0.51957  0.04826  0.72511  1.0000
  C   C321      1.0  0.60593  0.46688  0.67797  1.0000
  H   H540      1.0  0.71483  0.00470  0.91057  1.0000
  H   H541      1.0  0.50826  0.46829  0.73069  1.0000
  H   H542      1.0  0.52815  0.29705  0.93739  1.0000
  C   C322      1.0  0.91368  0.45703  0.96900  1.0000
  H   H543      1.0  0.88946  0.44953  0.95653  1.0000
  H   H544      1.0  0.75910  0.02803  0.79315  1.0000
  H   H545      1.0  0.53019  0.45589  0.67381  1.0000
  C   C323      1.0  0.97636  0.48501  0.97368  1.0000
  C   C324      1.0  0.53834  0.48531  0.67959  1.0000
  H   H546      1.0  0.87556  0.01636  0.78754  1.0000
  H   H547      1.0  0.53223  0.13129  0.78480  1.0000
  H   H548      1.0  0.64142  0.43071  0.70389  1.0000
  C   C325      1.0  0.56915  0.45959  0.71947  1.0000
  H   H549      1.0  0.85654  0.00309  0.82003  1.0000
  Fe  Fe50      1.0  0.51754  0.03913  0.82871  1.0000
  H   H550      1.0  0.61324  0.48501  0.66053  1.0000
  H   H551      1.0  0.56434  0.00637  0.96646  1.0000
  C   C326      1.0  0.49055  0.38735  0.73075  1.0000
  S   S94       1.0  0.51497  0.03935  0.78237  1.0000
  H   H552      1.0  0.49825  0.30527  0.97952  1.0000
  H   H553      1.0  0.65328  0.48052  0.70607  1.0000
  H   H554      1.0  0.54442  0.35792  0.93277  1.0000
  S   S95       1.0  0.94350  0.48752  0.92234  1.0000
  H   H555      1.0  0.56280  0.42999  0.71299  1.0000
  C   C327      1.0  0.94536  0.47536  0.95721  1.0000
  C   C328      1.0  0.52084  0.37068  0.94473  1.0000
  H   H556      1.0  0.51472  0.37179  0.73870  1.0000
  C   C329      1.0  0.78613  0.02085  0.78242  1.0000
  H   H557      1.0  0.53642  0.15336  0.81688  1.0000
  H   H558      1.0  0.59539  0.43993  0.66885  1.0000
  N   N25       1.0  0.57531  0.48481  0.69528  1.0000
  H   H559      1.0  0.59557  0.45780  0.73189  1.0000
  C   C330      1.0  0.49020  0.04103  0.72975  1.0000
  H   H560      1.0  0.52514  0.36474  0.96638  1.0000
  C   C331      1.0  0.53729  0.47201  0.73928  1.0000
  H   H561      1.0  0.51546  0.30422  0.65912  1.0000
  H   H562      1.0  0.49003  0.16659  0.74386  1.0000
  H   H563      1.0  0.52304  0.40186  0.94194  1.0000
  H   H564      1.0  0.50326  0.11540  0.81296  1.0000
  H   H565      1.0  0.97817  0.39732  0.97625  1.0000
  H   H566      1.0  0.91880  0.48120  0.74693  1.0000
  C   C332      1.0  0.59468  0.47068  0.97174  1.0000
  H   H567      1.0  0.53831  0.45356  0.75741  1.0000
  C   C333      1.0  0.48878  0.39526  0.70293  1.0000
  H   H568      1.0  0.86530  0.04776  0.98703  1.0000
  C   C334      1.0  0.49270  0.24834  0.93419  1.0000
  H   H569      1.0  0.50078  0.29570  0.90726  1.0000
  C   C335      1.0  0.62411  0.45067  0.99014  1.0000
  H   H570      1.0  0.51752  0.23251  0.92572  1.0000
  C   C336      1.0  0.48801  0.48036  0.96005  1.0000
  C   C337      1.0  0.48899  0.48659  0.98820  1.0000
  H   H571      1.0  0.51070  0.49149  0.94750  1.0000
  C   C338      1.0  0.49901  0.29118  0.92948  1.0000
  H   H572      1.0  0.51424  0.49639  0.69194  1.0000
  H   H573      1.0  0.88935  0.11367  0.99130  1.0000
  Fe  Fe51      1.0  0.56618  0.53333  0.10206  1.0000
  S   S96       1.0  0.50763  0.65879  0.07462  1.0000
  Fe  Fe52      1.0  0.50899  0.59717  0.08849  1.0000
  C   C339      1.0  0.71717  0.94195  0.29459  1.0000
  H   H574      1.0  0.78638  0.90424  0.25779  1.0000
  C   C340      1.0  0.80035  0.97412  0.30631  1.0000
  C   C341      1.0  0.79260  0.93359  0.26488  1.0000
  S   S97       1.0  0.53813  0.57968  0.12677  1.0000
  S   S98       1.0  0.54070  0.55437  0.06307  1.0000
  H   H575      1.0  0.90491  0.55692  0.00481  1.0000
  C   C342      1.0  0.93880  0.96973  0.02088  1.0000
  H   H576      1.0  0.58579  0.88925  0.99983  1.0000
  H   H577      1.0  0.89120  0.93086  0.02106  1.0000
  H   H578      1.0  0.83185  0.97889  0.30624  1.0000
  H   H579      1.0  0.81248  0.49995  0.13067  1.0000
  C   C343      1.0  0.70519  0.50089  0.09925  1.0000
  H   H580      1.0  0.76660  0.50973  0.14423  1.0000
  C   C344      1.0  0.75301  0.92150  0.30526  1.0000
  C   C345      1.0  0.49909  0.75721  0.20375  1.0000
  H   H581      1.0  0.71360  0.93896  0.27252  1.0000
  C   C346      1.0  0.82151  0.90793  0.30537  1.0000
  H   H582      1.0  0.50752  0.79533  0.29808  1.0000
  H   H583      1.0  0.85085  0.91840  0.30062  1.0000
  H   H584      1.0  0.49191  0.81032  0.18314  1.0000
  H   H585      1.0  0.55439  0.82389  0.14400  1.0000
  H   H586      1.0  0.91692  0.95527  0.23647  1.0000
  H   H587      1.0  0.74937  0.89081  0.30051  1.0000
  C   C347      1.0  0.67207  0.53299  0.02904  1.0000
  N   N26       1.0  0.79140  0.93526  0.29525  1.0000
  H   H588      1.0  0.97167  0.89515  0.05927  1.0000
  H   H589      1.0  0.85415  0.92549  0.25602  1.0000
  H   H590      1.0  0.94975  0.97796  0.19503  1.0000
  C   C348      1.0  0.54185  0.80934  0.12629  1.0000
  H   H591      1.0  0.80972  0.51476  0.16473  1.0000
  H   H592      1.0  0.50871  0.77266  0.22205  1.0000
  H   H593      1.0  0.69145  0.92880  0.30392  1.0000
  H   H594      1.0  0.77004  0.95103  0.25546  1.0000
  H   H595      1.0  0.81895  0.87992  0.29510  1.0000
  H   H596      1.0  0.50310  0.73751  0.06158  1.0000
  C   C349      1.0  0.83076  0.94591  0.25187  1.0000
  S   S99       1.0  0.63184  0.52837  0.10397  1.0000
  S   S100      1.0  0.91165  0.98395  0.29064  1.0000
  C   C350      1.0  0.91271  0.94457  0.00876  1.0000
  H   H597      1.0  0.52085  0.73126  0.12181  1.0000
  H   H598      1.0  0.51158  0.88033  0.21302  1.0000
  H   H599      1.0  0.52466  0.67160  0.14751  1.0000
  C   C351      1.0  0.50605  0.78258  0.17909  1.0000
  H   H600      1.0  0.54235  0.83017  0.10952  1.0000
  H   H601      1.0  0.71332  0.53047  0.09878  1.0000
  H   H602      1.0  0.49834  0.61828  0.01036  1.0000
  H   H603      1.0  0.65021  0.54145  0.04413  1.0000
  Fe  Fe53      1.0  0.48910  0.53899  0.13235  1.0000
  H   H604      1.0  0.82731  0.94688  0.22964  1.0000
  S   S101      1.0  0.93640  0.97794  0.05628  1.0000
  H   H605      1.0  0.56025  0.78524  0.12009  1.0000
  H   H606      1.0  0.70339  0.50141  0.20608  1.0000
  H   H607      1.0  0.54719  0.73525  0.15219  1.0000
  H   H608      1.0  0.49457  0.69047  0.17343  1.0000
  C   C352      1.0  0.95192  0.99402  0.21353  1.0000
  H   H609      1.0  0.50481  0.89327  0.26210  1.0000
  H   H610      1.0  0.53725  0.78876  0.17905  1.0000
  H   H611      1.0  0.71647  0.97207  0.30071  1.0000
  C   C353      1.0  0.93325  0.98125  0.23712  1.0000
  H   H612      1.0  0.83968  0.97461  0.25842  1.0000
  C   C354      1.0  0.96618  0.98743  0.00465  1.0000
  C   C355      1.0  0.49989  0.79754  0.13142  1.0000
  H   H613      1.0  0.74230  0.51958  0.18601  1.0000
  H   H614      1.0  0.50594  0.57035  0.00069  1.0000
  H   H615      1.0  0.68380  0.55955  0.02035  1.0000
  H   H616      1.0  0.69614  0.51851  0.03931  1.0000
  H   H617      1.0  0.51227  0.50222  0.99717  1.0000
  Fe  Fe54      1.0  0.49195  0.51485  0.07180  1.0000
  H   H618      1.0  0.50641  0.50561  0.20469  1.0000
  C   C356      1.0  0.51754  0.73281  0.14416  1.0000
  H   H619      1.0  0.48761  0.78888  0.11172  1.0000
  N   N27       1.0  0.49366  0.76694  0.15219  1.0000
  C   C357      1.0  0.71830  0.49929  0.18636  1.0000
  H   H620      1.0  0.49221  0.82416  0.27037  1.0000
  H   H621      1.0  0.69732  0.50944  0.17114  1.0000
  C   C358      1.0  0.50227  0.69316  0.15194  1.0000
  H   H622      1.0  0.63387  0.52720  0.99560  1.0000
  H   H623      1.0  0.51627  0.73089  0.20269  1.0000
  C   C359      1.0  0.65483  0.50871  0.00618  1.0000
  H   H624      1.0  0.58584  0.50628  0.02486  1.0000
  C   C360      1.0  0.79493  0.49756  0.14926  1.0000
  Fe  Fe55      1.0  0.93200  0.53361  0.62856  1.0000
  S   S102      1.0  0.87228  0.55701  0.62369  1.0000
  H   H625      1.0  0.96349  0.75437  0.51758  1.0000
  S   S103      1.0  0.87828  0.53661  0.55873  1.0000
  Fe  Fe56      1.0  0.89599  0.58480  0.58623  1.0000
  S   S104      1.0  0.88386  0.64785  0.58037  1.0000
  C   C361      1.0  0.96886  0.72418  0.65138  1.0000
  H   H626      1.0  0.50726  0.72357  0.42428  1.0000
  S   S105      1.0  0.95564  0.56301  0.59169  1.0000
  C   C362      1.0  0.59362  0.94097  0.44795  1.0000
  H   H627      1.0  0.93182  0.84020  0.43921  1.0000
  S   S106      1.0  0.89024  0.96859  0.36600  1.0000
  Fe  Fe57      1.0  0.51332  0.85364  0.36765  1.0000
  S   S107      1.0  0.51964  0.78956  0.37189  1.0000
  Fe  Fe58      1.0  0.55855  0.92664  0.35718  1.0000
  C   C363      1.0  0.58975  0.51420  0.54338  1.0000
  S   S108      1.0  0.61172  0.96329  0.34883  1.0000
  H   H628      1.0  0.52520  0.59819  0.42185  1.0000
  H   H629      1.0  0.51025  0.50358  0.64307  1.0000
  S   S109      1.0  0.50377  0.96044  0.35504  1.0000
  S   S110      1.0  0.54121  0.89660  0.39542  1.0000
  Fe  Fe59      1.0  0.93677  0.51267  0.56696  1.0000
  H   H630      1.0  0.95764  0.82458  0.54285  1.0000
  H   H631      1.0  0.84758  0.88394  0.34132  1.0000
  C   C364      1.0  0.66032  0.96419  0.35953  1.0000
  C   C365      1.0  0.67574  0.93692  0.37680  1.0000
  H   H632      1.0  0.56214  0.94442  0.44729  1.0000
  H   H633      1.0  0.65802  0.91375  0.38371  1.0000
  H   H634      1.0  0.96920  0.78559  0.65461  1.0000
  C   C366      1.0  0.96187  0.95774  0.51447  1.0000
  H   H635      1.0  0.60388  0.94261  0.46901  1.0000
  C   C367      1.0  0.71420  0.93975  0.38528  1.0000
  H   H636      1.0  0.70252  0.53354  0.53592  1.0000
  H   H637      1.0  0.98116  0.83038  0.44673  1.0000
  H   H638      1.0  0.51168  0.66154  0.48070  1.0000
  C   C368      1.0  0.92098  0.68206  0.57831  1.0000
  C   C369      1.0  0.91314  0.72010  0.58489  1.0000
  C   C370      1.0  0.94207  0.74793  0.58356  1.0000
  H   H639      1.0  0.88458  0.72800  0.59123  1.0000
  H   H640      1.0  0.93575  0.77699  0.58894  1.0000
  C   C371      1.0  0.49661  0.60493  0.43043  1.0000
  H   H641      1.0  0.60803  0.53320  0.49449  1.0000
  C   C372      1.0  0.67090  0.53480  0.53356  1.0000
  H   H642      1.0  0.94172  0.78421  0.47305  1.0000
  H   H643      1.0  0.56322  0.50795  0.46648  1.0000
  H   H644      1.0  0.88692  0.83454  0.52897  1.0000
  H   H645      1.0  0.51731  0.70951  0.36172  1.0000
  H   H646      1.0  0.96427  0.64322  0.56449  1.0000
  H   H647      1.0  0.66482  0.55038  0.51469  1.0000
  H   H648      1.0  0.50055  0.94711  0.51886  1.0000
  S   S111      1.0  0.95764  0.94854  0.54969  1.0000
  H   H649      1.0  0.93710  0.72394  0.65295  1.0000
  C   C373      1.0  0.94943  0.84556  0.52714  1.0000
  H   H650      1.0  0.89973  0.88328  0.52104  1.0000
  H   H651      1.0  0.92283  0.62267  0.63198  1.0000
  H   H652      1.0  0.90985  0.66819  0.64443  1.0000
  Fe  Fe60      1.0  0.85973  0.50669  0.59675  1.0000
  C   C374      1.0  0.53767  0.50917  0.65371  1.0000
  H   H653      1.0  0.97573  0.66308  0.62252  1.0000
  N   N28       1.0  0.95778  0.83056  0.49928  1.0000
  H   H654      1.0  0.72574  0.91864  0.39882  1.0000
  S   S112      1.0  0.96372  0.86531  0.59892  1.0000
  C   C375      1.0  0.96545  0.97307  0.45820  1.0000
  H   H655      1.0  0.59987  0.91172  0.44088  1.0000
  C   C376      1.0  0.93398  0.76440  0.51350  1.0000
  H   H656      1.0  0.91999  0.77289  0.53262  1.0000
  H   H657      1.0  0.90493  0.86568  0.55423  1.0000
  H   H658      1.0  0.90254  0.97374  0.51086  1.0000
  H   H659      1.0  0.64529  0.96200  0.43024  1.0000
  C   C377      1.0  0.49003  0.64808  0.42902  1.0000
  H   H660      1.0  0.49081  0.65623  0.40734  1.0000
  C   C378      1.0  0.93310  0.79681  0.49273  1.0000
  H   H661      1.0  0.75443  0.52041  0.61010  1.0000
  S   S113      1.0  0.78572  0.97211  0.38850  1.0000
  H   H662      1.0  0.56091  0.50174  0.63944  1.0000
  H   H663      1.0  0.65999  0.55091  0.55121  1.0000
  C   C379      1.0  0.90768  0.85765  0.53267  1.0000
  H   H664      1.0  0.91761  0.73983  0.50556  1.0000
  H   H665      1.0  0.60567  0.96222  0.40825  1.0000
  H   H666      1.0  0.53824  0.52741  0.51963  1.0000
  C   C380      1.0  0.92935  0.97008  0.50022  1.0000
  C   C381      1.0  0.93104  0.97761  0.47230  1.0000
  H   H667      1.0  0.79653  0.88239  0.34203  1.0000
  H   H668      1.0  0.90268  0.80534  0.48993  1.0000
  H   H669      1.0  0.68370  0.51708  0.61551  1.0000
  H   H670      1.0  0.96747  0.87733  0.43858  1.0000
  C   C382      1.0  0.95792  0.67225  0.56991  1.0000
  H   H671      1.0  0.91855  0.86919  0.47962  1.0000
  C   C383      1.0  0.73784  0.96959  0.37646  1.0000
  C   C384      1.0  0.97907  0.73797  0.57527  1.0000
  H   H672      1.0  0.90570  0.98700  0.46173  1.0000
  H   H673      1.0  0.53226  0.53070  0.55515  1.0000
  C   C385      1.0  0.61432  0.96920  0.42925  1.0000
  H   H674      1.0  0.59798  0.54448  0.54151  1.0000
  C   C386      1.0  0.94934  0.86119  0.47904  1.0000
  C   C387      1.0  0.95788  0.85133  0.44929  1.0000
  H   H675      1.0  0.96410  0.88802  0.48424  1.0000
  H   H676      1.0  0.93175  0.51652  0.49314  1.0000
  H   H677      1.0  0.49613  0.59407  0.45135  1.0000
  C   C388      1.0  0.92977  0.64416  0.64753  1.0000
  S   S114      1.0  0.53555  0.88093  0.32960  1.0000
  H   H678      1.0  0.92751  0.50201  0.44414  1.0000
  C   C389      1.0  0.54616  0.51379  0.53896  1.0000
  H   H679      1.0  0.51589  0.66137  0.43775  1.0000
  C   C390      1.0  0.48772  0.72838  0.44163  1.0000
  C   C391      1.0  0.68396  0.99402  0.35071  1.0000
  H   H680      1.0  0.79206  0.97601  0.32791  1.0000
  H   H681      1.0  0.82166  0.92647  0.34788  1.0000
  C   C392      1.0  0.60928  0.50173  0.49588  1.0000
  S   S115      1.0  0.96951  0.98305  0.42306  1.0000
  C   C393      1.0  0.97201  0.65572  0.64409  1.0000
  H   H682      1.0  0.54181  0.97879  0.40724  1.0000
  H   H683      1.0  0.50252  0.93516  0.46945  1.0000
  C   C394      1.0  0.48805  0.71910  0.36398  1.0000
  H   H684      1.0  0.59501  0.50632  0.56482  1.0000
  C   C395      1.0  0.82135  0.90003  0.33592  1.0000
  H   H685      1.0  0.96738  0.87079  0.53153  1.0000
  H   H686      1.0  0.50303  0.72303  0.46068  1.0000
  H   H687      1.0  0.97488  0.72724  0.62960  1.0000
  H   H688      1.0  0.53779  0.53989  0.65840  1.0000
  H   H689      1.0  0.75116  0.92395  0.32759  1.0000
  C   C396      1.0  0.72249  0.99668  0.35903  1.0000
  H   H690      1.0  0.51824  0.92848  0.89492  1.0000
  S   S116      1.0  0.95326  0.87226  0.67476  1.0000
  Fe  Fe61      1.0  0.89520  0.83475  0.87040  1.0000
  S   S117      1.0  0.94800  0.87092  0.87072  1.0000
  S   S118      1.0  0.89244  0.77002  0.86916  1.0000
  Fe  Fe62      1.0  0.84161  0.90358  0.86185  1.0000
  S   S119      1.0  0.89151  0.94403  0.86153  1.0000
  S   S120      1.0  0.78093  0.91800  0.84692  1.0000
  Fe  Fe63      1.0  0.92177  0.90119  0.83535  1.0000
  S   S121      1.0  0.95898  0.91848  0.79937  1.0000
  Fe  Fe64      1.0  0.91384  0.91092  0.89720  1.0000
  S   S122      1.0  0.94755  0.94364  0.92968  1.0000
  S   S123      1.0  0.87119  0.86279  0.83347  1.0000
  S   S124      1.0  0.86188  0.87247  0.89907  1.0000
  H   H691      1.0  0.90825  0.61241  0.88801  1.0000
  H   H692      1.0  0.90733  0.70427  0.94445  1.0000
  H   H693      1.0  0.52998  0.88918  0.93504  1.0000
  H   H694      1.0  0.87802  0.59542  0.99071  1.0000
  C   C397      1.0  0.94229  0.95377  0.96471  1.0000
  S   S125      1.0  0.96571  0.55458  0.86124  1.0000
  H   H695      1.0  0.88038  0.64469  0.95806  1.0000
  C   C398      1.0  0.74232  0.94660  0.85902  1.0000
  C   C399      1.0  0.70853  0.94899  0.84362  1.0000
  C   C400      1.0  0.67715  0.97131  0.85221  1.0000
  C   C401      1.0  0.98429  0.91984  0.74685  1.0000
  H   H696      1.0  0.92245  0.74033  0.80500  1.0000
  H   H697      1.0  0.70657  0.93342  0.82489  1.0000
  H   H698      1.0  0.97323  0.76289  0.68643  1.0000
  H   H699      1.0  0.90625  0.78855  0.80943  1.0000
  C   C402      1.0  0.92592  0.87423  0.72676  1.0000
  C   C403      1.0  0.92633  0.88412  0.75432  1.0000
  C   C404      1.0  0.95564  0.90693  0.76455  1.0000
  H   H700      1.0  0.84342  0.90741  0.75068  1.0000
  H   H701      1.0  0.90426  0.87373  0.76770  1.0000
  C   C405      1.0  0.93060  0.73691  0.87065  1.0000
  C   C406      1.0  0.92407  0.69951  0.86195  1.0000
  H   H702      1.0  0.76994  0.96539  0.89534  1.0000
  H   H703      1.0  0.89618  0.69173  0.85428  1.0000
  H   H704      1.0  0.65141  0.88155  0.92046  1.0000
  H   H705      1.0  0.94117  0.68496  0.69261  1.0000
  H   H706      1.0  0.87790  0.93709  0.78465  1.0000
  H   H707      1.0  0.54445  0.88954  0.97868  1.0000
  C   C407      1.0  0.97285  0.68244  0.69060  1.0000
  H   H708      1.0  0.62520  0.92091  0.96479  1.0000
  H   H709      1.0  0.67775  0.50328  0.99106  1.0000
  H   H710      1.0  0.53413  0.95270  0.95060  1.0000
  H   H711      1.0  0.94810  0.76262  0.75796  1.0000
  H   H712      1.0  0.61995  0.87736  0.89149  1.0000
  H   H713      1.0  0.90323  0.85642  0.71906  1.0000
  C   C408      1.0  0.71288  0.98914  0.89183  1.0000
  H   H714      1.0  0.66088  0.90745  0.89039  1.0000
  H   H715      1.0  0.86682  0.63341  0.90476  1.0000
  H   H716      1.0  0.94436  0.55319  0.96221  1.0000
  H   H717      1.0  0.90211  0.55755  0.92240  1.0000
  H   H718      1.0  0.95939  0.62602  0.91130  1.0000
  H   H719      1.0  0.59933  0.55101  0.66539  1.0000
  C   C409      1.0  0.89545  0.57013  0.98561  1.0000
  H   H720      1.0  0.88906  0.76071  0.78214  1.0000
  C   C410      1.0  0.61094  0.54852  0.68599  1.0000
  C   C411      1.0  0.96800  0.97935  0.97683  1.0000
  C   C412      1.0  0.78836  0.97747  0.77902  1.0000
  C   C413      1.0  0.89372  0.58716  0.92758  1.0000
  H   H721      1.0  0.81879  0.98548  0.72865  1.0000
  H   H722      1.0  0.92441  0.63056  0.66731  1.0000
  C   C414      1.0  0.91490  0.76678  0.79441  1.0000
  C   C415      1.0  0.88320  0.60700  0.90104  1.0000
  H   H723      1.0  0.51939  0.87952  0.88677  1.0000
  H   H724      1.0  0.54936  0.97083  0.91970  1.0000
  C   C416      1.0  0.91442  0.93658  0.98086  1.0000
  H   H725      1.0  0.78120  0.96505  0.79902  1.0000
  H   H726      1.0  0.76747  0.90471  0.78258  1.0000
  C   C417      1.0  0.96686  0.74666  0.88036  1.0000
  C   C418      1.0  0.98323  0.80276  0.81601  1.0000
  H   H727      1.0  0.86630  0.58493  0.93884  1.0000
  H   H728      1.0  0.89440  0.91687  0.97190  1.0000
  C   C419      1.0  0.81674  0.92209  0.75713  1.0000
  H   H729      1.0  0.63501  0.95111  0.92334  1.0000
  C   C420      1.0  0.63754  0.89703  0.90370  1.0000
  H   H730      1.0  0.92492  0.65105  0.97425  1.0000
  C   C421      1.0  0.55477  0.89365  0.92130  1.0000
  H   H731      1.0  0.55948  0.90809  0.87790  1.0000
  N   N29       1.0  0.82539  0.96103  0.76831  1.0000
  H   H732      1.0  0.86397  0.58806  0.88935  1.0000
  H   H733      1.0  0.95241  0.68442  0.93536  1.0000
  S   S126      1.0  0.53603  0.99260  0.85737  1.0000
  H   H734      1.0  0.79860  0.92423  0.73872  1.0000
  H   H735      1.0  0.81346  0.88836  0.79455  1.0000
  N   N30       1.0  0.58210  0.92231  0.93309  1.0000
  H   H736      1.0  0.96383  0.63573  0.71883  1.0000
  H   H737      1.0  0.60190  0.52279  0.72430  1.0000
  C   C422      1.0  0.61418  0.93130  0.91384  1.0000
  C   C423      1.0  0.95343  0.67212  0.86285  1.0000
  H   H738      1.0  0.56860  0.86535  0.91936  1.0000
  H   H739      1.0  0.60339  0.94689  0.89591  1.0000
  C   C424      1.0  0.53745  0.90355  0.89364  1.0000
  H   H740      1.0  0.60842  0.87607  0.95505  1.0000
  C   C425      1.0  0.67916  0.99165  0.87639  1.0000
  C   C426      1.0  0.95479  0.88688  0.70907  1.0000
  H   H741      1.0  0.79184  0.86694  0.76592  1.0000
  C   C427      1.0  0.91184  0.64424  0.95437  1.0000
  C   C428      1.0  0.96837  0.51495  0.75653  1.0000
  N   N31       1.0  0.92435  0.60555  0.94458  1.0000
  C   C429      1.0  0.74426  0.96685  0.88324  1.0000
  C   C430      1.0  0.56046  0.95836  0.93871  1.0000
  S   S127      1.0  0.97041  0.54487  0.66559  1.0000
  C   C431      1.0  0.94039  0.50899  0.71126  1.0000
  C   C432      1.0  0.93103  0.58031  0.96867  1.0000
  H   H742      1.0  0.93606  0.80933  0.76825  1.0000
  C   C433      1.0  0.85431  0.95658  0.79061  1.0000
  H   H743      1.0  0.96835  0.83075  0.81548  1.0000
  C   C434      1.0  0.58340  0.99042  0.95255  1.0000
  C   C435      1.0  0.79620  0.89442  0.77641  1.0000
  H   H744      1.0  0.90188  0.96995  0.74807  1.0000
  C   C436      1.0  0.94698  0.78172  0.77583  1.0000
  H   H745      1.0  0.76399  0.96987  0.76557  1.0000
  H   H746      1.0  0.94828  0.64371  0.85552  1.0000
  H   H747      1.0  0.55960  0.54080  0.70957  1.0000
  H   H748      1.0  0.91074  0.67512  0.91533  1.0000
  H   H749      1.0  0.84120  0.94196  0.80817  1.0000
  H   H750      1.0  0.61285  0.57769  0.69436  1.0000
  C   C437      1.0  0.96122  0.60660  0.92876  1.0000
  H   H751      1.0  0.56486  0.93348  0.99073  1.0000
  H   H752      1.0  0.96719  0.57824  0.91979  1.0000
  C   C438      1.0  0.92126  0.67846  0.93611  1.0000
  C   C439      1.0  0.59873  0.90575  0.95854  1.0000
  C   C440      1.0  0.84031  0.98455  0.74520  1.0000
  C   C441      1.0  0.96860  0.53270  0.70052  1.0000
  H   H753      1.0  0.64067  0.53761  0.68470  1.0000
  C   C442      1.0  0.58589  0.52410  0.70491  1.0000
  H   H754      1.0  0.97288  0.69966  0.79438  1.0000
  C   C443      1.0  0.94054  0.49994  0.73899  1.0000
  H   H755      1.0  0.88794  0.99207  0.71737  1.0000
  H   H756      1.0  0.90247  0.98660  0.80837  1.0000
  H   H757      1.0  0.54089  0.50163  0.74628  1.0000
  H   H758      1.0  0.60757  0.98035  0.96493  1.0000
  H   H759      1.0  0.97223  0.77529  0.88722  1.0000
  H   H760      1.0  0.96508  0.78517  0.82931  1.0000
  C   C444      1.0  0.57154  0.90462  0.98310  1.0000
  H   H761      1.0  0.87610  0.94365  0.72242  1.0000
  H   H762      1.0  0.98226  0.72733  0.82420  1.0000
  H   H763      1.0  0.97984  0.80884  0.73129  1.0000
  S   S128      1.0  0.96774  0.50116  0.79114  1.0000
  C   C445      1.0  0.87262  0.99297  0.80208  1.0000
  H   H764      1.0  0.87760  0.54856  0.97524  1.0000
  C   C446      1.0  0.87869  0.97132  0.73287  1.0000
  H   H765      1.0  0.65147  0.97282  0.84011  1.0000
  H   H766      1.0  0.95174  0.59341  0.98293  1.0000
  H   H767      1.0  0.98392  0.70575  0.70350  1.0000
  C   C447      1.0  0.98396  0.90986  0.71930  1.0000
  H   H768      1.0  0.91863  0.49734  0.69818  1.0000
  N   N32       1.0  0.98565  0.68772  0.66188  1.0000
  C   C448      1.0  0.98250  0.76108  0.66512  1.0000
