data_image0
_chemical_formula_structural       NHSFeHSFeC2FeS2FeS2FeS2Fe2S3HSHSFeHSFeS2CH2C6H4C6H2CHNHSHC7H4C6H4C2HCHSH4CH8SHCH3CSCHC2NC5FeCH12CH6CH2CFeCHCH3CH4CH4CH5CH4C2H3CH2C3H8SC2H4CH3CHC2HNH3C2H2CH3CNH2CH2C8H4CH2SH3CH3CSH4CHC2HCFeH3C2H2NCH3FeHFeSFeS2FeHSFeH2FeSCSHS2FeS2HFeSFeSH2SFeSC3H2C5H5C6H4SH2C8H4CHCH2SH2C6H6NC8H20NC2HC2HC2H2NH2CH5C3H7CH2CHC2HC2HC4H5C2SHCHC4H4CSH5NHCHCSCHC2H3CH2SH4CH4CSC2FeH2SH10CHC2H2C2H6NHSHSCH3CH2CH6CH3CFeH4SC2HFeCHFeS2FeSCSNFeSH2SFeSH3C2SC3H3CHCH5CH6C6SHCH3C2HCH5CSHCH2CNC6HCH2SH5C2NC2H14C2H2C4HFeHCH2NHC2H4CHCSCH5S2H8CH3CFeSHFeSHFeSFeHSHFeS2FeSHFeSFeHS3C6HCH3CH3SCHCH3CH3C3H6CNH2C2HSCHCHCNHCH3CHC2H9CSHCHC2H2CHCHCH2SH2C3HSHCHC2H7CH2CH2CNC2H4CH3C2H2CH2CHSH7FeSHFeS2FeSFeS3CFeSFeS3CFeS2FeSFeS2HFeSCH3CH2C2H3CHC6HCH2C6H4CHC2H2C6H5C2NCH2C2H2CH2C2HCH2C2HNCHCHCH5C4H3C2H2CH2CHCH3CHC2HCHSH6FeC2H3NSH3CH2CH6SHCH2SCHFeCH4SH4C2H2NSH3C3H3SCH3CHCHC2H4SHCH5NHCH6CH2CSCH3CH15CH2C2HC2H5FeS3FeH2FeS2HFeSHSCFeSHS2CHSFeSCSC4SCH2C7H5CH2C6H5FeH3C6H5CH4CH2CH2C2SH4NHFeHCSCH3CH2CHC2HCH2C2H3CH4C2H5CHCHCH2SNC4SC3H6CH3CH3CH4C2H10CHNHSC3H2C4H7NCH3CH4CHN2H2CFeC3H2C2H7SCFeH3CH3C2HCHCH8CH3Fe2HCH4C2H2CHSC2H2NH2CH2CHCFeSH2CFeCSFeHSHFeS4FeS2CHFeNFeS2FeSFeSFeS3C6H4C3HNC7H5SCH3C5H4C6H4C2H2C2H4SH3CH2CH4C2HSH3CSH2C3HCHCH2CHFeNHC2H3CH2CH2C3H2C2HCH2CH4CH3NC8H13CH3SH4SHCHCH2CHCH2CHC2H8C3H10N2C2H6CHCH5C2H2C2H3SC3HS2HCH4CH2NH2SH2CHFeH6C3H7C3HCSHCHCHSFeS2HFeSFeC2SFe2SFeSFeSHSHFeS2HSFeSFeSHSFeSHCH3C2H2SCH3C6H4C6H9CNHC6H4C6H11NCH6CH2CHC2HCNHFeH2NC5HC3H8CHCHCHCNH2C3H2CH2CHNC4HCHC4H2C2HSHC2H3NC5HC2H13NH10CH2CH2C2H6SCHSH2CHCSH3CH2CHSCH2CH3NH2C3HSCH9CHSH2SFeSCFeHSFeSHS2FeH2FeH2FeHS3CH4CFeNH3C2H4C8H4CNCH3SC2H2CH4C5HCSH4NCH2CFeH2CH2FeH5SCHCHCHFeH2CH2SH4CSHC3H2SHC2HSH6C2HFeSHFeSCFeSFeSHSFeS2FeHCFe2S3HSH2SCHC4H4SHCSH2CSHCH2CH3CHC3NCHC6H4NC8H26CNH3C2H3SCHCH3C5HCHC2HC2H2CH6CHSH2CHCHCH6SCH2CSHFeS2FeHFeSHFeS2FeSCFeSFeS3FeS2FeC3FeH2C3H4C6H5CHCHCH3C6H4C6H4S2C2H5SCNH2CH6CH2C2HC2H2CSH2C2H2CH2CHCH8NCH2CH4CHCHSFeH2C2H2CHNC4HC2HC2H5CH2C2HC2H3SCH5CH8CH3CNSHSH2CFeH8CSHC2H2NC2HSHC2HCHCHCH10SHNH5CHCH5C2SCHFeS2FeSFeS2HFeSH2FeS2HS2FeS3H2CFeSHSC6H5CHCHC3H4C6H5C2H2C3HC3H3C6H4FeC3H3FeCH2NH2NC5HC3H7CH14CH6NHCH2CH9CH4FeH8CH8NHCH2CH2CFeNC8H11CSH3SH3NC5HC2H2C2HCH2CHCHCH2CH2CH4SC2SH4CHCHFeH2CH3SHC
_chemical_formula_sum              "N64 H1536 S256 Fe128 C896"
_cell_length_a       56.5489
_cell_length_b       56.5996
_cell_length_c       37.362
_cell_angle_alpha    90.4011
_cell_angle_beta     90.6153
_cell_angle_gamma    88.3833

_space_group_name_H-M_alt    "P 1"
_space_group_IT_number       1

loop_
  _space_group_symop_operation_xyz
  'x, y, z'

loop_
  _atom_site_type_symbol
  _atom_site_label
  _atom_site_symmetry_multiplicity
  _atom_site_fract_x
  _atom_site_fract_y
  _atom_site_fract_z
  _atom_site_occupancy
  N   N1        1.0  0.28087  0.17738  0.40057  1.0000
  H   H1        1.0  0.48787  0.08014  0.12035  1.0000
  S   S1        1.0  0.08821  0.26625  0.05054  1.0000
  Fe  Fe1       1.0  0.31144  0.27753  0.01030  1.0000
  H   H2        1.0  0.29105  0.22886  0.39756  1.0000
  S   S2        1.0  0.27070  0.28305  0.01514  1.0000
  Fe  Fe2       1.0  0.35723  0.30103  0.03806  1.0000
  C   C1        1.0  0.20134  0.28273  0.08103  1.0000
  C   C2        1.0  0.43634  0.26006  0.20948  1.0000
  Fe  Fe3       1.0  0.35902  0.24922  0.01870  1.0000
  S   S3        1.0  0.38342  0.21727  0.02974  1.0000
  S   S4        1.0  0.33651  0.27040  0.05743  1.0000
  Fe  Fe4       1.0  0.44094  0.08035  0.20558  1.0000
  S   S5        1.0  0.46809  0.09657  0.24182  1.0000
  S   S6        1.0  0.44047  0.04047  0.19140  1.0000
  Fe  Fe5       1.0  0.41774  0.12964  0.18966  1.0000
  S   S7        1.0  0.44337  0.14850  0.22542  1.0000
  S   S8        1.0  0.38646  0.15165  0.16779  1.0000
  Fe  Fe6       1.0  0.47111  0.12475  0.19976  1.0000
  Fe  Fe7       1.0  0.43796  0.11893  0.26390  1.0000
  S   S9        1.0  0.43414  0.12211  0.32438  1.0000
  S   S10       1.0  0.44574  0.10743  0.16159  1.0000
  S   S11       1.0  0.41054  0.10118  0.23000  1.0000
  H   H3        1.0  0.13310  0.23734  0.06404  1.0000
  S   S12       1.0  0.36722  0.19899  0.40041  1.0000
  H   H4        1.0  0.32114  0.22308  0.40965  1.0000
  S   S13       1.0  0.47047  0.31237  0.15849  1.0000
  Fe  Fe8       1.0  0.10278  0.16947  0.43539  1.0000
  H   H5        1.0  0.19174  0.22814  0.05724  1.0000
  S   S14       1.0  0.08955  0.14230  0.39496  1.0000
  Fe  Fe9       1.0  0.09481  0.22007  0.45964  1.0000
  S   S15       1.0  0.06808  0.24982  0.44692  1.0000
  S   S16       1.0  0.11876  0.20351  0.41858  1.0000
  C   C3        1.0  0.23809  0.17977  0.37490  1.0000
  H   H6        1.0  0.49063  0.29115  0.03901  1.0000
  H   H7        1.0  0.17968  0.21697  0.99617  1.0000
  C   C4        1.0  0.06911  0.26706  0.40757  1.0000
  C   C5        1.0  0.08912  0.26688  0.38586  1.0000
  C   C6        1.0  0.08902  0.28025  0.35416  1.0000
  C   C7        1.0  0.06890  0.29377  0.34367  1.0000
  C   C8        1.0  0.04891  0.29406  0.36546  1.0000
  C   C9        1.0  0.04911  0.28089  0.39739  1.0000
  H   H8        1.0  0.10472  0.25658  0.39361  1.0000
  H   H9        1.0  0.10462  0.28006  0.33762  1.0000
  H   H10       1.0  0.19113  0.25235  0.10969  1.0000
  H   H11       1.0  0.03362  0.28125  0.41414  1.0000
  C   C10       1.0  0.06013  0.14379  0.37789  1.0000
  C   C11       1.0  0.05339  0.12860  0.34982  1.0000
  C   C12       1.0  0.03018  0.12972  0.33542  1.0000
  C   C13       1.0  0.01349  0.14601  0.34913  1.0000
  C   C14       1.0  0.02014  0.16071  0.37777  1.0000
  C   C15       1.0  0.04328  0.15971  0.39196  1.0000
  H   H12       1.0  0.06626  0.11611  0.33886  1.0000
  H   H13       1.0  0.02538  0.11832  0.31328  1.0000
  C   C16       1.0  0.39948  0.32395  0.09901  1.0000
  H   H14       1.0  0.04812  0.17147  0.41355  1.0000
  N   N2        1.0  0.16577  0.25657  0.06618  1.0000
  H   H15       1.0  0.01302  0.18341  0.27745  1.0000
  S   S17       1.0  0.33071  0.31019  0.99449  1.0000
  H   H16       1.0  0.04202  0.21598  0.38513  1.0000
  C   C17       1.0  0.43393  0.20636  0.42257  1.0000
  C   C18       1.0  0.41398  0.14271  0.34409  1.0000
  C   C19       1.0  0.40512  0.16243  0.32537  1.0000
  C   C20       1.0  0.39050  0.17938  0.34279  1.0000
  C   C21       1.0  0.38451  0.17668  0.37891  1.0000
  C   C22       1.0  0.39267  0.15656  0.39722  1.0000
  C   C23       1.0  0.40754  0.13978  0.37999  1.0000
  H   H17       1.0  0.40990  0.16481  0.29770  1.0000
  H   H18       1.0  0.38406  0.19481  0.32836  1.0000
  H   H19       1.0  0.38759  0.15399  0.42473  1.0000
  H   H20       1.0  0.41407  0.12442  0.39448  1.0000
  C   C24       1.0  0.38374  0.19898  0.06803  1.0000
  C   C25       1.0  0.40370  0.18422  0.07481  1.0000
  C   C26       1.0  0.40491  0.16967  0.10529  1.0000
  C   C27       1.0  0.38592  0.16945  0.12893  1.0000
  C   C28       1.0  0.36586  0.18402  0.12194  1.0000
  C   C29       1.0  0.36483  0.19891  0.09184  1.0000
  H   H21       1.0  0.41835  0.18409  0.05643  1.0000
  H   H22       1.0  0.42038  0.15845  0.11027  1.0000
  H   H23       1.0  0.35101  0.18378  0.13994  1.0000
  H   H24       1.0  0.34931  0.21005  0.08679  1.0000
  C   C30       1.0  0.44854  0.01326  0.25316  1.0000
  C   C31       1.0  0.44315  0.01362  0.21648  1.0000
  H   H25       1.0  0.45079  0.02976  0.26745  1.0000
  C   C32       1.0  0.47795  0.30530  0.04809  1.0000
  H   H26       1.0  0.00744  0.17330  0.38870  1.0000
  S   S18       1.0  0.01452  0.31060  0.23951  1.0000
  H   H27       1.0  0.44449  0.21770  0.11908  1.0000
  H   H28       1.0  0.07885  0.27007  0.12591  1.0000
  H   H29       1.0  0.41583  0.24871  0.12954  1.0000
  H   H30       1.0  0.41671  0.20024  0.43207  1.0000
  C   C33       1.0  0.29094  0.16442  0.36835  1.0000
  H   H31       1.0  0.44235  0.24313  0.22148  1.0000
  H   H32       1.0  0.29834  0.13114  0.42933  1.0000
  H   H33       1.0  0.22826  0.17222  0.39754  1.0000
  H   H34       1.0  0.43151  0.29719  0.98999  1.0000
  H   H35       1.0  0.15705  0.23933  0.99463  1.0000
  H   H36       1.0  0.44107  0.28121  0.11901  1.0000
  H   H37       1.0  0.28120  0.14791  0.36302  1.0000
  H   H38       1.0  0.01491  0.21416  0.28216  1.0000
  S   S19       1.0  0.18440  0.20802  0.45471  1.0000
  H   H39       1.0  0.39618  0.20114  0.19228  1.0000
  C   C34       1.0  0.45448  0.20020  0.44885  1.0000
  H   H40       1.0  0.17126  0.27673  0.11505  1.0000
  H   H41       1.0  0.34882  0.26120  0.14036  1.0000
  H   H42       1.0  0.30984  0.21050  0.36902  1.0000
  C   C35       1.0  0.07088  0.28700  0.07552  1.0000
  S   S20       1.0  0.07776  0.18611  0.47478  1.0000
  C   C36       1.0  0.18172  0.26669  0.09462  1.0000
  H   H43       1.0  0.04591  0.07716  0.41838  1.0000
  C   C37       1.0  0.46755  0.16469  0.41558  1.0000
  C   C38       1.0  0.15528  0.22022  0.10397  1.0000
  N   N3        1.0  0.06065  0.21430  0.31181  1.0000
  C   C39       1.0  0.07910  0.20533  0.33839  1.0000
  C   C40       1.0  0.04472  0.23173  0.33136  1.0000
  C   C41       1.0  0.07344  0.22666  0.28226  1.0000
  C   C42       1.0  0.04759  0.19332  0.29751  1.0000
  C   C43       1.0  0.09858  0.18851  0.32319  1.0000
  Fe  Fe10      1.0  0.36220  0.19949  0.46071  1.0000
  C   C44       1.0  0.05903  0.24490  0.25983  1.0000
  H   H44       1.0  0.48604  0.00590  0.16374  1.0000
  H   H45       1.0  0.08814  0.22038  0.35161  1.0000
  H   H46       1.0  0.07093  0.19541  0.36040  1.0000
  H   H47       1.0  0.03169  0.24071  0.31338  1.0000
  H   H48       1.0  0.05534  0.24627  0.34226  1.0000
  H   H49       1.0  0.08860  0.23666  0.29352  1.0000
  H   H50       1.0  0.08132  0.21357  0.26311  1.0000
  H   H51       1.0  0.05946  0.18193  0.28074  1.0000
  H   H52       1.0  0.04267  0.18130  0.31945  1.0000
  H   H53       1.0  0.10903  0.19689  0.30207  1.0000
  H   H54       1.0  0.11119  0.18364  0.34510  1.0000
  H   H55       1.0  0.09129  0.17165  0.31332  1.0000
  C   C45       1.0  0.44041  0.16201  0.46747  1.0000
  H   H56       1.0  0.15506  0.30725  0.08006  1.0000
  H   H57       1.0  0.01910  0.20734  0.35335  1.0000
  H   H58       1.0  0.04257  0.23782  0.24845  1.0000
  H   H59       1.0  0.06995  0.25061  0.23707  1.0000
  H   H60       1.0  0.05488  0.26114  0.27570  1.0000
  H   H61       1.0  0.49213  0.26582  0.10696  1.0000
  C   C46       1.0  0.38472  0.01014  0.28761  1.0000
  H   H62       1.0  0.04919  0.10790  0.42692  1.0000
  H   H63       1.0  0.16632  0.28376  0.02548  1.0000
  C   C47       1.0  0.29853  0.19316  0.41867  1.0000
  Fe  Fe11      1.0  0.14550  0.19800  0.46384  1.0000
  C   C48       1.0  0.21189  0.20331  0.47846  1.0000
  H   H64       1.0  0.44454  0.12579  0.44606  1.0000
  C   C49       1.0  0.36841  0.25970  0.14268  1.0000
  H   H65       1.0  0.39117  0.02550  0.27247  1.0000
  H   H66       1.0  0.43710  0.19950  0.39512  1.0000
  H   H67       1.0  0.44832  0.26482  0.18747  1.0000
  C   C50       1.0  0.41039  0.26043  0.19645  1.0000
  H   H68       1.0  0.37340  0.99378  0.23881  1.0000
  H   H69       1.0  0.37254  0.22179  0.23991  1.0000
  H   H70       1.0  0.46600  0.30382  0.44340  1.0000
  H   H71       1.0  0.29167  0.19969  0.44483  1.0000
  C   C51       1.0  0.02532  0.19823  0.27423  1.0000
  H   H72       1.0  0.16341  0.20684  0.08575  1.0000
  H   H73       1.0  0.05957  0.30791  0.03026  1.0000
  H   H74       1.0  0.39708  0.00762  0.31061  1.0000
  H   H75       1.0  0.36666  0.22496  0.16526  1.0000
  C   C52       1.0  0.43230  0.29842  0.11874  1.0000
  H   H76       1.0  0.07492  0.08820  0.42419  1.0000
  H   H77       1.0  0.43829  0.27334  0.23129  1.0000
  H   H78       1.0  0.13970  0.21196  0.11611  1.0000
  H   H79       1.0  0.21042  0.29087  0.10437  1.0000
  H   H80       1.0  0.22570  0.19265  0.36169  1.0000
  C   C53       1.0  0.14195  0.29634  0.06581  1.0000
  H   H81       1.0  0.28838  0.17503  0.34353  1.0000
  H   H82       1.0  0.26124  0.16986  0.44830  1.0000
  H   H83       1.0  0.40291  0.28696  0.08592  1.0000
  H   H84       1.0  0.43448  0.19979  0.15451  1.0000
  C   C54       1.0  0.23090  0.21811  0.47130  1.0000
  C   C55       1.0  0.43695  0.21842  0.14642  1.0000
  H   H85       1.0  0.40151  0.22139  0.12792  1.0000
  H   H86       1.0  0.03337  0.30446  0.35776  1.0000
  H   H87       1.0  0.24269  0.16574  0.35511  1.0000
  C   C56       1.0  0.26009  0.19282  0.38844  1.0000
  H   H88       1.0  0.45008  0.22663  0.16422  1.0000
  H   H89       1.0  0.43196  0.22590  0.42051  1.0000
  C   C57       1.0  0.44511  0.29272  0.01059  1.0000
  C   C58       1.0  0.41311  0.23233  0.14505  1.0000
  C   C59       1.0  0.18059  0.24104  0.04171  1.0000
  H   H90       1.0  0.48390  0.25468  0.14990  1.0000
  H   H91       1.0  0.22542  0.30759  0.01147  1.0000
  H   H92       1.0  0.37486  0.25368  0.11610  1.0000
  H   H93       1.0  0.13970  0.26849  0.02691  1.0000
  H   H94       1.0  0.32863  0.17327  0.36647  1.0000
  H   H95       1.0  0.01873  0.23614  0.37332  1.0000
  H   H96       1.0  0.30363  0.15496  0.46144  1.0000
  H   H97       1.0  0.37468  0.27772  0.14850  1.0000
  S   S21       1.0  0.06933  0.30911  0.30251  1.0000
  C   C60       1.0  0.24442  0.27743  0.98940  1.0000
  C   C61       1.0  0.45717  0.26938  0.99807  1.0000
  H   H98       1.0  0.39619  0.20423  0.25824  1.0000
  H   H99       1.0  0.48519  0.04433  0.15333  1.0000
  H   H100      1.0  0.48962  0.04738  0.21421  1.0000
  H   H101      1.0  0.40901  0.27509  0.17680  1.0000
  C   C62       1.0  0.05647  0.09010  0.43375  1.0000
  H   H102      1.0  0.09871  0.10372  0.46493  1.0000
  H   H103      1.0  0.46960  0.21047  0.43924  1.0000
  H   H104      1.0  0.25412  0.20484  0.41047  1.0000
  C   C63       1.0  0.05538  0.30045  0.13344  1.0000
  H   H105      1.0  0.36683  0.01517  0.29733  1.0000
  C   C64       1.0  0.48160  0.17250  0.47886  1.0000
  C   C65       1.0  0.06932  0.28449  0.11286  1.0000
  H   H106      1.0  0.42249  0.21208  0.21052  1.0000
  N   N4        1.0  0.40117  0.23798  0.18019  1.0000
  H   H107      1.0  0.26519  0.20463  0.36627  1.0000
  H   H108      1.0  0.13701  0.25389  0.10376  1.0000
  H   H109      1.0  0.39911  0.23555  0.25709  1.0000
  C   C66       1.0  0.31758  0.15756  0.36945  1.0000
  C   C67       1.0  0.39209  0.22027  0.24204  1.0000
  H   H110      1.0  0.39908  0.26704  0.21881  1.0000
  H   H111      1.0  0.19445  0.29738  0.06404  1.0000
  C   C68       1.0  0.40373  0.21715  0.20511  1.0000
  H   H112      1.0  0.47694  0.17827  0.40010  1.0000
  H   H113      1.0  0.32320  0.14808  0.39399  1.0000
  H   H114      1.0  0.16779  0.22414  0.12610  1.0000
  C   C69       1.0  0.27169  0.16021  0.42751  1.0000
  N   N5        1.0  0.46136  0.17429  0.45224  1.0000
  H   H115      1.0  0.43475  0.28879  0.03494  1.0000
  H   H116      1.0  0.32181  0.14571  0.34642  1.0000
  C   C70       1.0  0.29012  0.14455  0.44734  1.0000
  H   H117      1.0  0.36565  0.24846  0.19700  1.0000
  H   H118      1.0  0.05427  0.29830  0.16212  1.0000
  C   C71       1.0  0.30538  0.21505  0.39709  1.0000
  C   C72       1.0  0.37503  0.24193  0.17268  1.0000
  C   C73       1.0  0.03048  0.22181  0.36248  1.0000
  C   C74       1.0  0.05851  0.30575  0.05895  1.0000
  C   C75       1.0  0.44287  0.31742  0.13662  1.0000
  C   C76       1.0  0.41076  0.30165  0.09990  1.0000
  C   C77       1.0  0.15380  0.27587  0.04435  1.0000
  C   C78       1.0  0.14679  0.24271  0.08393  1.0000
  H   H119      1.0  0.25923  0.14775  0.41474  1.0000
  H   H120      1.0  0.13218  0.30825  0.04692  1.0000
  H   H121      1.0  0.02999  0.19934  0.24550  1.0000
  H   H122      1.0  0.31521  0.18344  0.42577  1.0000
  C   C79       1.0  0.16687  0.22723  0.01292  1.0000
  H   H123      1.0  0.19338  0.25173  0.02684  1.0000
  H   H124      1.0  0.44324  0.25640  0.99204  1.0000
  S   S22       1.0  0.38065  0.27985  0.00131  1.0000
  H   H125      1.0  0.21511  0.27243  0.06617  1.0000
  H   H126      1.0  0.47660  0.13026  0.39224  1.0000
  H   H127      1.0  0.42455  0.16468  0.45030  1.0000
  C   C80       1.0  0.44291  0.13506  0.47218  1.0000
  H   H128      1.0  0.45112  0.16119  0.39989  1.0000
  H   H129      1.0  0.03333  0.14962  0.47071  1.0000
  H   H130      1.0  0.12879  0.29008  0.08505  1.0000
  C   C81       1.0  0.48346  0.14198  0.41380  1.0000
  S   S23       1.0  0.13158  0.16211  0.47652  1.0000
  H   H131      1.0  0.07007  0.13281  0.46597  1.0000
  H   H132      1.0  0.22809  0.23283  0.45329  1.0000
  H   H133      1.0  0.28098  0.13467  0.46848  1.0000
  H   H134      1.0  0.47341  0.16619  0.98570  1.0000
  C   C82       1.0  0.48246  0.31001  0.45652  1.0000
  H   H135      1.0  0.46870  0.26140  0.01918  1.0000
  C   C83       1.0  0.22429  0.29240  0.99386  1.0000
  C   C84       1.0  0.05434  0.08506  0.47411  1.0000
  H   H136      1.0  0.44967  0.20789  0.47548  1.0000
  C   C85       1.0  0.04449  0.32161  0.07948  1.0000
  Fe  Fe12      1.0  0.09337  0.27047  0.99051  1.0000
  H   H137      1.0  0.46794  0.29748  0.07035  1.0000
  H   H138      1.0  0.48437  0.13128  0.43836  1.0000
  H   H139      1.0  0.15458  0.21449  0.02443  1.0000
  C   C86       1.0  0.04277  0.31901  0.11677  1.0000
  C   C87       1.0  0.49147  0.17213  0.99255  1.0000
  H   H140      1.0  0.48811  0.32509  0.44006  1.0000
  H   H141      1.0  0.49219  0.21672  0.17189  1.0000
  N   N6        1.0  0.46135  0.31293  0.01804  1.0000
  C   C88       1.0  0.47623  0.31872  0.98619  1.0000
  H   H142      1.0  0.49221  0.17421  0.02215  1.0000
  H   H143      1.0  0.03515  0.08533  0.47971  1.0000
  H   H144      1.0  0.06020  0.06635  0.47869  1.0000
  Fe  Fe13      1.0  0.08901  0.30173  0.92465  1.0000
  H   H145      1.0  0.43205  0.19497  0.71579  1.0000
  Fe  Fe14      1.0  0.13347  0.26945  0.93621  1.0000
  S   S24       1.0  0.17372  0.26132  0.93011  1.0000
  Fe  Fe15      1.0  0.08460  0.24865  0.91516  1.0000
  S   S25       1.0  0.05862  0.22765  0.88069  1.0000
  S   S26       1.0  0.10792  0.27518  0.88934  1.0000
  Fe  Fe16      1.0  0.03388  0.10806  0.78063  1.0000
  H   H146      1.0  0.47022  0.03242  0.70563  1.0000
  S   S27       1.0  0.06281  0.12275  0.81675  1.0000
  Fe  Fe17      1.0  0.00816  0.06361  0.75417  1.0000
  H   H147      1.0  0.25199  0.28324  0.86677  1.0000
  H   H148      1.0  0.03768  0.29032  0.63207  1.0000
  Fe  Fe18      1.0  0.01560  0.10550  0.70358  1.0000
  S   S28       1.0  0.01784  0.11826  0.64574  1.0000
  C   C89       1.0  0.06205  0.12709  0.49149  1.0000
  S   S29       1.0  0.04084  0.08198  0.73538  1.0000
  H   H149      1.0  0.43563  0.16979  0.49402  1.0000
  S   S30       1.0  0.35683  0.29456  0.90001  1.0000
  S   S31       1.0  0.45704  0.13810  0.69948  1.0000
  Fe  Fe19      1.0  0.36750  0.23047  0.52873  1.0000
  S   S32       1.0  0.35297  0.20221  0.56412  1.0000
  S   S33       1.0  0.39103  0.26119  0.54413  1.0000
  H   H150      1.0  0.44488  0.06080  0.73759  1.0000
  Fe  Fe20      1.0  0.32543  0.19734  0.51956  1.0000
  S   S34       1.0  0.28647  0.18740  0.52818  1.0000
  Fe  Fe21      1.0  0.37613  0.17679  0.53276  1.0000
  S   S35       1.0  0.40427  0.14917  0.54890  1.0000
  H   H151      1.0  0.06212  0.30327  0.84938  1.0000
  H   H152      1.0  0.01659  0.27126  0.85130  1.0000
  S   S36       1.0  0.12222  0.21722  0.50405  1.0000
  Fe  Fe22      1.0  0.10722  0.18145  0.51505  1.0000
  S   S37       1.0  0.10511  0.16647  0.57165  1.0000
  C   C90       1.0  0.25771  0.19491  0.51001  1.0000
  C   C91       1.0  0.23855  0.18043  0.51784  1.0000
  C   C92       1.0  0.46693  0.04712  0.63159  1.0000
  H   H153      1.0  0.24136  0.16564  0.53571  1.0000
  H   H154      1.0  0.00329  0.16241  0.94012  1.0000
  C   C93       1.0  0.03575  0.13519  0.49053  1.0000
  C   C94       1.0  0.36496  0.30574  0.62177  1.0000
  C   C95       1.0  0.36653  0.28776  0.59550  1.0000
  C   C96       1.0  0.38799  0.28296  0.57830  1.0000
  C   C97       1.0  0.40794  0.29588  0.58824  1.0000
  H   H155      1.0  0.46706  0.08421  0.61387  1.0000
  H   H156      1.0  0.41983  0.07383  0.71309  1.0000
  H   H157      1.0  0.35103  0.27801  0.58803  1.0000
  H   H158      1.0  0.42460  0.29230  0.57508  1.0000
  H   H159      1.0  0.03426  0.31167  0.66673  1.0000
  C   C98       1.0  0.44294  0.14172  0.65727  1.0000
  C   C99       1.0  0.42022  0.15242  0.65551  1.0000
  C   C100      1.0  0.40836  0.15539  0.62241  1.0000
  C   C101      1.0  0.41903  0.14736  0.59083  1.0000
  C   C102      1.0  0.44175  0.13665  0.59261  1.0000
  C   C103      1.0  0.45379  0.13412  0.62561  1.0000
  H   H160      1.0  0.41164  0.15820  0.67991  1.0000
  H   H161      1.0  0.39071  0.16327  0.62138  1.0000
  H   H162      1.0  0.45010  0.13033  0.56832  1.0000
  H   H163      1.0  0.47140  0.12621  0.62657  1.0000
  S   S38       1.0  0.11645  0.29868  0.96908  1.0000
  H   H164      1.0  0.47913  0.00355  0.65856  1.0000
  H   H165      1.0  0.01608  0.28518  0.90652  1.0000
  C   C104      1.0  0.29091  0.28041  0.91107  1.0000
  C   C105      1.0  0.20272  0.28804  0.97569  1.0000
  C   C106      1.0  0.08055  0.15344  0.59195  1.0000
  C   C107      1.0  0.05740  0.15762  0.57957  1.0000
  C   C108      1.0  0.03837  0.14684  0.59650  1.0000
  C   C109      1.0  0.04225  0.13205  0.62620  1.0000
  C   C110      1.0  0.06539  0.12790  0.63859  1.0000
  C   C111      1.0  0.08442  0.13864  0.62163  1.0000
  H   H166      1.0  0.05417  0.16933  0.55717  1.0000
  H   H167      1.0  0.02051  0.15011  0.58672  1.0000
  H   H168      1.0  0.06861  0.11604  0.66080  1.0000
  H   H169      1.0  0.10230  0.13523  0.63129  1.0000
  C   C112      1.0  0.42418  0.04744  0.64918  1.0000
  H   H170      1.0  0.39613  0.32178  0.92939  1.0000
  C   C113      1.0  0.28707  0.25512  0.89667  1.0000
  H   H171      1.0  0.02051  0.19815  0.93065  1.0000
  H   H172      1.0  0.28238  0.31696  0.96097  1.0000
  S   S39       1.0  0.33868  0.22740  0.48649  1.0000
  H   H173      1.0  0.31406  0.28874  0.85590  1.0000
  H   H174      1.0  0.21983  0.23834  0.93062  1.0000
  C   C114      1.0  0.06084  0.19860  0.86264  1.0000
  C   C115      1.0  0.04303  0.19118  0.83888  1.0000
  C   C116      1.0  0.04336  0.16804  0.82482  1.0000
  C   C117      1.0  0.06159  0.15199  0.83426  1.0000
  C   C118      1.0  0.07962  0.15950  0.85756  1.0000
  C   C119      1.0  0.07928  0.18270  0.87172  1.0000
  H   H175      1.0  0.02879  0.20340  0.83145  1.0000
  H   H176      1.0  0.02945  0.16263  0.80675  1.0000
  H   H177      1.0  0.09388  0.14726  0.86489  1.0000
  H   H178      1.0  0.09311  0.18817  0.88994  1.0000
  H   H179      1.0  0.24768  0.29769  0.90763  1.0000
  H   H180      1.0  0.41861  0.06444  0.63627  1.0000
  N   N7        1.0  0.08422  0.17785  0.72991  1.0000
  C   C120      1.0  0.05873  0.18641  0.72668  1.0000
  C   C121      1.0  0.09433  0.18864  0.76362  1.0000
  C   C122      1.0  0.08441  0.15119  0.73285  1.0000
  C   C123      1.0  0.09690  0.18537  0.69674  1.0000
  C   C124      1.0  0.04414  0.17551  0.69580  1.0000
  C   C125      1.0  0.09450  0.21586  0.76516  1.0000
  C   C126      1.0  0.10590  0.13910  0.75167  1.0000
  C   C127      1.0  0.12373  0.18000  0.69514  1.0000
  H   H181      1.0  0.04912  0.18301  0.75195  1.0000
  H   H182      1.0  0.05750  0.20584  0.72256  1.0000
  H   H183      1.0  0.11279  0.18246  0.76894  1.0000
  H   H184      1.0  0.08436  0.18273  0.78728  1.0000
  H   H185      1.0  0.06872  0.14535  0.74794  1.0000
  H   H186      1.0  0.08286  0.14287  0.70595  1.0000
  H   H187      1.0  0.08948  0.17647  0.67266  1.0000
  H   H188      1.0  0.09364  0.20445  0.69091  1.0000
  H   H189      1.0  0.02549  0.18205  0.69773  1.0000
  H   H190      1.0  0.05050  0.18077  0.66912  1.0000
  H   H191      1.0  0.04372  0.15599  0.69724  1.0000
  H   H192      1.0  0.10388  0.22134  0.79005  1.0000
  H   H193      1.0  0.10409  0.22340  0.74237  1.0000
  H   H194      1.0  0.07638  0.22378  0.76690  1.0000
  H   H195      1.0  0.10432  0.11963  0.74913  1.0000
  H   H196      1.0  0.10607  0.14307  0.78083  1.0000
  H   H197      1.0  0.12298  0.14372  0.73992  1.0000
  H   H198      1.0  0.12739  0.16185  0.68470  1.0000
  H   H199      1.0  0.13308  0.18246  0.72093  1.0000
  H   H200      1.0  0.13185  0.19274  0.67673  1.0000
  N   N8        1.0  0.42684  0.23100  0.65324  1.0000
  C   C128      1.0  0.43168  0.23293  0.61376  1.0000
  C   C129      1.0  0.42796  0.25543  0.66961  1.0000
  H   H201      1.0  0.20154  0.17298  0.50822  1.0000
  C   C130      1.0  0.44511  0.21429  0.66948  1.0000
  C   C131      1.0  0.42753  0.21060  0.59081  1.0000
  H   H202      1.0  0.06980  0.10946  0.55547  1.0000
  C   C132      1.0  0.25354  0.21408  0.48704  1.0000
  C   C133      1.0  0.46333  0.06644  0.60300  1.0000
  H   H203      1.0  0.42089  0.24751  0.60170  1.0000
  H   H204      1.0  0.45031  0.23782  0.60925  1.0000
  N   N9        1.0  0.44954  0.04785  0.66198  1.0000
  H   H205      1.0  0.36506  0.22648  0.64872  1.0000
  H   H206      1.0  0.44819  0.99675  0.65303  1.0000
  C   C134      1.0  0.00048  0.30019  0.63972  1.0000
  H   H207      1.0  0.44389  0.19641  0.65719  1.0000
  H   H208      1.0  0.26808  0.25151  0.89240  1.0000
  H   H209      1.0  0.43943  0.19558  0.59862  1.0000
  H   H210      1.0  0.40887  0.20512  0.59117  1.0000
  H   H211      1.0  0.43142  0.21465  0.56246  1.0000
  C   C135      1.0  0.43925  0.07404  0.71725  1.0000
  C   C136      1.0  0.02294  0.99417  0.71066  1.0000
  C   C137      1.0  0.39622  0.32310  0.90053  1.0000
  H   H212      1.0  0.48533  0.04847  0.64223  1.0000
  H   H213      1.0  0.28155  0.28164  0.93697  1.0000
  H   H214      1.0  0.10790  0.12751  0.52151  1.0000
  H   H215      1.0  0.34817  0.30976  0.63437  1.0000
  H   H216      1.0  0.47480  0.31989  0.92795  1.0000
  H   H217      1.0  0.30650  0.31242  0.80140  1.0000
  H   H218      1.0  0.03098  0.07422  0.53674  1.0000
  C   C138      1.0  0.29099  0.32303  0.90420  1.0000
  H   H219      1.0  0.41997  0.25616  0.69669  1.0000
  H   H220      1.0  0.03014  0.14221  0.51699  1.0000
  C   C139      1.0  0.03750  0.09097  0.54827  1.0000
  H   H221      1.0  0.40174  0.20272  0.65078  1.0000
  C   C140      1.0  0.25687  0.29954  0.88157  1.0000
  C   C141      1.0  0.44330  0.21030  0.71023  1.0000
  H   H222      1.0  0.00613  0.19719  0.88904  1.0000
  C   C142      1.0  0.49163  0.15167  0.92091  1.0000
  C   C143      1.0  0.04988  0.31821  0.84660  1.0000
  H   H223      1.0  0.47196  0.07311  0.68839  1.0000
  C   C144      1.0  0.22098  0.25359  0.94811  1.0000
  C   C145      1.0  0.11105  0.10823  0.51878  1.0000
  C   C146      1.0  0.21585  0.18457  0.50229  1.0000
  C   C147      1.0  0.20072  0.26832  0.95309  1.0000
  H   H224      1.0  0.00716  0.29113  0.96676  1.0000
  H   H225      1.0  0.03695  0.08898  0.57784  1.0000
  H   H226      1.0  0.39906  0.22092  0.68905  1.0000
  H   H227      1.0  0.29711  0.25132  0.87187  1.0000
  H   H228      1.0  0.99702  0.12221  0.88544  1.0000
  C   C148      1.0  0.38178  0.23541  0.64262  1.0000
  C   C149      1.0  0.00237  0.13916  0.87379  1.0000
  S   S40       1.0  0.01117  0.13244  0.74744  1.0000
  H   H229      1.0  0.45106  0.28434  0.68273  1.0000
  C   C150      1.0  0.37926  0.31364  0.84268  1.0000
  H   H230      1.0  0.48214  0.16885  0.92498  1.0000
  C   C151      1.0  0.46165  0.00345  0.67179  1.0000
  C   C152      1.0  0.00878  0.99609  0.74113  1.0000
  C   C153      1.0  0.41721  0.02705  0.62394  1.0000
  C   C154      1.0  0.03380  0.31923  0.81759  1.0000
  H   H231      1.0  0.99701  0.26641  0.81463  1.0000
  H   H232      1.0  0.47594  0.17967  0.50541  1.0000
  H   H233      1.0  0.44755  0.08631  0.66503  1.0000
  H   H234      1.0  0.38008  0.25364  0.65354  1.0000
  C   C155      1.0  0.00469  0.30702  0.94969  1.0000
  S   S41       1.0  0.06496  0.27570  0.94893  1.0000
  H   H235      1.0  0.48540  0.26730  0.49377  1.0000
  H   H236      1.0  0.38303  0.23603  0.61310  1.0000
  H   H237      1.0  0.47931  0.13826  0.93105  1.0000
  H   H238      1.0  0.42641  0.12869  0.48427  1.0000
  H   H239      1.0  0.29375  0.24226  0.91699  1.0000
  N   N10       1.0  0.28334  0.30037  0.88655  1.0000
  H   H240      1.0  0.43142  0.02086  0.60584  1.0000
  C   C156      1.0  0.29592  0.29650  0.85134  1.0000
  H   H241      1.0  0.03382  0.30498  0.79816  1.0000
  C   C157      1.0  0.24258  0.25801  0.96618  1.0000
  S   S42       1.0  0.00284  0.02361  0.76375  1.0000
  C   C158      1.0  0.45291  0.07088  0.68185  1.0000
  H   H242      1.0  0.46425  0.25607  0.69206  1.0000
  C   C159      1.0  0.00264  0.19764  0.91800  1.0000
  C   C160      1.0  0.02706  0.30619  0.64048  1.0000
  H   H243      1.0  0.41697  0.26834  0.65380  1.0000
  H   H244      1.0  0.44319  0.09163  0.72888  1.0000
  H   H245      1.0  0.02078  0.30609  0.72623  1.0000
  C   C161      1.0  0.40270  0.22142  0.65984  1.0000
  H   H246      1.0  0.43987  0.02531  0.70606  1.0000
  H   H247      1.0  0.28658  0.28336  0.83443  1.0000
  S   S43       1.0  0.11114  0.24075  0.95938  1.0000
  H   H248      1.0  0.18771  0.30009  0.97887  1.0000
  H   H249      1.0  0.47732  0.28693  0.55040  1.0000
  H   H250      1.0  0.31043  0.32219  0.90979  1.0000
  H   H251      1.0  0.02310  0.27869  0.70060  1.0000
  C   C162      1.0  0.06324  0.09532  0.53737  1.0000
  H   H252      1.0  0.41084  0.01185  0.63945  1.0000
  H   H253      1.0  0.44539  0.06639  0.59078  1.0000
  H   H254      1.0  0.07342  0.07893  0.54499  1.0000
  H   H255      1.0  0.47618  0.06309  0.58112  1.0000
  C   C163      1.0  0.45281  0.26587  0.67261  1.0000
  S   S44       1.0  0.39171  0.20497  0.49961  1.0000
  C   C164      1.0  0.45501  0.02792  0.68783  1.0000
  C   C165      1.0  0.38489  0.31873  0.63160  1.0000
  Fe  Fe23      1.0  0.35270  0.28626  0.95925  1.0000
  H   H256      1.0  0.46343  0.21941  0.66307  1.0000
  H   H257      1.0  0.01788  0.14612  0.88846  1.0000
  S   S45       1.0  0.34793  0.16940  0.49143  1.0000
  H   H258      1.0  0.03034  0.00991  0.69957  1.0000
  H   H259      1.0  0.46726  0.27166  0.97311  1.0000
  H   H260      1.0  0.42195  0.32335  0.62239  1.0000
  H   H261      1.0  0.11030  0.09998  0.54558  1.0000
  H   H262      1.0  0.46166  0.26671  0.64635  1.0000
  H   H263      1.0  0.07071  0.13841  0.51188  1.0000
  H   H264      1.0  0.47560  0.15073  0.86771  1.0000
  H   H265      1.0  0.46707  0.03002  0.61702  1.0000
  H   H266      1.0  0.40265  0.03334  0.60587  1.0000
  H   H267      1.0  0.43615  0.22586  0.72503  1.0000
  C   C166      1.0  0.29969  0.31836  0.82787  1.0000
  H   H268      1.0  0.25762  0.24600  0.96286  1.0000
  C   C167      1.0  0.00300  0.30006  0.90984  1.0000
  C   C168      1.0  0.24475  0.32001  0.86075  1.0000
  H   H269      1.0  0.45753  0.12981  0.49066  1.0000
  H   H270      1.0  0.36606  0.30483  0.82669  1.0000
  C   C169      1.0  0.40651  0.31346  0.61507  1.0000
  C   C170      1.0  0.37905  0.31156  0.88016  1.0000
  H   H271      1.0  0.41207  0.04643  0.67235  1.0000
  H   H272      1.0  0.02519  0.10580  0.54163  1.0000
  H   H273      1.0  0.47034  0.31388  0.59353  1.0000
  H   H274      1.0  0.09827  0.07767  0.49123  1.0000
  H   H275      1.0  0.99342  0.30674  0.61351  1.0000
  H   H276      1.0  0.31002  0.28156  0.91790  1.0000
  N   N11       1.0  0.06769  0.10134  0.49870  1.0000
  H   H277      1.0  0.48972  0.30449  0.98057  1.0000
  S   S46       1.0  0.00336  0.08812  0.80227  1.0000
  H   H278      1.0  0.01065  0.31437  0.89388  1.0000
  S   S47       1.0  0.33263  0.25367  0.97316  1.0000
  C   C171      1.0  0.09377  0.09698  0.49172  1.0000
  H   H279      1.0  0.22612  0.32212  0.86973  1.0000
  H   H280      1.0  0.46121  0.20663  0.72168  1.0000
  H   H281      1.0  0.00826  0.13487  0.84619  1.0000
  C   C172      1.0  0.99781  0.26817  0.84424  1.0000
  H   H282      1.0  0.12945  0.10552  0.50912  1.0000
  H   H283      1.0  0.24470  0.31628  0.83152  1.0000
  C   C173      1.0  0.47660  0.31833  0.49510  1.0000
  H   H284      1.0  0.48698  0.15394  0.48451  1.0000
  H   H285      1.0  0.02024  0.31842  0.95363  1.0000
  H   H286      1.0  0.46006  0.30965  0.50324  1.0000
  H   H287      1.0  0.44705  0.31442  0.94600  1.0000
  H   H288      1.0  0.02344  0.12149  0.48170  1.0000
  H   H289      1.0  0.26776  0.22582  0.48132  1.0000
  C   C174      1.0  0.01179  0.28966  0.71863  1.0000
  H   H290      1.0  0.00999  0.27951  0.74377  1.0000
  H   H291      1.0  0.99943  0.28058  0.63838  1.0000
  H   H292      1.0  0.03076  0.31994  0.62037  1.0000
  C   C175      1.0  0.46314  0.32465  0.95081  1.0000
  Fe  Fe24      1.0  0.49283  0.11919  0.70726  1.0000
  H   H293      1.0  0.00505  0.61816  0.44747  1.0000
  H   H294      1.0  0.12421  0.63634  0.27273  1.0000
  H   H295      1.0  0.01883  0.59011  0.44443  1.0000
  H   H296      1.0  0.04285  0.37965  0.10845  1.0000
  S   S48       1.0  0.45873  0.63584  0.26679  1.0000
  C   C176      1.0  0.04692  0.64280  0.46362  1.0000
  C   C177      1.0  0.12903  0.64629  0.24828  1.0000
  H   H297      1.0  0.08862  0.64021  0.07243  1.0000
  Fe  Fe25      1.0  0.01368  0.55718  0.19882  1.0000
  C   C178      1.0  0.07970  0.65362  0.08853  1.0000
  H   H298      1.0  0.03943  0.40295  0.07773  1.0000
  Fe  Fe26      1.0  0.03888  0.60160  0.16969  1.0000
  S   S49       1.0  0.02405  0.62522  0.21256  1.0000
  S   S50       1.0  0.06317  0.61626  0.12712  1.0000
  Fe  Fe27      1.0  0.03240  0.59530  0.25008  1.0000
  S   S51       1.0  0.05297  0.59690  0.30295  1.0000
  C   C179      1.0  0.00931  0.39778  0.11165  1.0000
  S   S52       1.0  0.04971  0.57234  0.20773  1.0000
  N   N12       1.0  0.04187  0.61678  0.46584  1.0000
  Fe  Fe28      1.0  0.01998  0.34041  0.20153  1.0000
  S   S53       1.0  0.04627  0.35829  0.23712  1.0000
  H   H299      1.0  0.45445  0.54982  0.20179  1.0000
  H   H300      1.0  0.01508  0.59825  0.04070  1.0000
  S   S54       1.0  0.00941  0.35167  0.30338  1.0000
  Fe  Fe29      1.0  0.01504  0.37875  0.25959  1.0000
  S   S55       1.0  0.01752  0.41876  0.27160  1.0000
  H   H301      1.0  0.12835  0.65497  0.18018  1.0000
  H   H302      1.0  0.11847  0.60242  0.21862  1.0000
  H   H303      1.0  0.01720  0.60667  0.08646  1.0000
  C   C180      1.0  0.00972  0.49043  0.21146  1.0000
  C   C181      1.0  0.05340  0.64490  0.31882  1.0000
  S   S56       1.0  0.37281  0.32900  0.07463  1.0000
  C   C182      1.0  0.01460  0.44595  0.24725  1.0000
  C   C183      1.0  0.10530  0.61179  0.20123  1.0000
  C   C184      1.0  0.02020  0.48899  0.24554  1.0000
  H   H304      1.0  0.08597  0.62510  0.24698  1.0000
  H   H305      1.0  0.07651  0.63673  0.20496  1.0000
  H   H306      1.0  0.46137  0.52626  0.27529  1.0000
  C   C185      1.0  0.03940  0.43885  0.13141  1.0000
  H   H307      1.0  0.00932  0.61180  0.38584  1.0000
  C   C186      1.0  0.09258  0.63233  0.22131  1.0000
  H   H308      1.0  0.03323  0.63102  0.39524  1.0000
  H   H309      1.0  0.00477  0.39123  0.13854  1.0000
  H   H310      1.0  0.02890  0.46883  0.09840  1.0000
  H   H311      1.0  0.02589  0.44131  0.07555  1.0000
  H   H312      1.0  0.00171  0.38515  0.09204  1.0000
  C   C187      1.0  0.45320  0.53468  0.22036  1.0000
  H   H313      1.0  0.43631  0.52576  0.21598  1.0000
  H   H314      1.0  0.48230  0.33867  0.07869  1.0000
  H   H315      1.0  0.05485  0.45369  0.08265  1.0000
  H   H316      1.0  0.43948  0.35445  0.14960  1.0000
  H   H317      1.0  0.40125  0.36019  0.11677  1.0000
  H   H318      1.0  0.44521  0.62001  0.39442  1.0000
  C   C188      1.0  0.06330  0.41682  0.19761  1.0000
  C   C189      1.0  0.06386  0.60274  0.45519  1.0000
  C   C190      1.0  0.44363  0.63867  0.30790  1.0000
  C   C191      1.0  0.45223  0.62784  0.33912  1.0000
  C   C192      1.0  0.43880  0.62903  0.37063  1.0000
  C   C193      1.0  0.03729  0.45099  0.09462  1.0000
  S   S57       1.0  0.40004  0.64128  0.41093  1.0000
  H   H319      1.0  0.46897  0.61814  0.33889  1.0000
  C   C194      1.0  0.41712  0.64179  0.37161  1.0000
  H   H320      1.0  0.40118  0.60350  0.24385  1.0000
  H   H321      1.0  0.41212  0.60204  0.28847  1.0000
  H   H322      1.0  0.02986  0.40523  0.17848  1.0000
  C   C195      1.0  0.06249  0.62226  0.32642  1.0000
  C   C196      1.0  0.07922  0.61938  0.35429  1.0000
  H   H323      1.0  0.42460  0.34157  0.98247  1.0000
  C   C197      1.0  0.08957  0.39120  0.12220  1.0000
  H   H324      1.0  0.08632  0.60189  0.36030  1.0000
  H   H325      1.0  0.09997  0.63653  0.39548  1.0000
  H   H326      1.0  0.39150  0.58041  0.27212  1.0000
  H   H327      1.0  0.14010  0.63390  0.23188  1.0000
  H   H328      1.0  0.06101  0.40786  0.22364  1.0000
  C   C198      1.0  0.44720  0.33443  0.03061  1.0000
  S   S58       1.0  0.48643  0.36760  0.23024  1.0000
  H   H329      1.0  0.03479  0.33589  0.06632  1.0000
  C   C199      1.0  0.00150  0.46943  0.19568  1.0000
  H   H330      1.0  0.42114  0.56711  0.22619  1.0000
  H   H331      1.0  0.11365  0.61763  0.17621  1.0000
  C   C200      1.0  0.40894  0.65336  0.34073  1.0000
  N   N13       1.0  0.43797  0.55742  0.27713  1.0000
  C   C201      1.0  0.44917  0.57106  0.30750  1.0000
  C   C202      1.0  0.42772  0.57539  0.25117  1.0000
  C   C203      1.0  0.45724  0.54254  0.25952  1.0000
  C   C204      1.0  0.41941  0.54206  0.29276  1.0000
  C   C205      1.0  0.40989  0.34288  0.11728  1.0000
  C   C206      1.0  0.40698  0.59101  0.26524  1.0000
  H   H332      1.0  0.46114  0.58457  0.29679  1.0000
  C   C207      1.0  0.40373  0.52842  0.26618  1.0000
  H   H333      1.0  0.06909  0.60711  0.42748  1.0000
  H   H334      1.0  0.43557  0.58101  0.32329  1.0000
  S   S59       1.0  0.00664  0.51762  0.18707  1.0000
  H   H335      1.0  0.09192  0.38542  0.15034  1.0000
  H   H336      1.0  0.08248  0.41600  0.19191  1.0000
  H   H337      1.0  0.45782  0.35065  0.02878  1.0000
  H   H338      1.0  0.42781  0.52832  0.31026  1.0000
  H   H339      1.0  0.40763  0.55224  0.31137  1.0000
  C   C208      1.0  0.99536  0.64788  0.11211  1.0000
  C   C209      1.0  0.42323  0.33983  0.01177  1.0000
  N   N14       1.0  0.10697  0.65408  0.22801  1.0000
  C   C210      1.0  0.06584  0.64677  0.11754  1.0000
  C   C211      1.0  0.46383  0.55639  0.33500  1.0000
  H   H340      1.0  0.44283  0.33276  0.05944  1.0000
  H   H341      1.0  0.02658  0.50485  0.25826  1.0000
  H   H342      1.0  0.10755  0.39376  0.11146  1.0000
  H   H343      1.0  0.09213  0.59854  0.19326  1.0000
  H   H344      1.0  0.41199  0.51092  0.25947  1.0000
  H   H345      1.0  0.39951  0.53813  0.24128  1.0000
  H   H346      1.0  0.38630  0.52551  0.27862  1.0000
  H   H347      1.0  0.47107  0.56860  0.35552  1.0000
  H   H348      1.0  0.45296  0.54361  0.34937  1.0000
  H   H349      1.0  0.47928  0.54707  0.32273  1.0000
  H   H350      1.0  0.44180  0.58738  0.24215  1.0000
  H   H351      1.0  0.05733  0.43544  0.20184  1.0000
  H   H352      1.0  0.02154  0.43934  0.14349  1.0000
  H   H353      1.0  0.00043  0.41519  0.10690  1.0000
  C   C212      1.0  0.02252  0.46697  0.26325  1.0000
  C   C213      1.0  0.02631  0.61331  0.40081  1.0000
  H   H354      1.0  0.08165  0.37674  0.10636  1.0000
  H   H355      1.0  0.47400  0.55236  0.25913  1.0000
  C   C214      1.0  0.04836  0.40427  0.16870  1.0000
  C   C215      1.0  0.07510  0.41469  0.11916  1.0000
  C   C216      1.0  0.42205  0.65160  0.30892  1.0000
  C   C217      1.0  0.08686  0.63893  0.37441  1.0000
  H   H356      1.0  0.01369  0.64093  0.11665  1.0000
  Fe  Fe30      1.0  0.03852  0.32997  0.27722  1.0000
  H   H357      1.0  0.08490  0.42850  0.13409  1.0000
  C   C218      1.0  0.08618  0.60649  0.47851  1.0000
  H   H358      1.0  0.05012  0.45073  0.14854  1.0000
  H   H359      1.0  0.48716  0.33432  0.99223  1.0000
  N   N15       1.0  0.04979  0.41404  0.13135  1.0000
  H   H360      1.0  0.07587  0.41988  0.09054  1.0000
  C   C219      1.0  0.02216  0.60929  0.44104  1.0000
  C   C220      1.0  0.01522  0.61379  0.05900  1.0000
  H   H361      1.0  0.03852  0.59952  0.38961  1.0000
  H   H362      1.0  0.03065  0.46627  0.28959  1.0000
  H   H363      1.0  0.03095  0.62411  0.05242  1.0000
  H   H364      1.0  0.46754  0.52184  0.21281  1.0000
  C   C221      1.0  0.43156  0.33968  0.13589  1.0000
  H   H365      1.0  0.05332  0.38508  0.16901  1.0000
  C   C222      1.0  0.03632  0.39827  0.10614  1.0000
  S   S60       1.0  0.00437  0.58457  0.15619  1.0000
  C   C223      1.0  0.00393  0.44739  0.21330  1.0000
  H   H366      1.0  0.06048  0.58342  0.45489  1.0000
  H   H367      1.0  0.05894  0.64609  0.44080  1.0000
  H   H368      1.0  0.28870  0.63705  0.45550  1.0000
  H   H369      1.0  0.41580  0.35687  0.02226  1.0000
  H   H370      1.0  0.04027  0.64729  0.29779  1.0000
  S   S61       1.0  0.02441  0.33923  0.14108  1.0000
  S   S62       1.0  0.99661  0.57897  0.24297  1.0000
  H   H371      1.0  0.10159  0.59751  0.46551  1.0000
  H   H372      1.0  0.41006  0.32634  0.01811  1.0000
  H   H373      1.0  0.00822  0.65360  0.46676  1.0000
  H   H374      1.0  0.99715  0.43163  0.20087  1.0000
  H   H375      1.0  0.16062  0.65755  0.27608  1.0000
  H   H376      1.0  0.99302  0.47032  0.16961  1.0000
  H   H377      1.0  0.24016  0.62178  0.56442  1.0000
  H   H378      1.0  0.03467  0.37039  0.88679  1.0000
  C   C224      1.0  0.01769  0.33844  0.81367  1.0000
  H   H379      1.0  0.44275  0.39828  0.89512  1.0000
  H   H380      1.0  0.42655  0.34547  0.89923  1.0000
  H   H381      1.0  0.40539  0.58238  0.65057  1.0000
  C   C225      1.0  0.38885  0.55453  0.67932  1.0000
  Fe  Fe31      1.0  0.43770  0.35941  0.76472  1.0000
  S   S63       1.0  0.41327  0.38448  0.73464  1.0000
  H   H382      1.0  0.99459  0.55289  0.78905  1.0000
  Fe  Fe32      1.0  0.46755  0.34780  0.69715  1.0000
  S   S64       1.0  0.44543  0.37276  0.66308  1.0000
  H   H383      1.0  0.43151  0.47025  0.82625  1.0000
  Fe  Fe33      1.0  0.44629  0.39853  0.71022  1.0000
  S   S65       1.0  0.45676  0.43784  0.70646  1.0000
  Fe  Fe34      1.0  0.41462  0.35672  0.69068  1.0000
  H   H384      1.0  0.38059  0.53727  0.67428  1.0000
  S   S66       1.0  0.47093  0.37427  0.74219  1.0000
  H   H385      1.0  0.48282  0.46406  0.85473  1.0000
  Fe  Fe35      1.0  0.43897  0.61738  0.70729  1.0000
  S   S67       1.0  0.40878  0.60225  0.73683  1.0000
  S   S68       1.0  0.43798  0.62150  0.64669  1.0000
  Fe  Fe36      1.0  0.46916  0.62155  0.77645  1.0000
  S   S69       1.0  0.44068  0.60614  0.81041  1.0000
  H   H386      1.0  0.05673  0.64857  0.48803  1.0000
  Fe  Fe37      1.0  0.43651  0.57932  0.76489  1.0000
  S   S70       1.0  0.42628  0.54015  0.77092  1.0000
  Fe  Fe38      1.0  0.41565  0.62998  0.77906  1.0000
  H   H387      1.0  0.41306  0.40947  0.90454  1.0000
  S   S71       1.0  0.46674  0.59344  0.73317  1.0000
  S   S72       1.0  0.44400  0.64639  0.74712  1.0000
  S   S73       1.0  0.99797  0.33868  0.77645  1.0000
  C   C226      1.0  0.43502  0.51203  0.75202  1.0000
  C   C227      1.0  0.45715  0.50777  0.73640  1.0000
  C   C228      1.0  0.46333  0.48511  0.72249  1.0000
  C   C229      1.0  0.44759  0.46624  0.72392  1.0000
  C   C230      1.0  0.42530  0.47063  0.73900  1.0000
  C   C231      1.0  0.41922  0.49321  0.75330  1.0000
  H   H388      1.0  0.46970  0.52181  0.73567  1.0000
  C   C232      1.0  0.41344  0.33648  0.88340  1.0000
  H   H389      1.0  0.41266  0.45667  0.73938  1.0000
  H   H390      1.0  0.40198  0.49621  0.76505  1.0000
  H   H391      1.0  0.28837  0.33850  0.88649  1.0000
  C   C233      1.0  0.01355  0.62125  0.51987  1.0000
  H   H392      1.0  0.39314  0.42519  0.78353  1.0000
  H   H393      1.0  0.99419  0.56992  0.83038  1.0000
  H   H394      1.0  0.28507  0.34703  0.94911  1.0000
  S   S74       1.0  0.08854  0.64450  0.55872  1.0000
  C   C234      1.0  0.27607  0.63442  0.56091  1.0000
  H   H395      1.0  0.39655  0.32819  0.79669  1.0000
  C   C235      1.0  0.41764  0.64071  0.62390  1.0000
  H   H396      1.0  0.44490  0.57075  0.66947  1.0000
  H   H397      1.0  0.48083  0.63021  0.89709  1.0000
  H   H398      1.0  0.43667  0.54408  0.68850  1.0000
  C   C236      1.0  0.40224  0.65671  0.56721  1.0000
  H   H399      1.0  0.40300  0.49395  0.65033  1.0000
  H   H400      1.0  0.37424  0.56723  0.68621  1.0000
  H   H401      1.0  0.03464  0.59042  0.50572  1.0000
  C   C237      1.0  0.05353  0.62984  0.60350  1.0000
  C   C238      1.0  0.03153  0.63174  0.62092  1.0000
  C   C239      1.0  0.49137  0.33225  0.55333  1.0000
  H   H402      1.0  0.43130  0.51727  0.60550  1.0000
  H   H403      1.0  0.46521  0.52203  0.64444  1.0000
  H   H404      1.0  0.06530  0.61486  0.60892  1.0000
  H   H405      1.0  0.02655  0.61840  0.63979  1.0000
  H   H406      1.0  0.43390  0.49565  0.65646  1.0000
  H   H407      1.0  0.40056  0.52383  0.60996  1.0000
  C   C240      1.0  0.46527  0.47307  0.85188  1.0000
  N   N16       1.0  0.29112  0.65360  0.54628  1.0000
  H   H408      1.0  0.44786  0.55153  0.58985  1.0000
  H   H409      1.0  0.47185  0.33752  0.49282  1.0000
  C   C241      1.0  0.01784  0.35672  0.83903  1.0000
  C   C242      1.0  0.03437  0.35600  0.86759  1.0000
  H   H410      1.0  0.41395  0.51429  0.68225  1.0000
  S   S75       1.0  0.43600  0.35498  0.82536  1.0000
  C   C243      1.0  0.01634  0.65121  0.61451  1.0000
  H   H411      1.0  0.42467  0.57071  0.54565  1.0000
  C   C244      1.0  0.03613  0.60996  0.50368  1.0000
  H   H412      1.0  0.43521  0.42857  0.77925  1.0000
  C   C245      1.0  0.41786  0.64140  0.58627  1.0000
  N   N17       1.0  0.42328  0.54985  0.63407  1.0000
  H   H413      1.0  0.28309  0.61661  0.55287  1.0000
  C   C246      1.0  0.44206  0.55181  0.66286  1.0000
  H   H414      1.0  0.47817  0.42424  0.86004  1.0000
  H   H415      1.0  0.31174  0.62751  0.48521  1.0000
  H   H416      1.0  0.40059  0.55358  0.70317  1.0000
  C   C247      1.0  0.05046  0.33675  0.87152  1.0000
  H   H417      1.0  0.40207  0.58024  0.57558  1.0000
  C   C248      1.0  0.41730  0.50663  0.65554  1.0000
  C   C249      1.0  0.41485  0.56546  0.56982  1.0000
  H   H418      1.0  0.24105  0.65302  0.55877  1.0000
  H   H419      1.0  0.49041  0.35067  0.54309  1.0000
  H   H420      1.0  0.47393  0.42025  0.77743  1.0000
  H   H421      1.0  0.40531  0.54918  0.56298  1.0000
  H   H422      1.0  0.99730  0.61687  0.50473  1.0000
  H   H423      1.0  0.38745  0.56336  0.62446  1.0000
  H   H424      1.0  0.45267  0.32771  0.55799  1.0000
  H   H425      1.0  0.34298  0.64195  0.59654  1.0000
  H   H426      1.0  0.48060  0.48209  0.71085  1.0000
  C   C250      1.0  0.43256  0.56177  0.60114  1.0000
  S   S76       1.0  0.43646  0.33093  0.72292  1.0000
  H   H427      1.0  0.43953  0.57945  0.60797  1.0000
  C   C251      1.0  0.41783  0.52458  0.62447  1.0000
  H   H428      1.0  0.43031  0.63020  0.57176  1.0000
  C   C252      1.0  0.29281  0.63311  0.48407  1.0000
  C   C253      1.0  0.46645  0.54059  0.65374  1.0000
  H   H429      1.0  0.46897  0.65110  0.86458  1.0000
  H   H430      1.0  0.31450  0.63163  0.60803  1.0000
  C   C254      1.0  0.39654  0.32688  0.82558  1.0000
  H   H431      1.0  0.45731  0.47597  0.87861  1.0000
  C   C255      1.0  0.40243  0.43239  0.80742  1.0000
  H   H432      1.0  0.45545  0.46164  0.79880  1.0000
  C   C256      1.0  0.40131  0.56344  0.64576  1.0000
  H   H433      1.0  0.01501  0.64062  0.52306  1.0000
  H   H434      1.0  0.00558  0.37164  0.83628  1.0000
  S   S77       1.0  0.38201  0.34190  0.66361  1.0000
  H   H435      1.0  0.46587  0.34500  0.59271  1.0000
  H   H436      1.0  0.32206  0.63023  0.54234  1.0000
  C   C257      1.0  0.46737  0.64448  0.89229  1.0000
  C   C258      1.0  0.41378  0.33830  0.84585  1.0000
  C   C259      1.0  0.43342  0.43295  0.87139  1.0000
  H   H437      1.0  0.41080  0.65009  0.86590  1.0000
  S   S78       1.0  0.07082  0.33630  0.90790  1.0000
  H   H438      1.0  0.47781  0.54057  0.67818  1.0000
  C   C260      1.0  0.24955  0.63598  0.55050  1.0000
  H   H439      1.0  0.31343  0.32976  0.83981  1.0000
  C   C261      1.0  0.42869  0.42421  0.80631  1.0000
  C   C262      1.0  0.44849  0.45986  0.82636  1.0000
  H   H440      1.0  0.28161  0.61828  0.49178  1.0000
  H   H441      1.0  0.47571  0.55112  0.63357  1.0000
  H   H442      1.0  0.45861  0.34384  0.94928  1.0000
  H   H443      1.0  0.40012  0.45186  0.80651  1.0000
  H   H444      1.0  0.27669  0.63452  0.59069  1.0000
  H   H445      1.0  0.39339  0.42546  0.83119  1.0000
  H   H446      1.0  0.41758  0.44499  0.87376  1.0000
  C   C263      1.0  0.42703  0.40798  0.88391  1.0000
  H   H447      1.0  0.46831  0.49087  0.84067  1.0000
  H   H448      1.0  0.41926  0.39709  0.86237  1.0000
  C   C264      1.0  0.28777  0.65572  0.50633  1.0000
  H   H449      1.0  0.42920  0.40456  0.80665  1.0000
  H   H450      1.0  0.32765  0.64644  0.87722  1.0000
  C   C265      1.0  0.31677  0.64759  0.55429  1.0000
  N   N18       1.0  0.44451  0.43429  0.83502  1.0000
  C   C266      1.0  0.27843  0.32981  0.93943  1.0000
  C   C267      1.0  0.06056  0.64735  0.57959  1.0000
  H   H451      1.0  0.46403  0.40085  0.83774  1.0000
  H   H452      1.0  0.01139  0.61422  0.54732  1.0000
  H   H453      1.0  0.05061  0.61481  0.52244  1.0000
  H   H454      1.0  0.44984  0.63620  0.89386  1.0000
  C   C268      1.0  0.32367  0.64599  0.59432  1.0000
  H   H455      1.0  0.25258  0.33737  0.86597  1.0000
  H   H456      1.0  0.24656  0.63317  0.52141  1.0000
  H   H457      1.0  0.99806  0.36986  0.66064  1.0000
  C   C269      1.0  0.46865  0.32922  0.57522  1.0000
  C   C270      1.0  0.46749  0.42011  0.83572  1.0000
  H   H458      1.0  0.40104  0.65490  0.67127  1.0000
  H   H459      1.0  0.44570  0.43962  0.89234  1.0000
  C   C271      1.0  0.48352  0.42307  0.80298  1.0000
  H   H460      1.0  0.25901  0.33201  0.93582  1.0000
  H   H461      1.0  0.28324  0.32888  0.82292  1.0000
  C   C272      1.0  0.40143  0.65528  0.64233  1.0000
  H   H462      1.0  0.40271  0.65719  0.53827  1.0000
  S   S79       1.0  0.38669  0.65621  0.79705  1.0000
  H   H463      1.0  0.08467  0.59852  0.50540  1.0000
  H   H464      1.0  0.99540  0.58435  0.78804  1.0000
  H   H465      1.0  0.00950  0.33569  0.69258  1.0000
  H   H466      1.0  0.99836  0.34776  0.62611  1.0000
  H   H467      1.0  0.49155  0.44071  0.80256  1.0000
  H   H468      1.0  0.46440  0.65699  0.94699  1.0000
  H   H469      1.0  0.09044  0.62541  0.48125  1.0000
  Fe  Fe39      1.0  0.46836  0.85343  0.27622  1.0000
  S   S80       1.0  0.44710  0.87701  0.31320  1.0000
  H   H470      1.0  0.42932  0.78859  0.14957  1.0000
  Fe  Fe40      1.0  0.43509  0.86402  0.21215  1.0000
  S   S81       1.0  0.41118  0.88801  0.24479  1.0000
  S   S82       1.0  0.43257  0.85750  0.15197  1.0000
  Fe  Fe41      1.0  0.44483  0.90317  0.26708  1.0000
  S   S83       1.0  0.45006  0.94292  0.27889  1.0000
  Fe  Fe42      1.0  0.41553  0.86015  0.28778  1.0000
  S   S84       1.0  0.38482  0.84523  0.31834  1.0000
  S   S85       1.0  0.46868  0.88047  0.23215  1.0000
  S   S86       1.0  0.43669  0.83538  0.25319  1.0000
  C   C273      1.0  0.14585  0.66581  0.26029  1.0000
  Fe  Fe43      1.0  0.32787  0.69743  0.44141  1.0000
  S   S87       1.0  0.28812  0.69342  0.42725  1.0000
  Fe  Fe44      1.0  0.37366  0.72591  0.43593  1.0000
  S   S88       1.0  0.39916  0.75399  0.41694  1.0000
  S   S89       1.0  0.35625  0.69993  0.39870  1.0000
  S   S90       1.0  0.08825  0.68697  0.38924  1.0000
  C   C274      1.0  0.45503  0.69753  0.36701  1.0000
  Fe  Fe45      1.0  0.09142  0.74834  0.05056  1.0000
  S   S91       1.0  0.11439  0.77677  0.07365  1.0000
  S   S92       1.0  0.07183  0.72581  0.09096  1.0000
  Fe  Fe46      1.0  0.09136  0.80201  0.04160  1.0000
  S   S93       1.0  0.07213  0.83613  0.05847  1.0000
  Fe  Fe47      1.0  0.13700  0.77229  0.02394  1.0000
  S   S94       1.0  0.17792  0.76720  0.02856  1.0000
  S   S95       1.0  0.06757  0.77409  0.02067  1.0000
  H   H471      1.0  0.31762  0.81668  0.10669  1.0000
  Fe  Fe48      1.0  0.35461  0.78743  0.01179  1.0000
  S   S96       1.0  0.35696  0.79374  0.07195  1.0000
  C   C275      1.0  0.06792  0.67814  0.23622  1.0000
  H   H472      1.0  0.45435  0.68981  0.29605  1.0000
  H   H473      1.0  0.27501  0.85853  0.04715  1.0000
  H   H474      1.0  0.06181  0.92940  0.17063  1.0000
  C   C276      1.0  0.22588  0.75992  0.01642  1.0000
  H   H475      1.0  0.31815  0.95097  0.29965  1.0000
  H   H476      1.0  0.22544  0.74891  0.03996  1.0000
  C   C277      1.0  0.07046  0.69520  0.10054  1.0000
  C   C278      1.0  0.05677  0.68832  0.12968  1.0000
  H   H477      1.0  0.06171  0.90612  0.20404  1.0000
  H   H478      1.0  0.48311  0.76877  0.33317  1.0000
  H   H479      1.0  0.04784  0.70170  0.14581  1.0000
  C   C279      1.0  0.46382  0.70589  0.30490  1.0000
  H   H480      1.0  0.09808  0.66243  0.17305  1.0000
  C   C280      1.0  0.05176  0.83599  0.09411  1.0000
  C   C281      1.0  0.03163  0.85120  0.09328  1.0000
  C   C282      1.0  0.01558  0.85190  0.12196  1.0000
  C   C283      1.0  0.02016  0.83816  0.15238  1.0000
  C   C284      1.0  0.04029  0.82305  0.15316  1.0000
  C   C285      1.0  0.05578  0.82163  0.12396  1.0000
  H   H481      1.0  0.02838  0.86230  0.07019  1.0000
  C   C286      1.0  0.02088  0.75670  0.12292  1.0000
  H   H482      1.0  0.04399  0.81235  0.17657  1.0000
  H   H483      1.0  0.07126  0.80995  0.12501  1.0000
  C   C287      1.0  0.41097  0.84022  0.13021  1.0000
  C   C288      1.0  0.41212  0.83697  0.09291  1.0000
  C   C289      1.0  0.39567  0.82289  0.07463  1.0000
  C   C290      1.0  0.37794  0.81182  0.09358  1.0000
  C   C291      1.0  0.37680  0.81505  0.13090  1.0000
  C   C292      1.0  0.39319  0.82921  0.14916  1.0000
  H   H484      1.0  0.42577  0.84546  0.07802  1.0000
  H   H485      1.0  0.39671  0.82060  0.04591  1.0000
  H   H486      1.0  0.36317  0.80653  0.14581  1.0000
  H   H487      1.0  0.39212  0.83153  0.17788  1.0000
  C   C293      1.0  0.44823  0.96970  0.25357  1.0000
  H   H488      1.0  0.06884  0.68438  0.20828  1.0000
  C   C294      1.0  0.08199  0.67772  0.08000  1.0000
  C   C295      1.0  0.44297  0.97005  0.21685  1.0000
  H   H489      1.0  0.00684  0.81403  0.02606  1.0000
  H   H490      1.0  0.44067  0.95356  0.20257  1.0000
  C   C296      1.0  0.38892  0.81907  0.34405  1.0000
  C   C297      1.0  0.36910  0.80719  0.35645  1.0000
  C   C298      1.0  0.37182  0.78687  0.37801  1.0000
  C   C299      1.0  0.39444  0.77855  0.38805  1.0000
  C   C300      1.0  0.41426  0.79043  0.37562  1.0000
  C   C301      1.0  0.41155  0.81034  0.35333  1.0000
  H   H491      1.0  0.35153  0.81380  0.34947  1.0000
  H   H492      1.0  0.35642  0.77799  0.38749  1.0000
  H   H493      1.0  0.43180  0.78435  0.38360  1.0000
  H   H494      1.0  0.42694  0.81931  0.34399  1.0000
  H   H495      1.0  0.05432  0.68203  0.33242  1.0000
  C   C302      1.0  0.30677  0.83319  0.10923  1.0000
  C   C303      1.0  0.29036  0.77805  0.07561  1.0000
  N   N19       1.0  0.01239  0.92105  0.18293  1.0000
  C   C304      1.0  0.42649  0.72114  0.33165  1.0000
  H   H496      1.0  0.35158  0.95077  0.21418  1.0000
  H   H497      1.0  0.44992  0.67998  0.35641  1.0000
  C   C305      1.0  0.01649  0.94647  0.17344  1.0000
  C   C306      1.0  0.26011  0.69740  0.44905  1.0000
  H   H498      1.0  0.02912  0.75072  0.14856  1.0000
  H   H499      1.0  0.47177  0.78934  0.10955  1.0000
  C   C307      1.0  0.07798  0.66162  0.36655  1.0000
  H   H500      1.0  0.20999  0.78082  0.46798  1.0000
  H   H501      1.0  0.00054  0.97861  0.19762  1.0000
  C   C308      1.0  0.45109  0.99149  0.27146  1.0000
  C   C309      1.0  0.12809  0.79174  0.47276  1.0000
  H   H502      1.0  0.42111  0.70154  0.39564  1.0000
  C   C310      1.0  0.46384  0.83258  0.40719  1.0000
  H   H503      1.0  0.03186  0.92121  0.23332  1.0000
  H   H504      1.0  0.47057  0.75302  0.29756  1.0000
  C   C311      1.0  0.46991  0.82219  0.44439  1.0000
  C   C312      1.0  0.23957  0.68869  0.43241  1.0000
  H   H505      1.0  0.30218  0.84346  0.03719  1.0000
  N   N20       1.0  0.48140  0.79561  0.16502  1.0000
  C   C313      1.0  0.11826  0.69138  0.19172  1.0000
  H   H506      1.0  0.46208  0.71801  0.28184  1.0000
  C   C314      1.0  0.00911  0.66752  0.05693  1.0000
  H   H507      1.0  0.99855  0.92606  0.27437  1.0000
  C   C315      1.0  0.03143  0.90551  0.16593  1.0000
  H   H508      1.0  0.16887  0.77583  0.45130  1.0000
  H   H509      1.0  0.30950  0.80426  0.04721  1.0000
  H   H510      1.0  0.33955  0.93120  0.28032  1.0000
  H   H511      1.0  0.99997  0.86333  0.12082  1.0000
  H   H512      1.0  0.46956  0.82988  0.18541  1.0000
  C   C316      1.0  0.24984  0.81724  0.05577  1.0000
  C   C317      1.0  0.29065  0.79976  0.05084  1.0000
  C   C318      1.0  0.44041  0.70199  0.40119  1.0000
  C   C319      1.0  0.20475  0.77119  0.00423  1.0000
  H   H513      1.0  0.16742  0.74822  0.47343  1.0000
  H   H514      1.0  0.27420  0.81647  0.11923  1.0000
  H   H515      1.0  0.00623  0.78832  0.14714  1.0000
  C   C320      1.0  0.41914  0.73221  0.29547  1.0000
  C   C321      1.0  0.43704  0.78881  0.17704  1.0000
  H   H516      1.0  0.47866  0.80991  0.21914  1.0000
  H   H517      1.0  0.10162  0.68706  0.25799  1.0000
  C   C322      1.0  0.99705  0.93238  0.24632  1.0000
  H   H518      1.0  0.46065  0.83373  0.46438  1.0000
  H   H519      1.0  0.48898  0.83963  0.12438  1.0000
  C   C323      1.0  0.06125  0.66451  0.33867  1.0000
  H   H520      1.0  0.42144  0.71930  0.27318  1.0000
  C   C324      1.0  0.27505  0.83916  0.99753  1.0000
  H   H521      1.0  0.25556  0.84060  0.99396  1.0000
  H   H522      1.0  0.45646  0.81380  0.12936  1.0000
  H   H523      1.0  0.04395  0.65935  0.16072  1.0000
  C   C325      1.0  0.05732  0.91083  0.17595  1.0000
  H   H524      1.0  0.24669  0.80800  0.02986  1.0000
  C   C326      1.0  0.38192  0.94603  0.25164  1.0000
  C   C327      1.0  0.00235  0.79185  0.07250  1.0000
  H   H525      1.0  0.02851  0.67638  0.47444  1.0000
  C   C328      1.0  0.28265  0.84135  0.03726  1.0000
  H   H526      1.0  0.44442  0.68754  0.42049  1.0000
  S   S97       1.0  0.33500  0.75522  0.99383  1.0000
  H   H527      1.0  0.24101  0.68023  0.40643  1.0000
  H   H528      1.0  0.21880  0.79965  0.07486  1.0000
  H   H529      1.0  0.40126  0.93493  0.35232  1.0000
  H   H530      1.0  0.37623  0.92865  0.26142  1.0000
  H   H531      1.0  0.40145  0.94401  0.24833  1.0000
  H   H532      1.0  0.40818  0.96797  0.31091  1.0000
  Fe  Fe49      1.0  0.10411  0.68926  0.44551  1.0000
  C   C329      1.0  0.37113  0.94896  0.21379  1.0000
  C   C330      1.0  0.23701  0.80324  0.08464  1.0000
  H   H533      1.0  0.42587  0.77748  0.19369  1.0000
  H   H534      1.0  0.03162  0.95329  0.18937  1.0000
  H   H535      1.0  0.23987  0.83448  0.05377  1.0000
  N   N21       1.0  0.45258  0.71613  0.33823  1.0000
  S   S98       1.0  0.34720  0.66707  0.46885  1.0000
  H   H536      1.0  0.28175  0.82255  0.98505  1.0000
  H   H537      1.0  0.03047  0.90653  0.13626  1.0000
  H   H538      1.0  0.02687  0.66309  0.06861  1.0000
  C   C331      1.0  0.02549  0.66013  0.45838  1.0000
  H   H539      1.0  0.03489  0.76588  0.10828  1.0000
  H   H540      1.0  0.01109  0.89832  0.22916  1.0000
  C   C332      1.0  0.38990  0.96118  0.31276  1.0000
  H   H541      1.0  0.46115  0.80487  0.44635  1.0000
  H   H542      1.0  0.09257  0.68275  0.05748  1.0000
  H   H543      1.0  0.46298  0.76251  0.16052  1.0000
  H   H544      1.0  0.48393  0.82522  0.08282  1.0000
  H   H545      1.0  0.13729  0.67912  0.27817  1.0000
  H   H546      1.0  0.01117  0.77726  0.05699  1.0000
  S   S99       1.0  0.12819  0.66460  0.47740  1.0000
  H   H547      1.0  0.99597  0.66332  0.16522  1.0000
  C   C333      1.0  0.05449  0.66429  0.13817  1.0000
  H   H548      1.0  0.06917  0.89952  0.15904  1.0000
  H   H549      1.0  0.45490  0.74563  0.37503  1.0000
  S   S100      1.0  0.12482  0.72152  0.45992  1.0000
  C   C334      1.0  0.46466  0.73794  0.35180  1.0000
  H   H550      1.0  0.46643  0.77304  0.20524  1.0000
  Fe  Fe50      1.0  0.37665  0.67216  0.42982  1.0000
  C   C335      1.0  0.20177  0.76352  0.47224  1.0000
  H   H551      1.0  0.05532  0.66355  0.23780  1.0000
  H   H552      1.0  0.40685  0.92577  0.30755  1.0000
  H   H553      1.0  0.40271  0.98611  0.25184  1.0000
  H   H554      1.0  0.01070  0.66381  0.02770  1.0000
  S   S101      1.0  0.11583  0.80044  0.99409  1.0000
  H   H555      1.0  0.41646  0.70449  0.33313  1.0000
  H   H556      1.0  0.37561  0.93283  0.19783  1.0000
  H   H557      1.0  0.15405  0.67433  0.23705  1.0000
  H   H558      1.0  0.00198  0.95119  0.24684  1.0000
  C   C336      1.0  0.46729  0.75858  0.32546  1.0000
  C   C337      1.0  0.47399  0.80447  0.12845  1.0000
  H   H559      1.0  0.06044  0.69289  0.25276  1.0000
  H   H560      1.0  0.00539  0.68299  0.13198  1.0000
  N   N22       1.0  0.37635  0.96558  0.27816  1.0000
  S   S102      1.0  0.11515  0.74216  0.00286  1.0000
  H   H561      1.0  0.44464  0.71886  0.41470  1.0000
  H   H562      1.0  0.24555  0.78590  0.09037  1.0000
  H   H563      1.0  0.39213  0.66299  0.34108  1.0000
  C   C338      1.0  0.39373  0.93519  0.32473  1.0000
  C   C339      1.0  0.21719  0.69064  0.44904  1.0000
  C   C340      1.0  0.35015  0.96850  0.28471  1.0000
  H   H564      1.0  0.39997  0.73711  0.29630  1.0000
  H   H565      1.0  0.01593  0.74061  0.10794  1.0000
  H   H566      1.0  0.34318  0.94214  0.32594  1.0000
  S   S103      1.0  0.00179  0.83943  0.19052  1.0000
  C   C341      1.0  0.49030  0.69884  0.30823  1.0000
  H   H567      1.0  0.27044  0.84590  0.10531  1.0000
  H   H568      1.0  0.02431  0.66612  0.43013  1.0000
  H   H569      1.0  0.46811  0.83840  0.99210  1.0000
  C   C342      1.0  0.09241  0.67059  0.25141  1.0000
  H   H570      1.0  0.27690  0.76539  0.06654  1.0000
  C   C343      1.0  0.01396  0.91728  0.22284  1.0000
  H   H571      1.0  0.41523  0.66000  0.28485  1.0000
  C   C344      1.0  0.11300  0.66469  0.19232  1.0000
  C   C345      1.0  0.33743  0.94672  0.29837  1.0000
  H   H572      1.0  0.42853  0.74853  0.28952  1.0000
  H   H573      1.0  0.08958  0.66231  0.27789  1.0000
  H   H574      1.0  0.37879  0.96397  0.19938  1.0000
  H   H575      1.0  0.26336  0.75321  0.00768  1.0000
  S   S104      1.0  0.39504  0.69788  0.46548  1.0000
  H   H576      1.0  0.43566  0.80699  0.18804  1.0000
  C   C346      1.0  0.44045  0.99182  0.19855  1.0000
  H   H577      1.0  0.46903  0.82027  0.38520  1.0000
  H   H578      1.0  0.23496  0.81365  0.10976  1.0000
  H   H579      1.0  0.02883  0.88659  0.17262  1.0000
  H   H580      1.0  0.13585  0.80908  0.46735  1.0000
  H   H581      1.0  0.30797  0.76881  0.07478  1.0000
  N   N23       1.0  0.27592  0.82130  0.06138  1.0000
  H   H582      1.0  0.30803  0.83883  0.13771  1.0000
  C   C347      1.0  0.46276  0.77891  0.17728  1.0000
  H   H583      1.0  0.28529  0.79329  0.02388  1.0000
  H   H584      1.0  0.99541  0.90620  0.11125  1.0000
  H   H585      1.0  0.31464  0.84730  0.09319  1.0000
  H   H586      1.0  0.28764  0.78228  0.10416  1.0000
  H   H587      1.0  0.37750  0.92483  0.32484  1.0000
  H   H588      1.0  0.20172  0.68379  0.43572  1.0000
  C   C348      1.0  0.28061  0.82919  0.09940  1.0000
  H   H589      1.0  0.41903  0.73291  0.35296  1.0000
  H   H590      1.0  0.02204  0.94772  0.14498  1.0000
  C   C349      1.0  0.49027  0.82216  0.11071  1.0000
  S   S105      1.0  0.34410  0.72545  0.47657  1.0000
  C   C350      1.0  0.48303  0.81577  0.19166  1.0000
  H   H591      1.0  0.47377  0.69518  0.37604  1.0000
  H   H592      1.0  0.47201  0.84991  0.40301  1.0000
  H   H593      1.0  0.12496  0.69890  0.21707  1.0000
  C   C351      1.0  0.17473  0.76623  0.47581  1.0000
  H   H594      1.0  0.48251  0.73358  0.36328  1.0000
  H   H595      1.0  0.34077  0.97434  0.25983  1.0000
  H   H596      1.0  0.44437  0.83551  0.40493  1.0000
  H   H597      1.0  0.45513  0.99156  0.29983  1.0000
  H   H598      1.0  0.12962  0.78004  0.44888  1.0000
  H   H599      1.0  0.10247  0.70182  0.18230  1.0000
  H   H600      1.0  0.13200  0.69441  0.17131  1.0000
  H   H601      1.0  0.01689  0.80100  0.08674  1.0000
  H   H602      1.0  0.34657  0.98274  0.30474  1.0000
  H   H603      1.0  0.99816  0.70204  0.03465  1.0000
  H   H604      1.0  0.10882  0.79496  0.47690  1.0000
  H   H605      1.0  0.45161  0.77083  0.32628  1.0000
  H   H606      1.0  0.20578  0.75253  0.44816  1.0000
  H   H607      1.0  0.38151  0.97111  0.33535  1.0000
  H   H608      1.0  0.43642  0.99176  0.17017  1.0000
  C   C352      1.0  0.38453  0.98842  0.26230  1.0000
  H   H609      1.0  0.48180  0.78064  0.40901  1.0000
  H   H610      1.0  0.02249  0.70292  0.06468  1.0000
  C   C353      1.0  0.99937  0.77326  0.13113  1.0000
  C   C354      1.0  0.24753  0.76247  0.99830  1.0000
  H   H611      1.0  0.99366  0.70070  0.08240  1.0000
  C   C355      1.0  0.99553  0.96446  0.17845  1.0000
  C   C356      1.0  0.00509  0.69462  0.06027  1.0000
  H   H612      1.0  0.28264  0.85387  0.98227  1.0000
  H   H613      1.0  0.01981  0.75200  0.72182  1.0000
  H   H614      1.0  0.47333  0.72610  0.92864  1.0000
  H   H615      1.0  0.18279  0.79192  0.89429  1.0000
  H   H616      1.0  0.25662  0.69799  0.86772  1.0000
  Fe  Fe51      1.0  0.10053  0.72554  0.50701  1.0000
  S   S106      1.0  0.08109  0.76028  0.51933  1.0000
  S   S107      1.0  0.36640  0.69129  0.56298  1.0000
  S   S108      1.0  0.12402  0.70364  0.54318  1.0000
  Fe  Fe52      1.0  0.02173  0.88435  0.70350  1.0000
  H   H617      1.0  0.40895  0.74481  0.73532  1.0000
  H   H618      1.0  0.20924  0.81908  0.51205  1.0000
  Fe  Fe53      1.0  0.04325  0.83364  0.69262  1.0000
  S   S109      1.0  0.01938  0.81866  0.73383  1.0000
  S   S110      1.0  0.07168  0.80713  0.67388  1.0000
  H   H619      1.0  0.15176  0.74064  0.87957  1.0000
  Fe  Fe54      1.0  0.02749  0.85061  0.76696  1.0000
  S   S111      1.0  0.03818  0.85325  0.82583  1.0000
  H   H620      1.0  0.42151  0.74702  0.79819  1.0000
  S   S112      1.0  0.05313  0.86454  0.72748  1.0000
  C   C357      1.0  0.03938  0.75224  0.72035  1.0000
  Fe  Fe55      1.0  0.36445  0.69491  0.50224  1.0000
  S   S113      1.0  0.08092  0.76676  0.91718  1.0000
  H   H621      1.0  0.29978  0.74919  0.88928  1.0000
  S   S114      1.0  0.34236  0.77305  0.91116  1.0000
  S   S115      1.0  0.38314  0.71634  0.94141  1.0000
  C   C358      1.0  0.02770  0.97182  0.69461  1.0000
  H   H622      1.0  0.04106  0.67178  0.67703  1.0000
  S   S116      1.0  0.27516  0.77967  0.94272  1.0000
  Fe  Fe56      1.0  0.36200  0.80353  0.93502  1.0000
  S   S117      1.0  0.37830  0.83369  0.90481  1.0000
  C   C359      1.0  0.27549  0.70430  0.91949  1.0000
  S   S118      1.0  0.45808  0.81855  0.78674  1.0000
  C   C360      1.0  0.38590  0.70128  0.89985  1.0000
  C   C361      1.0  0.37411  0.70924  0.86891  1.0000
  C   C362      1.0  0.37500  0.69552  0.83731  1.0000
  C   C363      1.0  0.24851  0.77653  0.96769  1.0000
  S   S119      1.0  0.99639  0.87194  0.74471  1.0000
  C   C364      1.0  0.05014  0.95639  0.81364  1.0000
  H   H623      1.0  0.36389  0.72568  0.86955  1.0000
  H   H624      1.0  0.36522  0.70138  0.81380  1.0000
  C   C365      1.0  0.19950  0.80633  0.52845  1.0000
  C   C366      1.0  0.40026  0.82931  0.87174  1.0000
  C   C367      1.0  0.41132  0.84898  0.85721  1.0000
  C   C368      1.0  0.42885  0.84607  0.83083  1.0000
  C   C369      1.0  0.43542  0.82343  0.81869  1.0000
  C   C370      1.0  0.42401  0.80383  0.83280  1.0000
  C   C371      1.0  0.40675  0.80669  0.85945  1.0000
  H   H625      1.0  0.40624  0.86657  0.86632  1.0000
  H   H626      1.0  0.43716  0.86133  0.81973  1.0000
  H   H627      1.0  0.42860  0.78630  0.82336  1.0000
  H   H628      1.0  0.39823  0.79145  0.87021  1.0000
  H   H629      1.0  0.13556  0.74385  0.82681  1.0000
  C   C372      1.0  0.01041  0.91901  0.82761  1.0000
  H   H630      1.0  0.03968  0.95900  0.78859  1.0000
  H   H631      1.0  0.32693  0.67653  0.95893  1.0000
  C   C373      1.0  0.05030  0.82901  0.85060  1.0000
  C   C374      1.0  0.05296  0.80639  0.83555  1.0000
  C   C375      1.0  0.06223  0.78751  0.85631  1.0000
  C   C376      1.0  0.06905  0.79102  0.89223  1.0000
  C   C377      1.0  0.06675  0.81371  0.90712  1.0000
  C   C378      1.0  0.05736  0.83257  0.88642  1.0000
  H   H632      1.0  0.04760  0.80339  0.80805  1.0000
  H   H633      1.0  0.06394  0.77003  0.84455  1.0000
  H   H634      1.0  0.07191  0.81669  0.93473  1.0000
  H   H635      1.0  0.05533  0.84996  0.89837  1.0000
  H   H636      1.0  0.03865  0.97070  0.67106  1.0000
  Fe  Fe57      1.0  0.31543  0.77925  0.95533  1.0000
  H   H637      1.0  0.17246  0.80045  0.85121  1.0000
  H   H638      1.0  0.47032  0.87752  0.91657  1.0000
  H   H639      1.0  0.09115  0.91569  0.76790  1.0000
  C   C379      1.0  0.07849  0.77289  0.56252  1.0000
  C   C380      1.0  0.09257  0.76488  0.59116  1.0000
  C   C381      1.0  0.09042  0.77577  0.62498  1.0000
  C   C382      1.0  0.07381  0.79434  0.63069  1.0000
  C   C383      1.0  0.05947  0.80211  0.60218  1.0000
  C   C384      1.0  0.06201  0.79157  0.56812  1.0000
  H   H640      1.0  0.10523  0.75045  0.58715  1.0000
  H   H641      1.0  0.10166  0.76977  0.64690  1.0000
  H   H642      1.0  0.04669  0.81644  0.60622  1.0000
  H   H643      1.0  0.05109  0.79787  0.54602  1.0000
  H   H644      1.0  0.31639  0.69601  0.57472  1.0000
  C   C385      1.0  0.01857  0.95099  0.70879  1.0000
  H   H645      1.0  0.03717  0.91950  0.77176  1.0000
  H   H646      1.0  0.27310  0.71580  0.49536  1.0000
  H   H647      1.0  0.29209  0.70341  0.84531  1.0000
  H   H648      1.0  0.03872  0.75896  0.66471  1.0000
  C   C386      1.0  0.40086  0.66670  0.86648  1.0000
  H   H649      1.0  0.00568  0.68708  0.70371  1.0000
  H   H650      1.0  0.23409  0.71837  0.52550  1.0000
  C   C387      1.0  0.48716  0.81894  0.52122  1.0000
  H   H651      1.0  0.14341  0.77157  0.57992  1.0000
  H   H652      1.0  0.42332  0.71491  0.84216  1.0000
  C   C388      1.0  0.44538  0.75740  0.74420  1.0000
  C   C389      1.0  0.13918  0.79730  0.90750  1.0000
  S   S120      1.0  0.01421  0.85449  0.66413  1.0000
  H   H653      1.0  0.19096  0.75984  0.54423  1.0000
  H   H654      1.0  0.04931  0.73066  0.57680  1.0000
  H   H655      1.0  0.15514  0.76268  0.95468  1.0000
  H   H656      1.0  0.16220  0.81439  0.52891  1.0000
  N   N24       1.0  0.05412  0.93036  0.82146  1.0000
  H   H657      1.0  0.33631  0.70326  0.97857  1.0000
  Fe  Fe58      1.0  0.36307  0.75127  0.95138  1.0000
  H   H658      1.0  0.44607  0.73550  0.84947  1.0000
  C   C390      1.0  0.07359  0.92315  0.75971  1.0000
  S   S121      1.0  0.18726  0.70408  0.50582  1.0000
  C   C391      1.0  0.38821  0.67410  0.83602  1.0000
  H   H659      1.0  0.46921  0.81210  0.52571  1.0000
  H   H660      1.0  0.32839  0.66064  0.54175  1.0000
  H   H661      1.0  0.29938  0.66341  0.92017  1.0000
  C   C392      1.0  0.16193  0.75175  0.93209  1.0000
  H   H662      1.0  0.45895  0.79922  0.90998  1.0000
  H   H663      1.0  0.46354  0.99047  0.69393  1.0000
  C   C393      1.0  0.42489  0.74911  0.71989  1.0000
  H   H664      1.0  0.15304  0.76594  0.80435  1.0000
  C   C394      1.0  0.31801  0.70891  0.92779  1.0000
  C   C395      1.0  0.14678  0.75528  0.89792  1.0000
  H   H665      1.0  0.45968  0.83764  0.89132  1.0000
  C   C396      1.0  0.47742  0.84453  0.88571  1.0000
  H   H666      1.0  0.11297  0.77787  0.85741  1.0000
  H   H667      1.0  0.26948  0.66199  0.49955  1.0000
  C   C397      1.0  0.00413  0.95294  0.73894  1.0000
  C   C398      1.0  0.38586  0.67062  0.62326  1.0000
  H   H668      1.0  0.40847  0.67373  0.92223  1.0000
  H   H669      1.0  0.46813  0.68652  0.78288  1.0000
  H   H670      1.0  0.21076  0.79012  0.52989  1.0000
  C   C399      1.0  0.07790  0.92586  0.83920  1.0000
  H   H671      1.0  0.26595  0.68282  0.55310  1.0000
  H   H672      1.0  0.05487  0.70097  0.62201  1.0000
  H   H673      1.0  0.13151  0.76170  0.50761  1.0000
  H   H674      1.0  0.07013  0.67384  0.65784  1.0000
  C   C400      1.0  0.04031  0.73341  0.60289  1.0000
  C   C401      1.0  0.18880  0.76547  0.85389  1.0000
  H   H675      1.0  0.45951  0.76288  0.72578  1.0000
  H   H676      1.0  0.20283  0.75980  0.87333  1.0000
  H   H677      1.0  0.13105  0.78948  0.52962  1.0000
  H   H678      1.0  0.49015  0.77575  0.75670  1.0000
  H   H679      1.0  0.27434  0.69438  0.94497  1.0000
  C   C402      1.0  0.17293  0.78542  0.87031  1.0000
  H   H680      1.0  0.00949  0.90374  0.80887  1.0000
  C   C403      1.0  0.46865  0.83260  0.96363  1.0000
  H   H681      1.0  0.04772  0.74102  0.74137  1.0000
  C   C404      1.0  0.30265  0.67378  0.89559  1.0000
  H   H682      1.0  0.03779  0.99055  0.83414  1.0000
  H   H683      1.0  0.27291  0.72310  0.92815  1.0000
  S   S122      1.0  0.02471  0.92329  0.68675  1.0000
  N   N25       1.0  0.04483  0.72098  0.66955  1.0000
  C   C405      1.0  0.05436  0.71946  0.63191  1.0000
  C   C406      1.0  0.05994  0.70439  0.69221  1.0000
  C   C407      1.0  0.04809  0.74604  0.68246  1.0000
  C   C408      1.0  0.01904  0.71481  0.66886  1.0000
  S   S123      1.0  0.33356  0.81180  0.97558  1.0000
  C   C409      1.0  0.05925  0.67792  0.68178  1.0000
  C   C410      1.0  0.21496  0.70120  0.48288  1.0000
  C   C411      1.0  0.39948  0.68011  0.89834  1.0000
  H   H684      1.0  0.42382  0.71839  0.77862  1.0000
  H   H685      1.0  0.43026  0.73387  0.70271  1.0000
  H   H686      1.0  0.05534  0.70557  0.72087  1.0000
  H   H687      1.0  0.07882  0.70955  0.69142  1.0000
  H   H688      1.0  0.06713  0.75058  0.68157  1.0000
  H   H689      1.0  0.29654  0.74710  0.84183  1.0000
  C   C412      1.0  0.47463  0.87169  0.88898  1.0000
  H   H690      1.0  0.01616  0.70026  0.64923  1.0000
  H   H691      1.0  0.29105  0.71442  0.56582  1.0000
  H   H692      1.0  0.12196  0.76485  0.79757  1.0000
  C   C413      1.0  0.03730  0.97169  0.84223  1.0000
  H   H693      1.0  0.06821  0.93274  0.89584  1.0000
  H   H694      1.0  0.03327  0.93033  0.87020  1.0000
  H   H695      1.0  0.43901  0.77394  0.75787  1.0000
  C   C414      1.0  0.99929  0.97528  0.75491  1.0000
  H   H696      1.0  0.04441  0.77066  0.72670  1.0000
  H   H697      1.0  0.01789  0.71122  0.72902  1.0000
  H   H698      1.0  0.18995  0.79457  0.96432  1.0000
  H   H699      1.0  0.06703  0.66714  0.70392  1.0000
  C   C415      1.0  0.22740  0.78777  0.95543  1.0000
  C   C416      1.0  0.17172  0.76340  0.54127  1.0000
  H   H700      1.0  0.27229  0.73986  0.86960  1.0000
  H   H701      1.0  0.22783  0.79868  0.93179  1.0000
  H   H702      1.0  0.05587  0.89737  0.79152  1.0000
  H   H703      1.0  0.16097  0.73307  0.94081  1.0000
  H   H704      1.0  0.47726  0.70114  0.88082  1.0000
  H   H705      1.0  0.31406  0.72766  0.93519  1.0000
  H   H706      1.0  0.05014  0.68001  0.55404  1.0000
  H   H707      1.0  0.08135  0.90645  0.84239  1.0000
  H   H708      1.0  0.09242  0.93229  0.82233  1.0000
  H   H709      1.0  0.17952  0.74974  0.84424  1.0000
  C   C417      1.0  0.13545  0.82287  0.89404  1.0000
  H   H710      1.0  0.34181  0.67029  0.89926  1.0000
  N   N26       1.0  0.45483  0.73967  0.77124  1.0000
  H   H711      1.0  0.04554  0.97031  0.86911  1.0000
  S   S124      1.0  0.38421  0.78144  0.97293  1.0000
  C   C418      1.0  0.08170  0.93752  0.87608  1.0000
  C   C419      1.0  0.46576  0.71902  0.75101  1.0000
  C   C420      1.0  0.16283  0.77312  0.57756  1.0000
  H   H712      1.0  0.01833  0.96749  0.84401  1.0000
  H   H713      1.0  0.48739  0.68469  0.97873  1.0000
  C   C421      1.0  0.28366  0.67684  0.56338  1.0000
  C   C422      1.0  0.30121  0.71283  0.86750  1.0000
  C   C423      1.0  0.00816  0.70650  0.70436  1.0000
  C   C424      1.0  0.20579  0.78536  0.97370  1.0000
  H   H714      1.0  0.45185  0.70901  0.73664  1.0000
  H   H715      1.0  0.18080  0.75535  0.92767  1.0000
  H   H716      1.0  0.32000  0.71321  0.85885  1.0000
  H   H717      1.0  0.45960  0.87779  0.87170  1.0000
  H   H718      1.0  0.15115  0.82942  0.88012  1.0000
  H   H719      1.0  0.04042  0.90197  0.85314  1.0000
  H   H720      1.0  0.13168  0.79792  0.83574  1.0000
  N   N27       1.0  0.29929  0.69991  0.90254  1.0000
  C   C425      1.0  0.43983  0.72167  0.83068  1.0000
  H   H721      1.0  0.46407  0.76775  0.80793  1.0000
  H   H722      1.0  0.45263  0.70663  0.82972  1.0000
  H   H723      1.0  0.06724  0.96491  0.80816  1.0000
  C   C426      1.0  0.03527  0.92030  0.84477  1.0000
  H   H724      1.0  0.19828  0.77254  0.83055  1.0000
  H   H725      1.0  0.08274  0.95698  0.87374  1.0000
  H   H726      1.0  0.09905  0.93120  0.88713  1.0000
  H   H727      1.0  0.12818  0.75164  0.90511  1.0000
  C   C427      1.0  0.30028  0.69767  0.55773  1.0000
  H   H728      1.0  0.11948  0.82462  0.87658  1.0000
  N   N28       1.0  0.16555  0.77846  0.50912  1.0000
  N   N29       1.0  0.14811  0.77922  0.88053  1.0000
  H   H729      1.0  0.07306  0.72519  0.63125  1.0000
  H   H730      1.0  0.17095  0.76234  0.59943  1.0000
  C   C428      1.0  0.32705  0.66595  0.88080  1.0000
  Fe  Fe59      1.0  0.10304  0.67299  0.52286  1.0000
  C   C429      1.0  0.32156  0.69530  0.96322  1.0000
  C   C430      1.0  0.13622  0.76247  0.81806  1.0000
  C   C431      1.0  0.13151  0.78028  0.84864  1.0000
  H   H731      1.0  0.01143  0.68342  0.58457  1.0000
  H   H732      1.0  0.00806  0.73011  0.65908  1.0000
  C   C432      1.0  0.25382  0.69695  0.89691  1.0000
  C   C433      1.0  0.13884  0.77972  0.50641  1.0000
  H   H733      1.0  0.23861  0.70920  0.90274  1.0000
  H   H734      1.0  0.30572  0.69970  0.52958  1.0000
  H   H735      1.0  0.02215  0.72687  0.59931  1.0000
  H   H736      1.0  0.16765  0.79171  0.58231  1.0000
  H   H737      1.0  0.15143  0.79841  0.93090  1.0000
  H   H738      1.0  0.47674  0.77484  0.89393  1.0000
  H   H739      1.0  0.19833  0.81436  0.55562  1.0000
  S   S125      1.0  0.48290  0.87235  0.72322  1.0000
  C   C434      1.0  0.23547  0.71001  0.49947  1.0000
  Fe  Fe60      1.0  0.09305  0.77079  0.97531  1.0000
  H   H740      1.0  0.07455  0.94248  0.75555  1.0000
  H   H741      1.0  0.12196  0.79204  0.91849  1.0000
  H   H742      1.0  0.00519  0.93543  0.81331  1.0000
  C   C435      1.0  0.17443  0.80331  0.51214  1.0000
  H   H743      1.0  0.03970  0.75270  0.60788  1.0000
  H   H744      1.0  0.48065  0.84015  0.85701  1.0000
  H   H745      1.0  0.13211  0.83470  0.91744  1.0000
  C   C436      1.0  0.47144  0.71442  0.95204  1.0000
  C   C437      1.0  0.05419  0.91675  0.78652  1.0000
  H   H746      1.0  0.16431  0.74546  0.53786  1.0000
  C   C438      1.0  0.43419  0.73191  0.79334  1.0000
  H   H747      1.0  0.41956  0.76377  0.70159  1.0000
  C   C439      1.0  0.29184  0.73867  0.86746  1.0000
  H   H748      1.0  0.33547  0.70915  0.91462  1.0000
  H   H749      1.0  0.06939  0.91520  0.73320  1.0000
  H   H750      1.0  0.24886  0.67862  0.90340  1.0000
  H   H751      1.0  0.99720  0.91606  0.84879  1.0000
  H   H752      1.0  0.30575  0.69665  0.98046  1.0000
  H   H753      1.0  0.37354  0.68198  0.63777  1.0000
  H   H754      1.0  0.45332  0.70739  0.95232  1.0000
  H   H755      1.0  0.33026  0.67366  0.85414  1.0000
  C   C440      1.0  0.02316  0.66842  0.58999  1.0000
  H   H756      1.0  0.48553  0.83840  0.51907  1.0000
  H   H757      1.0  0.28147  0.67492  0.59280  1.0000
  H   H758      1.0  0.28927  0.66757  0.87584  1.0000
  Fe  Fe61      1.0  0.48486  0.84514  0.76730  1.0000
  Fe  Fe62      1.0  0.14751  0.69743  0.49484  1.0000
  H   H759      1.0  0.46904  0.79847  0.86437  1.0000
  C   C441      1.0  0.47397  0.79432  0.89249  1.0000
  H   H760      1.0  0.32037  0.66285  0.60886  1.0000
  H   H761      1.0  0.99644  0.93725  0.74967  1.0000
  H   H762      1.0  0.17415  0.81184  0.48535  1.0000
  H   H763      1.0  0.45335  0.67682  0.91412  1.0000
  C   C442      1.0  0.38627  0.67154  0.58566  1.0000
  C   C443      1.0  0.04511  0.66652  0.57259  1.0000
  H   H764      1.0  0.29928  0.66939  0.49539  1.0000
  H   H765      1.0  0.45370  0.84195  0.94981  1.0000
  C   C444      1.0  0.25775  0.70843  0.48256  1.0000
  H   H766      1.0  0.49057  0.78917  0.48626  1.0000
  S   S126      1.0  0.07818  0.69540  0.48984  1.0000
  C   C445      1.0  0.47261  0.75217  0.79451  1.0000
  C   C446      1.0  0.47989  0.70032  0.77291  1.0000
  H   H767      1.0  0.47723  0.72496  0.72894  1.0000
  H   H768      1.0  0.21028  0.75420  0.49507  1.0000
  N   N30       1.0  0.49132  0.67779  0.92200  1.0000
  H   H769      1.0  0.49031  0.88094  0.87929  1.0000
  H   H770      1.0  0.47931  0.74100  0.81681  1.0000
  C   C447      1.0  0.46853  0.66457  0.92043  1.0000
  H   H771      1.0  0.46593  0.81332  0.96339  1.0000
  H   H772      1.0  0.47317  0.72574  0.97629  1.0000
  C   C448      1.0  0.49064  0.69447  0.95361  1.0000
  H   H773      1.0  0.49028  0.70750  0.79544  1.0000
  C   C449      1.0  0.49282  0.83863  0.94803  1.0000
  Fe  Fe63      1.0  0.86301  0.19510  0.00977  1.0000
  S   S127      1.0  0.86793  0.19522  0.07073  1.0000
  H   H774      1.0  0.89853  0.23264  0.13323  1.0000
  H   H775      1.0  0.80576  0.25680  0.03881  1.0000
  C   C450      1.0  0.50643  0.21216  0.19124  1.0000
  Fe  Fe64      1.0  0.64399  0.19204  0.01404  1.0000
  C   C451      1.0  0.86541  0.07403  0.30340  1.0000
  S   S128      1.0  0.68369  0.18139  0.02086  1.0000
  Fe  Fe65      1.0  0.59337  0.17394  0.02772  1.0000
  H   H776      1.0  0.65948  0.31741  0.36155  1.0000
  S   S129      1.0  0.56576  0.14738  0.04397  1.0000
  H   H777      1.0  0.50481  0.13671  0.99341  1.0000
  Fe  Fe66      1.0  0.60168  0.22698  0.02246  1.0000
  S   S130      1.0  0.58009  0.26045  0.03567  1.0000
  S   S131      1.0  0.83854  0.16944  0.98325  1.0000
  S   S132      1.0  0.61701  0.19847  0.05857  1.0000
  S   S133      1.0  0.59554  0.28188  0.40173  1.0000
  Fe  Fe67      1.0  0.85532  0.23974  0.45215  1.0000
  S   S134      1.0  0.83918  0.26578  0.41282  1.0000
  S   S135      1.0  0.87221  0.20300  0.44449  1.0000
  C   C452      1.0  0.89953  0.30312  0.34597  1.0000
  H   H778      1.0  0.63266  0.28919  0.33720  1.0000
  Fe  Fe68      1.0  0.86372  0.29189  0.43853  1.0000
  N   N31       1.0  0.51992  0.04254  0.17910  1.0000
  Fe  Fe69      1.0  0.94113  0.12210  0.21722  1.0000
  S   S136      1.0  0.91277  0.09814  0.23586  1.0000
  S   S137      1.0  0.94448  0.13411  0.15939  1.0000
  Fe  Fe70      1.0  0.96363  0.12631  0.29280  1.0000
  S   S138      1.0  0.93674  0.10230  0.31609  1.0000
  Fe  Fe71      1.0  0.94201  0.07902  0.26673  1.0000
  S   S139      1.0  0.94615  0.03854  0.27615  1.0000
  Fe  Fe72      1.0  0.91021  0.12305  0.28327  1.0000
  S   S140      1.0  0.87571  0.13986  0.30257  1.0000
  S   S141      1.0  0.97096  0.10200  0.24567  1.0000
  S   S142      1.0  0.93642  0.14804  0.26215  1.0000
  C   C453      1.0  0.87314  0.18627  0.40419  1.0000
  C   C454      1.0  0.85788  0.19115  0.37531  1.0000
  C   C455      1.0  0.85883  0.17683  0.34427  1.0000
  C   C456      1.0  0.87552  0.15804  0.34138  1.0000
  C   C457      1.0  0.89112  0.15352  0.36998  1.0000
  C   C458      1.0  0.88971  0.16737  0.40138  1.0000
  H   H779      1.0  0.84498  0.20558  0.37718  1.0000
  H   H780      1.0  0.84658  0.18034  0.32237  1.0000
  H   H781      1.0  0.90394  0.13901  0.36819  1.0000
  H   H782      1.0  0.90155  0.16341  0.42359  1.0000
  C   C459      1.0  0.79367  0.16088  0.06031  1.0000
  C   C460      1.0  0.94095  0.01105  0.25315  1.0000
  C   C461      1.0  0.55680  0.31519  0.32372  1.0000
  H   H783      1.0  0.92836  0.02608  0.20353  1.0000
  N   N32       1.0  0.87235  0.04804  0.30292  1.0000
  C   C462      1.0  0.56076  0.24794  0.16784  1.0000
  C   C463      1.0  0.52225  0.14343  0.14733  1.0000
  C   C464      1.0  0.51336  0.13475  0.11487  1.0000
  C   C465      1.0  0.52675  0.13641  0.08336  1.0000
  C   C466      1.0  0.54876  0.14744  0.08368  1.0000
  C   C467      1.0  0.55727  0.15680  0.11590  1.0000
  C   C468      1.0  0.54420  0.15454  0.14758  1.0000
  H   H784      1.0  0.53607  0.00898  0.19654  1.0000
  H   H785      1.0  0.52009  0.12892  0.05868  1.0000
  H   H786      1.0  0.57433  0.16499  0.11665  1.0000
  H   H787      1.0  0.55132  0.16113  0.17260  1.0000
  H   H788      1.0  0.49811  0.21026  0.21785  1.0000
  S   S143      1.0  0.88929  0.31818  0.41529  1.0000
  C   C469      1.0  0.57348  0.29958  0.37981  1.0000
  H   H789      1.0  0.51835  0.08377  0.13096  1.0000
  H   H790      1.0  0.54097  0.23732  0.08268  1.0000
  H   H791      1.0  0.65757  0.24098  0.35243  1.0000
  C   C470      1.0  0.60023  0.29387  0.12787  1.0000
  C   C471      1.0  0.60022  0.27840  0.09809  1.0000
  C   C472      1.0  0.58095  0.27866  0.07430  1.0000
  C   C473      1.0  0.56161  0.29417  0.08084  1.0000
  C   C474      1.0  0.74544  0.19021  0.08881  1.0000
  H   H792      1.0  0.61534  0.29391  0.14586  1.0000
  H   H793      1.0  0.61528  0.26666  0.09315  1.0000
  H   H794      1.0  0.54672  0.29459  0.06242  1.0000
  H   H795      1.0  0.82685  0.17828  0.11421  1.0000
  C   C475      1.0  0.88803  0.17611  0.09428  1.0000
  C   C476      1.0  0.90700  0.16451  0.07723  1.0000
  C   C477      1.0  0.92378  0.15116  0.09740  1.0000
  C   C478      1.0  0.92155  0.14885  0.13468  1.0000
  C   C479      1.0  0.90219  0.15989  0.15160  1.0000
  C   C480      1.0  0.88570  0.17367  0.13154  1.0000
  H   H796      1.0  0.90906  0.16626  0.04861  1.0000
  H   H797      1.0  0.93870  0.14272  0.08407  1.0000
  H   H798      1.0  0.90027  0.15831  0.18026  1.0000
  H   H799      1.0  0.87117  0.18262  0.14505  1.0000
  C   C481      1.0  0.55562  0.31174  0.39866  1.0000
  C   C482      1.0  0.55105  0.22342  0.09760  1.0000
  H   H800      1.0  0.49620  0.23547  0.11531  1.0000
  H   H801      1.0  0.58047  0.05460  0.18932  1.0000
  C   C483      1.0  0.73034  0.17399  0.00053  1.0000
  C   C484      1.0  0.91334  0.30286  0.31476  1.0000
  H   H802      1.0  0.62373  0.26108  0.32204  1.0000
  H   H803      1.0  0.68012  0.29149  0.33425  1.0000
  H   H804      1.0  0.90701  0.29396  0.29096  1.0000
  H   H805      1.0  0.57292  0.23326  0.17686  1.0000
  S   S144      1.0  0.50719  0.14032  0.18845  1.0000
  H   H806      1.0  0.96339  0.20135  0.08133  1.0000
  H   H807      1.0  0.97219  0.18541  0.12030  1.0000
  H   H808      1.0  0.58066  0.27230  0.20097  1.0000
  C   C485      1.0  0.90714  0.31520  0.37660  1.0000
  H   H809      1.0  0.66102  0.25232  0.45092  1.0000
  H   H810      1.0  0.55129  0.20419  0.14710  1.0000
  C   C486      1.0  0.56524  0.04287  0.19285  1.0000
  H   H811      1.0  0.79078  0.15558  0.08822  1.0000
  H   H812      1.0  0.90269  0.26228  0.39184  1.0000
  H   H813      1.0  0.86588  0.06791  0.22861  1.0000
  H   H814      1.0  0.81866  0.18856  0.05438  1.0000
  C   C487      1.0  0.95951  0.24234  0.16820  1.0000
  C   C488      1.0  0.52561  0.23099  0.19384  1.0000
  H   H815      1.0  0.72017  0.30029  0.34756  1.0000
  S   S145      1.0  0.62126  0.16488  0.98661  1.0000
  H   H816      1.0  0.75020  0.17205  0.08009  1.0000
  H   H817      1.0  0.94625  0.26911  0.37918  1.0000
  H   H818      1.0  0.79880  0.22974  0.01721  1.0000
  C   C489      1.0  0.79465  0.24099  0.04072  1.0000
  S   S146      1.0  0.83698  0.30382  0.48006  1.0000
  H   H819      1.0  0.78290  0.18198  0.12736  1.0000
  H   H820      1.0  0.54251  0.07295  0.18100  1.0000
  C   C490      1.0  0.50885  0.05114  0.21355  1.0000
  C   C491      1.0  0.56133  0.30911  0.11109  1.0000
  C   C492      1.0  0.86524  0.04872  0.23450  1.0000
  H   H821      1.0  0.54216  0.11736  0.98817  1.0000
  C   C493      1.0  0.89202  0.04442  0.33015  1.0000
  H   H822      1.0  0.84727  0.00808  0.26779  1.0000
  C   C494      1.0  0.57394  0.30136  0.34230  1.0000
  H   H823      1.0  0.72233  0.28109  0.38498  1.0000
  H   H824      1.0  0.87258  0.08781  0.35766  1.0000
  C   C495      1.0  0.80037  0.22817  0.07625  1.0000
  H   H825      1.0  0.74418  0.19104  0.11841  1.0000
  Fe  Fe73      1.0  0.81351  0.27543  0.45768  1.0000
  N   N33       1.0  0.53648  0.23884  0.15921  1.0000
  H   H826      1.0  0.53315  0.05485  0.25944  1.0000
  C   C496      1.0  0.53989  0.21805  0.13404  1.0000
  C   C497      1.0  0.75216  0.18004  0.98526  1.0000
  H   H827      1.0  0.84665  0.04405  0.23925  1.0000
  H   H828      1.0  0.55738  0.31642  0.29486  1.0000
  H   H829      1.0  0.56983  0.22832  0.10043  1.0000
  C   C498      1.0  0.88183  0.04218  0.26621  1.0000
  H   H830      1.0  0.70432  0.30808  0.38719  1.0000
  H   H831      1.0  0.95241  0.17125  0.38713  1.0000
  C   C499      1.0  0.81877  0.19269  0.13068  1.0000
  H   H832      1.0  0.50219  0.20476  0.47286  1.0000
  H   H833      1.0  0.81964  0.18675  0.15895  1.0000
  C   C500      1.0  0.70992  0.29297  0.36992  1.0000
  C   C501      1.0  0.94339  0.21186  0.12850  1.0000
  C   C502      1.0  0.79271  0.19787  0.12004  1.0000
  H   H834      1.0  0.97559  0.20363  0.36298  1.0000
  H   H835      1.0  0.79349  0.19171  0.02752  1.0000
  C   C503      1.0  0.79908  0.18726  0.05534  1.0000
  C   C504      1.0  0.51998  0.04224  0.24905  1.0000
  H   H836      1.0  0.98105  0.21584  0.11447  1.0000
  C   C505      1.0  0.56188  0.26762  0.19662  1.0000
  H   H837      1.0  0.69819  0.22418  0.98276  1.0000
  H   H838      1.0  0.94372  0.20771  0.24230  1.0000
  C   C506      1.0  0.50357  0.05003  0.14868  1.0000
  H   H839      1.0  0.63697  0.25493  0.38183  1.0000
  H   H840      1.0  0.79571  0.24089  0.09815  1.0000
  H   H841      1.0  0.91345  0.25767  0.15272  1.0000
  H   H842      1.0  0.88484  0.23825  0.37890  1.0000
  C   C507      1.0  0.85012  0.00835  0.29719  1.0000
  H   H843      1.0  0.72748  0.30760  0.45330  1.0000
  H   H844      1.0  0.94962  0.25094  0.22544  1.0000
  H   H845      1.0  0.51778  0.24643  0.20868  1.0000
  N   N34       1.0  0.94041  0.22007  0.36135  1.0000
  C   C508      1.0  0.96112  0.20897  0.38168  1.0000
  C   C509      1.0  0.95000  0.23996  0.33955  1.0000
  C   C510      1.0  0.93094  0.20131  0.33658  1.0000
  C   C511      1.0  0.92211  0.22833  0.38810  1.0000
  C   C512      1.0  0.95585  0.18693  0.40422  1.0000
  C   C513      1.0  0.95971  0.26099  0.36117  1.0000
  C   C514      1.0  0.91027  0.20856  0.31142  1.0000
  C   C515      1.0  0.90249  0.24596  0.37512  1.0000
  H   H846      1.0  0.94311  0.27403  0.19330  1.0000
  H   H847      1.0  0.96889  0.22182  0.40078  1.0000
  H   H848      1.0  0.93668  0.24764  0.32078  1.0000
  H   H849      1.0  0.96445  0.23317  0.32185  1.0000
  H   H850      1.0  0.94540  0.19372  0.31954  1.0000
  H   H851      1.0  0.92429  0.18627  0.35206  1.0000
  H   H852      1.0  0.91300  0.21296  0.39918  1.0000
  H   H853      1.0  0.93078  0.23668  0.41177  1.0000
  H   H854      1.0  0.97169  0.18222  0.42077  1.0000
  H   H855      1.0  0.94108  0.19002  0.42308  1.0000
  H   H856      1.0  0.55102  0.20717  0.08071  1.0000
  H   H857      1.0  0.78566  0.21195  0.13835  1.0000
  H   H858      1.0  0.88834  0.24552  0.17411  1.0000
  C   C516      1.0  0.71303  0.21170  0.98335  1.0000
  H   H859      1.0  0.89400  0.21307  0.32650  1.0000
  H   H860      1.0  0.92006  0.23001  0.20865  1.0000
  H   H861      1.0  0.89860  0.05145  0.26172  1.0000
  S   S147      1.0  0.88115  0.26533  0.47521  1.0000
  H   H862      1.0  0.90347  0.25126  0.34686  1.0000
  H   H863      1.0  0.95543  0.25326  0.14407  1.0000
  H   H864      1.0  0.52814  0.02433  0.24762  1.0000
  H   H865      1.0  0.82000  0.22584  0.07734  1.0000
  S   S148      1.0  0.57713  0.20257  0.99383  1.0000
  H   H866      1.0  0.80923  0.14996  0.05153  1.0000
  C   C517      1.0  0.85102  0.03386  0.31220  1.0000
  H   H867      1.0  0.75864  0.21036  0.04530  1.0000
  C   C518      1.0  0.66958  0.23990  0.43174  1.0000
  H   H868      1.0  0.86607  0.99740  0.30359  1.0000
  H   H869      1.0  0.77826  0.15575  0.04372  1.0000
  C   C519      1.0  0.54346  0.05385  0.17333  1.0000
  H   H870      1.0  0.64708  0.28406  0.42205  1.0000
  C   C520      1.0  0.72680  0.29143  0.46846  1.0000
  H   H871      1.0  0.84812  0.10174  0.33529  1.0000
  H   H872      1.0  0.82965  0.20863  0.12905  1.0000
  C   C521      1.0  0.90454  0.24098  0.15866  1.0000
  H   H873      1.0  0.50920  0.07074  0.21522  1.0000
  C   C522      1.0  0.93492  0.31459  0.31384  1.0000
  C   C523      1.0  0.93202  0.00990  0.21807  1.0000
  H   H874      1.0  0.88677  0.02316  0.26337  1.0000
  H   H875      1.0  0.84456  0.07296  0.35343  1.0000
  H   H876      1.0  0.93590  0.22618  0.11111  1.0000
  H   H877      1.0  0.53946  0.22317  0.21206  1.0000
  H   H878      1.0  0.91130  0.20653  0.18115  1.0000
  H   H879      1.0  0.57052  0.02550  0.18097  1.0000
  H   H880      1.0  0.90632  0.00998  0.30990  1.0000
  H   H881      1.0  0.72733  0.19415  0.07816  1.0000
  C   C524      1.0  0.49716  0.25300  0.12829  1.0000
  C   C525      1.0  0.68864  0.27966  0.35433  1.0000
  C   C526      1.0  0.85723  0.08433  0.33978  1.0000
  H   H882      1.0  0.83437  0.04290  0.30272  1.0000
  H   H883      1.0  0.49613  0.08719  0.16525  1.0000
  H   H884      1.0  0.68144  0.22799  0.44781  1.0000
  H   H885      1.0  0.85060  0.07787  0.28427  1.0000
  H   H886      1.0  0.49563  0.29532  0.45431  1.0000
  H   H887      1.0  0.90732  0.05552  0.32341  1.0000
  H   H888      1.0  0.52953  0.01036  0.15052  1.0000
  H   H889      1.0  0.72874  0.15688  0.01286  1.0000
  H   H890      1.0  0.69580  0.26449  0.33817  1.0000
  H   H891      1.0  0.55502  0.26212  0.22287  1.0000
  N   N35       1.0  0.78846  0.20486  0.08157  1.0000
  N   N36       1.0  0.67129  0.27106  0.38138  1.0000
  C   C527      1.0  0.65133  0.25861  0.36267  1.0000
  C   C528      1.0  0.71055  0.18972  0.99971  1.0000
  H   H892      1.0  0.69337  0.23920  0.38723  1.0000
  H   H893      1.0  0.90584  0.19303  0.29446  1.0000
  H   H894      1.0  0.54804  0.05342  0.14435  1.0000
  H   H895      1.0  0.91808  0.01935  0.35165  1.0000
  H   H896      1.0  0.88035  0.08488  0.29437  1.0000
  H   H897      1.0  0.69885  0.26125  0.42001  1.0000
  C   C529      1.0  0.52268  0.01596  0.17723  1.0000
  H   H898      1.0  0.97881  0.23790  0.16686  1.0000
  C   C530      1.0  0.96074  0.20451  0.22848  1.0000
  H   H899      1.0  0.56270  0.04105  0.22192  1.0000
  H   H900      1.0  0.67535  0.29546  0.42592  1.0000
  H   H901      1.0  0.65613  0.22866  0.41886  1.0000
  H   H902      1.0  0.55255  0.28403  0.18773  1.0000
  H   H903      1.0  0.94789  0.18365  0.18434  1.0000
  C   C531      1.0  0.68448  0.25298  0.40424  1.0000
  C   C532      1.0  0.66186  0.29051  0.40564  1.0000
  H   H904      1.0  0.88636  0.05027  0.35725  1.0000
  H   H905      1.0  0.84920  0.03269  0.34179  1.0000
  C   C533      1.0  0.95554  0.25924  0.20057  1.0000
  C   C534      1.0  0.76229  0.20882  0.07452  1.0000
  H   H906      1.0  0.77593  0.24733  0.03901  1.0000
  H   H907      1.0  0.75605  0.22598  0.08646  1.0000
  H   H908      1.0  0.50578  0.04094  0.26926  1.0000
  S   S149      1.0  0.95105  0.31474  0.27337  1.0000
  C   C535      1.0  0.52198  0.25878  0.14265  1.0000
  C   C536      1.0  0.58077  0.30924  0.13451  1.0000
  C   C537      1.0  0.96657  0.20324  0.11061  1.0000
  H   H909      1.0  0.93082  0.19722  0.12600  1.0000
  S   S150      1.0  0.77383  0.28535  0.44976  1.0000
  S   S151      1.0  0.52167  0.32119  0.21948  1.0000
  H   H910      1.0  0.91458  0.22292  0.29288  1.0000
  C   C538      1.0  0.92046  0.22371  0.18057  1.0000
  H   H911      1.0  0.87141  0.03916  0.21008  1.0000
  H   H912      1.0  0.51431  0.19454  0.18427  1.0000
  H   H913      1.0  0.96480  0.27497  0.34222  1.0000
  H   H914      1.0  0.97592  0.25612  0.37666  1.0000
  C   C539      1.0  0.63940  0.27123  0.33052  1.0000
  H   H915      1.0  0.88888  0.00829  0.35035  1.0000
  H   H916      1.0  0.58757  0.29197  0.32745  1.0000
  N   N37       1.0  0.94536  0.22006  0.16700  1.0000
  H   H917      1.0  0.52720  0.15810  0.99533  1.0000
  H   H918      1.0  0.53173  0.26754  0.12099  1.0000
  S   S152      1.0  0.98496  0.15051  0.32964  1.0000
  H   H919      1.0  0.97248  0.26784  0.20726  1.0000
  H   H920      1.0  0.51899  0.27334  0.16243  1.0000
  C   C540      1.0  0.90156  0.01892  0.33530  1.0000
  H   H921      1.0  0.56896  0.25534  0.14364  1.0000
  Fe  Fe74      1.0  0.59899  0.27757  0.46212  1.0000
  H   H922      1.0  0.88261  0.29466  0.34598  1.0000
  H   H923      1.0  0.65124  0.27169  0.30708  1.0000
  H   H924      1.0  0.97573  0.19672  0.17789  1.0000
  H   H925      1.0  0.96887  0.18821  0.24036  1.0000
  H   H926      1.0  0.52310  0.20917  0.12788  1.0000
  H   H927      1.0  0.50909  0.04139  0.12307  1.0000
  C   C541      1.0  0.95756  0.20043  0.18796  1.0000
  C   C542      1.0  0.50425  0.18538  0.46863  1.0000
  C   C543      1.0  0.74735  0.27684  0.47159  1.0000
  H   H928      1.0  0.50472  0.31665  0.08620  1.0000
  H   H929      1.0  0.49641  0.12637  0.11417  1.0000
  H   H930      1.0  0.63286  0.31407  0.38653  1.0000
  H   H931      1.0  0.50967  0.18169  0.44071  1.0000
  H   H932      1.0  0.54632  0.32092  0.11589  1.0000
  H   H933      1.0  0.76691  0.16747  0.98524  1.0000
  H   H934      1.0  0.55510  0.31054  0.42751  1.0000
  C   C544      1.0  0.65248  0.31372  0.38828  1.0000
  C   C545      1.0  0.50161  0.07684  0.14134  1.0000
  C   C546      1.0  0.53837  0.32547  0.38003  1.0000
  H   H935      1.0  0.50168  0.14627  0.40567  1.0000
  C   C547      1.0  0.50004  0.00221  0.18411  1.0000
  S   S153      1.0  0.84591  0.22718  0.98355  1.0000
  H   H936      1.0  0.97323  0.21883  0.23416  1.0000
  C   C548      1.0  0.51047  0.15354  0.98121  1.0000
  H   H937      1.0  0.83484  0.99943  0.30906  1.0000
  C   C549      1.0  0.49320  0.32476  0.06506  1.0000
  H   H938      1.0  0.49304  0.00585  0.21125  1.0000
  S   S154      1.0  0.94913  0.13542  0.78040  1.0000
  Fe  Fe75      1.0  0.87167  0.22135  0.93829  1.0000
  S   S155      1.0  0.84709  0.19764  0.90777  1.0000
  S   S156      1.0  0.89871  0.24415  0.91012  1.0000
  H   H939      1.0  0.85716  0.31946  0.87965  1.0000
  Fe  Fe76      1.0  0.86529  0.16824  0.93854  1.0000
  S   S157      1.0  0.88137  0.13410  0.91575  1.0000
  Fe  Fe77      1.0  0.82223  0.20113  0.95519  1.0000
  C   C550      1.0  0.49501  0.29025  0.53906  1.0000
  C   C551      1.0  0.53969  0.19827  0.69999  1.0000
  S   S158      1.0  0.59991  0.19586  0.89505  1.0000
  Fe  Fe78      1.0  0.63766  0.26579  0.51792  1.0000
  Fe  Fe79      1.0  0.60628  0.19540  0.95519  1.0000
  S   S159      1.0  0.67742  0.25586  0.52582  1.0000
  Fe  Fe80      1.0  0.59455  0.29746  0.53798  1.0000
  S   S160      1.0  0.56990  0.27780  0.50214  1.0000
  Fe  Fe81      1.0  0.58753  0.24516  0.52532  1.0000
  S   S161      1.0  0.55969  0.21845  0.53960  1.0000
  H   H940      1.0  0.95923  0.26098  0.89360  1.0000
  S   S162      1.0  0.61109  0.26499  0.56330  1.0000
  H   H941      1.0  0.50510  0.16105  0.86746  1.0000
  Fe  Fe82      1.0  0.53122  0.11039  0.76474  1.0000
  S   S163      1.0  0.55473  0.09066  0.72597  1.0000
  S   S164      1.0  0.54181  0.11336  0.82353  1.0000
  H   H942      1.0  0.52707  0.23314  0.76503  1.0000
  S   S165      1.0  0.51379  0.10001  0.66473  1.0000
  Fe  Fe83      1.0  0.52180  0.07236  0.70745  1.0000
  S   S166      1.0  0.52107  0.03278  0.69171  1.0000
  Fe  Fe84      1.0  0.54458  0.11985  0.68737  1.0000
  S   S167      1.0  0.57361  0.13917  0.65867  1.0000
  H   H943      1.0  0.73272  0.30277  0.61243  1.0000
  S   S168      1.0  0.52315  0.14055  0.72761  1.0000
  Fe  Fe85      1.0  0.85317  0.27546  0.51479  1.0000
  S   S169      1.0  0.85960  0.27801  0.57511  1.0000
  H   H944      1.0  0.78472  0.24308  0.58590  1.0000
  C   C552      1.0  0.51667  0.00563  0.71509  1.0000
  H   H945      1.0  0.53374  0.31455  0.53054  1.0000
  H   H946      1.0  0.91451  0.14427  0.52816  1.0000
  H   H947      1.0  0.96776  0.14978  0.85447  1.0000
  C   C553      1.0  0.95981  0.31084  0.65738  1.0000
  C   C554      1.0  0.55832  0.22680  0.66182  1.0000
  H   H948      1.0  0.90511  0.24938  0.55060  1.0000
  H   H949      1.0  0.91398  0.22588  0.57999  1.0000
  S   S170      1.0  0.98319  0.08585  0.71970  1.0000
  C   C555      1.0  0.77488  0.28031  0.59204  1.0000
  H   H950      1.0  0.75370  0.30001  0.53688  1.0000
  H   H951      1.0  0.52165  0.28499  0.63779  1.0000
  H   H952      1.0  0.55516  0.28824  0.59570  1.0000
  C   C556      1.0  0.56403  0.19576  0.57154  1.0000
  C   C557      1.0  0.54445  0.18310  0.58292  1.0000
  C   C558      1.0  0.54707  0.16550  0.60930  1.0000
  C   C559      1.0  0.56941  0.16018  0.62407  1.0000
  C   C560      1.0  0.58902  0.17257  0.61219  1.0000
  C   C561      1.0  0.58634  0.19044  0.58631  1.0000
  H   H953      1.0  0.52713  0.18709  0.57157  1.0000
  H   H954      1.0  0.53186  0.15604  0.61818  1.0000
  H   H955      1.0  0.60638  0.16849  0.62338  1.0000
  H   H956      1.0  0.60155  0.20001  0.57769  1.0000
  C   C562      1.0  0.58557  0.17218  0.87378  1.0000
  C   C563      1.0  0.57426  0.17583  0.84052  1.0000
  C   C564      1.0  0.56161  0.15761  0.82387  1.0000
  C   C565      1.0  0.56043  0.13553  0.84030  1.0000
  C   C566      1.0  0.57268  0.13162  0.87273  1.0000
  C   C567      1.0  0.58512  0.14988  0.88952  1.0000
  H   H957      1.0  0.57469  0.19302  0.82816  1.0000
  H   H958      1.0  0.55217  0.16080  0.79897  1.0000
  H   H959      1.0  0.57213  0.11447  0.88527  1.0000
  H   H960      1.0  0.59412  0.14676  0.91482  1.0000
  H   H961      1.0  0.95189  0.13294  0.90553  1.0000
  H   H962      1.0  0.78302  0.29506  0.52408  1.0000
  H   H963      1.0  0.63865  0.17568  0.83415  1.0000
  H   H964      1.0  0.88551  0.31774  0.54696  1.0000
  H   H965      1.0  0.91984  0.22380  0.53245  1.0000
  C   C568      1.0  0.54635  0.22903  0.76325  1.0000
  N   N38       1.0  0.49571  0.31469  0.52326  1.0000
  H   H966      1.0  0.55477  0.24035  0.78393  1.0000
  C   C569      1.0  0.89339  0.27038  0.88504  1.0000
  C   C570      1.0  0.91005  0.27682  0.85940  1.0000
  C   C571      1.0  0.90779  0.29857  0.84124  1.0000
  C   C572      1.0  0.98132  0.28910  0.85567  1.0000
  C   C573      1.0  0.70411  0.26462  0.50483  1.0000
  C   C574      1.0  0.87411  0.28573  0.89178  1.0000
  H   H967      1.0  0.92476  0.26488  0.85355  1.0000
  H   H968      1.0  0.92077  0.30334  0.82173  1.0000
  H   H969      1.0  0.50443  0.02138  0.76431  1.0000
  H   H970      1.0  0.86119  0.28108  0.91149  1.0000
  C   C575      1.0  0.92989  0.13404  0.81748  1.0000
  C   C576      1.0  0.91491  0.15366  0.82496  1.0000
  C   C577      1.0  0.89991  0.15385  0.85482  1.0000
  C   C578      1.0  0.89955  0.13426  0.87737  1.0000
  C   C579      1.0  0.91419  0.11442  0.86953  1.0000
  C   C580      1.0  0.92954  0.11440  0.83999  1.0000
  H   H971      1.0  0.91501  0.16892  0.80768  1.0000
  H   H972      1.0  0.88864  0.16917  0.86038  1.0000
  H   H973      1.0  0.91388  0.09911  0.88669  1.0000
  H   H974      1.0  0.94092  0.09916  0.83447  1.0000
  H   H975      1.0  0.95488  0.25469  0.95824  1.0000
  H   H976      1.0  0.73661  0.23500  0.95632  1.0000
  H   H977      1.0  0.81543  0.30113  0.56010  1.0000
  H   H978      1.0  0.94656  0.19265  0.92606  1.0000
  H   H979      1.0  0.67430  0.14658  0.95949  1.0000
  H   H980      1.0  0.59728  0.21641  0.70359  1.0000
  H   H981      1.0  0.95432  0.15877  0.97883  1.0000
  N   N39       1.0  0.55896  0.21615  0.69883  1.0000
  C   C581      1.0  0.83464  0.19724  0.56312  1.0000
  H   H982      1.0  0.85392  0.18700  0.51573  1.0000
  H   H983      1.0  0.78666  0.25903  0.54526  1.0000
  H   H984      1.0  0.54178  0.23756  0.65735  1.0000
  H   H985      1.0  0.89711  0.18320  0.50681  1.0000
  H   H986      1.0  0.93188  0.29046  0.63268  1.0000
  H   H987      1.0  0.81326  0.29977  0.60747  1.0000
  C   C582      1.0  0.96062  0.31284  0.90067  1.0000
  H   H988      1.0  0.96668  0.28297  0.96833  1.0000
  H   H989      1.0  0.94828  0.31922  0.67819  1.0000
  C   C583      1.0  0.98970  0.17589  0.93157  1.0000
  H   H990      1.0  0.77776  0.27884  0.62154  1.0000
  C   C584      1.0  0.75480  0.20219  0.96959  1.0000
  C   C585      1.0  0.50791  0.00500  0.74999  1.0000
  H   H991      1.0  0.69011  0.29729  0.48359  1.0000
  C   C586      1.0  0.94884  0.28698  0.64726  1.0000
  N   N40       1.0  0.51470  0.15021  0.94157  1.0000
  H   H992      1.0  0.98822  0.30483  0.84214  1.0000
  Fe  Fe86      1.0  0.98073  0.11126  0.76636  1.0000
  H   H993      1.0  0.76166  0.24471  0.49458  1.0000
  H   H994      1.0  0.81833  0.19052  0.55022  1.0000
  N   N41       1.0  0.88030  0.19355  0.55679  1.0000
  C   C587      1.0  0.89865  0.17937  0.53601  1.0000
  C   C588      1.0  0.88250  0.21899  0.54593  1.0000
  C   C589      1.0  0.85627  0.18514  0.54530  1.0000
  C   C590      1.0  0.88457  0.18970  0.59636  1.0000
  C   C591      1.0  0.89819  0.15225  0.54005  1.0000
  H   H995      1.0  0.92869  0.15625  0.94959  1.0000
  C   C592      1.0  0.49999  0.26926  0.51355  1.0000
  C   C593      1.0  0.87510  0.20921  0.62226  1.0000
  C   C594      1.0  0.64741  0.16026  0.84749  1.0000
  H   H996      1.0  0.91684  0.18442  0.54406  1.0000
  H   H997      1.0  0.52837  0.20210  0.95524  1.0000
  H   H998      1.0  0.54279  0.24946  0.71548  1.0000
  H   H999      1.0  0.75611  0.27572  0.58693  1.0000
  H   H1000     1.0  0.73911  0.16864  0.89993  1.0000
  H   H1001     1.0  0.87705  0.17264  0.60479  1.0000
  H   H1002     1.0  0.90394  0.18799  0.60202  1.0000
  H   H1003     1.0  0.93935  0.28049  0.94285  1.0000
  C   C595      1.0  0.88684  0.31810  0.57589  1.0000
  H   H1004     1.0  0.53824  0.16307  0.90085  1.0000
  C   C596      1.0  0.77178  0.30690  0.54105  1.0000
  H   H1005     1.0  0.71655  0.15802  0.92760  1.0000
  C   C597      1.0  0.78989  0.26023  0.57448  1.0000
  H   H1006     1.0  0.86926  0.23067  0.55906  1.0000
  C   C598      1.0  0.52475  0.19397  0.92868  1.0000
  N   N42       1.0  0.77958  0.30510  0.57963  1.0000
  H   H1007     1.0  0.98040  0.27631  0.69604  1.0000
  H   H1008     1.0  0.85997  0.22011  0.61225  1.0000
  C   C599      1.0  0.52514  0.12559  0.93585  1.0000
  C   C600      1.0  0.87783  0.30156  0.63345  1.0000
  C   C601      1.0  0.87193  0.30754  0.87378  1.0000
  H   H1009     1.0  0.83394  0.21665  0.55972  1.0000
  H   H1010     1.0  0.60401  0.17948  0.73606  1.0000
  C   C602      1.0  0.55568  0.23584  0.72598  1.0000
  H   H1011     1.0  0.93446  0.17291  0.89431  1.0000
  H   H1012     1.0  0.51262  0.21069  0.66121  1.0000
  C   C603      1.0  0.51458  0.20770  0.69045  1.0000
  H   H1013     1.0  0.86939  0.28829  0.64920  1.0000
  N   N43       1.0  0.97908  0.29335  0.89547  1.0000
  C   C604      1.0  0.90688  0.22983  0.55290  1.0000
  C   C605      1.0  0.51741  0.32255  0.64664  1.0000
  C   C606      1.0  0.70547  0.28553  0.48529  1.0000
  C   C607      1.0  0.80584  0.30900  0.58337  1.0000
  H   H1014     1.0  0.72406  0.23410  0.52373  1.0000
  C   C608      1.0  0.52819  0.30221  0.63139  1.0000
  H   H1015     1.0  0.58745  0.20031  0.76200  1.0000
  C   C609      1.0  0.95281  0.20078  0.87069  1.0000
  C   C610      1.0  0.58270  0.20361  0.70361  1.0000
  C   C611      1.0  0.87588  0.30081  0.59589  1.0000
  C   C612      1.0  0.98697  0.29419  0.70226  1.0000
  H   H1016     1.0  0.97542  0.30151  0.72395  1.0000
  H   H1017     1.0  0.58104  0.25734  0.67278  1.0000
  C   C613      1.0  0.53226  0.16760  0.92831  1.0000
  C   C614      1.0  0.95076  0.18262  0.90104  1.0000
  H   H1018     1.0  0.83371  0.19262  0.59187  1.0000
  S   S171      1.0  0.61496  0.24313  0.48202  1.0000
  H   H1019     1.0  0.50789  0.28860  0.56178  1.0000
  C   C615      1.0  0.74619  0.25626  0.49201  1.0000
  C   C616      1.0  0.73495  0.21784  0.96849  1.0000
  H   H1020     1.0  0.49414  0.18974  0.98102  1.0000
  H   H1021     1.0  0.50163  0.19410  0.69749  1.0000
  H   H1022     1.0  0.89783  0.14670  0.56843  1.0000
  N   N44       1.0  0.67854  0.18194  0.88560  1.0000
  C   C617      1.0  0.66735  0.20540  0.87457  1.0000
  C   C618      1.0  0.67378  0.16459  0.85570  1.0000
  C   C619      1.0  0.70484  0.18531  0.88919  1.0000
  C   C620      1.0  0.66803  0.17477  0.92075  1.0000
  C   C621      1.0  0.67240  0.22675  0.89920  1.0000
  H   H1023     1.0  0.55352  0.10081  0.95114  1.0000
  C   C622      1.0  0.72024  0.16359  0.89987  1.0000
  C   C623      1.0  0.66979  0.14821  0.93055  1.0000
  H   H1024     1.0  0.67294  0.21024  0.84710  1.0000
  H   H1025     1.0  0.64776  0.20436  0.87319  1.0000
  H   H1026     1.0  0.68227  0.14706  0.86061  1.0000
  H   H1027     1.0  0.68190  0.17060  0.83039  1.0000
  H   H1028     1.0  0.71201  0.19221  0.86373  1.0000
  H   H1029     1.0  0.70874  0.19876  0.91002  1.0000
  H   H1030     1.0  0.67606  0.18484  0.94320  1.0000
  H   H1031     1.0  0.64883  0.17974  0.92121  1.0000
  H   H1032     1.0  0.66948  0.22287  0.92778  1.0000
  H   H1033     1.0  0.69062  0.23308  0.89562  1.0000
  H   H1034     1.0  0.66012  0.24167  0.89194  1.0000
  H   H1035     1.0  0.59562  0.23296  0.64879  1.0000
  H   H1036     1.0  0.80908  0.26189  0.57994  1.0000
  N   N45       1.0  0.97138  0.16543  0.90701  1.0000
  H   H1037     1.0  0.50083  0.25273  0.52945  1.0000
  H   H1038     1.0  0.71871  0.14863  0.88084  1.0000
  H   H1039     1.0  0.95239  0.19200  0.84401  1.0000
  H   H1040     1.0  0.53078  0.12294  0.90766  1.0000
  H   H1041     1.0  0.68321  0.13749  0.91608  1.0000
  H   H1042     1.0  0.65230  0.13996  0.92720  1.0000
  H   H1043     1.0  0.57467  0.25181  0.62655  1.0000
  H   H1044     1.0  0.95753  0.32213  0.63324  1.0000
  H   H1045     1.0  0.88953  0.22096  0.63086  1.0000
  H   H1046     1.0  0.55812  0.21266  0.64107  1.0000
  C   C624      1.0  0.54681  0.11862  0.95949  1.0000
  H   H1047     1.0  0.86909  0.20075  0.64721  1.0000
  H   H1048     1.0  0.58613  0.19137  0.68067  1.0000
  C   C625      1.0  0.72476  0.25024  0.50845  1.0000
  H   H1049     1.0  0.52496  0.30679  0.48694  1.0000
  H   H1050     1.0  0.54380  0.18328  0.68140  1.0000
  C   C626      1.0  0.58656  0.18892  0.73782  1.0000
  C   C627      1.0  0.95739  0.27270  0.94751  1.0000
  H   H1051     1.0  0.54886  0.16652  0.94450  1.0000
  H   H1052     1.0  0.95706  0.31641  0.92931  1.0000
  H   H1053     1.0  0.64598  0.14506  0.82870  1.0000
  H   H1054     1.0  0.57254  0.24523  0.73020  1.0000
  H   H1055     1.0  0.93711  0.21305  0.87149  1.0000
  H   H1056     1.0  0.94185  0.13071  0.96951  1.0000
  S   S172      1.0  0.89065  0.19153  0.96747  1.0000
  C   C628      1.0  0.96216  0.14370  0.92496  1.0000
  H   H1057     1.0  0.50610  0.19737  0.92081  1.0000
  S   S173      1.0  0.62286  0.30010  0.49583  1.0000
  H   H1058     1.0  0.88312  0.14469  0.52500  1.0000
  H   H1059     1.0  0.54995  0.21058  0.77148  1.0000
  C   C629      1.0  0.49345  0.14810  0.87999  1.0000
  H   H1060     1.0  0.87847  0.22101  0.51688  1.0000
  C   C630      1.0  0.57875  0.24313  0.65258  1.0000
  S   S174      1.0  0.78214  0.21117  0.95067  1.0000
  H   H1061     1.0  0.94439  0.27678  0.67142  1.0000
  H   H1062     1.0  0.63741  0.15590  0.87178  1.0000
  H   H1063     1.0  0.50985  0.22415  0.70531  1.0000
  C   C631      1.0  0.54720  0.30399  0.60758  1.0000
  H   H1064     1.0  0.73140  0.32281  0.57467  1.0000
  H   H1065     1.0  0.53517  0.20328  0.90831  1.0000
  C   C632      1.0  0.88888  0.31424  0.84876  1.0000
  H   H1066     1.0  0.53850  0.18990  0.72650  1.0000
  S   S175      1.0  0.82835  0.24761  0.49502  1.0000
  C   C633      1.0  0.97120  0.27064  0.91219  1.0000
  H   H1067     1.0  0.85451  0.16604  0.55105  1.0000
  H   H1068     1.0  0.49948  0.12988  0.87269  1.0000
  C   C634      1.0  0.73863  0.31991  0.60205  1.0000
  H   H1069     1.0  0.96361  0.28616  0.84328  1.0000
  H   H1070     1.0  0.51907  0.17938  0.48649  1.0000
  H   H1071     1.0  0.57339  0.17495  0.74078  1.0000
  N   N46       1.0  0.98537  0.30991  0.66980  1.0000
  H   H1072     1.0  0.97696  0.13190  0.93450  1.0000
  H   H1073     1.0  0.94332  0.30734  0.88950  1.0000
  C   C635      1.0  0.76580  0.32191  0.60362  1.0000
  C   C636      1.0  0.89059  0.31944  0.65091  1.0000
  C   C637      1.0  0.98174  0.15753  0.87168  1.0000
  H   H1074     1.0  0.98822  0.17246  0.85588  1.0000
  S   S176      1.0  0.49870  0.09056  0.74854  1.0000
  C   C638      1.0  0.94597  0.14803  0.95756  1.0000
  H   H1075     1.0  0.98151  0.18164  0.95722  1.0000
  H   H1076     1.0  0.77155  0.31944  0.63203  1.0000
  H   H1077     1.0  0.51724  0.27021  0.50000  1.0000
  H   H1078     1.0  0.96019  0.27609  0.62924  1.0000
  H   H1079     1.0  0.98665  0.25840  0.91710  1.0000
  H   H1080     1.0  0.89192  0.31983  0.67983  1.0000
  H   H1081     1.0  0.96862  0.21167  0.87320  1.0000
  H   H1082     1.0  0.56166  0.13076  0.95661  1.0000
  H   H1083     1.0  0.98950  0.31792  0.95920  1.0000
  C   C639      1.0  0.52024  0.31876  0.50941  1.0000
  H   H1084     1.0  0.51158  0.11204  0.94050  1.0000
  S   S177      1.0  0.49315  0.31915  0.67562  1.0000
  H   H1085     1.0  0.99271  0.21422  0.92487  1.0000
  H   H1086     1.0  0.99245  0.25107  0.85542  1.0000
  S   S178      1.0  0.62992  0.22232  0.98039  1.0000
  Fe  Fe87      1.0  0.54549  0.61339  0.28074  1.0000
  S   S179      1.0  0.52510  0.63558  0.24093  1.0000
  C   C640      1.0  0.92888  0.32668  0.37576  1.0000
  Fe  Fe88      1.0  0.52026  0.56723  0.25837  1.0000
  H   H1087     1.0  0.53398  0.65885  0.33075  1.0000
  S   S180      1.0  0.51727  0.52781  0.27329  1.0000
  Fe  Fe89      1.0  0.53147  0.60534  0.20285  1.0000
  S   S181      1.0  0.54424  0.60733  0.14541  1.0000
  H   H1088     1.0  0.57056  0.49317  0.18167  1.0000
  S   S182      1.0  0.55394  0.58395  0.24148  1.0000
  S   S183      1.0  0.51374  0.59497  0.30176  1.0000
  Fe  Fe90      1.0  0.51416  0.38903  0.20292  1.0000
  H   H1089     1.0  0.98246  0.39838  0.31357  1.0000
  H   H1090     1.0  0.52460  0.33482  0.39472  1.0000
  Fe  Fe91      1.0  0.54651  0.34480  0.19164  1.0000
  H   H1091     1.0  0.50503  0.33286  0.04546  1.0000
  H   H1092     1.0  0.55394  0.42936  0.23459  1.0000
  Fe  Fe92      1.0  0.51752  0.35041  0.25973  1.0000
  H   H1093     1.0  0.97727  0.61685  0.06375  1.0000
  S   S184      1.0  0.51841  0.36232  0.15748  1.0000
  S   S185      1.0  0.54471  0.37303  0.23450  1.0000
  S   S186      1.0  0.95809  0.63269  0.19460  1.0000
  C   C641      1.0  0.51467  0.49949  0.21142  1.0000
  H   H1094     1.0  0.64438  0.45037  0.24532  1.0000
  H   H1095     1.0  0.93491  0.33610  0.39929  1.0000
  H   H1096     1.0  0.97140  0.44941  0.28999  1.0000
  H   H1097     1.0  0.51591  0.51560  0.19621  1.0000
  C   C642      1.0  0.93922  0.38105  0.29862  1.0000
  Fe  Fe93      1.0  0.49370  0.61552  0.25946  1.0000
  N   N47       1.0  0.58488  0.44730  0.21660  1.0000
  H   H1098     1.0  0.98429  0.39367  0.37724  1.0000
  H   H1099     1.0  0.55756  0.47231  0.23324  1.0000
  H   H1100     1.0  0.93444  0.37737  0.24035  1.0000
  C   C643      1.0  0.61370  0.64575  0.23053  1.0000
  C   C644      1.0  0.61149  0.44376  0.21666  1.0000
  H   H1101     1.0  0.51316  0.47692  0.16455  1.0000
  H   H1102     1.0  0.58433  0.47565  0.25651  1.0000
  H   H1103     1.0  0.92996  0.37347  0.32187  1.0000
  H   H1104     1.0  0.63125  0.63642  0.22825  1.0000
  C   C645      1.0  0.56519  0.62996  0.08979  1.0000
  C   C646      1.0  0.57852  0.41931  0.16235  1.0000
  C   C647      1.0  0.57702  0.47154  0.22960  1.0000
  C   C648      1.0  0.90824  0.63655  0.09612  1.0000
  C   C649      1.0  0.92224  0.61606  0.10270  1.0000
  C   C650      1.0  0.93772  0.61471  0.13248  1.0000
  C   C651      1.0  0.93904  0.63371  0.15649  1.0000
  C   C652      1.0  0.96634  0.39398  0.36481  1.0000
  H   H1105     1.0  0.60305  0.65508  0.16051  1.0000
  H   H1106     1.0  0.92114  0.60114  0.08455  1.0000
  H   H1107     1.0  0.94831  0.59879  0.13721  1.0000
  H   H1108     1.0  0.56551  0.40718  0.17377  1.0000
  C   C653      1.0  0.90976  0.65570  0.11987  1.0000
  N   N48       1.0  0.99060  0.65206  0.07281  1.0000
  C   C654      1.0  0.62559  0.45664  0.24619  1.0000
  H   H1109     1.0  0.59669  0.41174  0.16582  1.0000
  H   H1110     1.0  0.93985  0.45577  0.28588  1.0000
  H   H1111     1.0  0.93610  0.41746  0.25117  1.0000
  S   S187      1.0  0.49801  0.58694  0.21734  1.0000
  C   C655      1.0  0.55482  0.63264  0.12367  1.0000
  C   C656      1.0  0.53888  0.32728  0.34249  1.0000
  H   H1112     1.0  0.54476  0.65751  0.16485  1.0000
  H   H1113     1.0  0.90769  0.38682  0.26330  1.0000
  C   C657      1.0  0.57754  0.43007  0.27981  1.0000
  H   H1114     1.0  0.97283  0.42500  0.33474  1.0000
  H   H1115     1.0  0.51079  0.44110  0.26528  1.0000
  H   H1116     1.0  0.57462  0.42014  0.13316  1.0000
  H   H1117     1.0  0.58482  0.45636  0.16009  1.0000
  C   C658      1.0  0.51478  0.50060  0.24888  1.0000
  C   C659      1.0  0.51318  0.47930  0.26797  1.0000
  C   C660      1.0  0.51179  0.45724  0.25006  1.0000
  C   C661      1.0  0.51185  0.45610  0.21259  1.0000
  C   C662      1.0  0.51310  0.47745  0.19350  1.0000
  H   H1118     1.0  0.95786  0.45286  0.24723  1.0000
  C   C663      1.0  0.95052  0.41900  0.27126  1.0000
  S   S188      1.0  0.98886  0.36214  0.22211  1.0000
  H   H1119     1.0  0.62551  0.47600  0.24173  1.0000
  H   H1120     1.0  0.57244  0.44746  0.29162  1.0000
  H   H1121     1.0  0.51320  0.47982  0.29693  1.0000
  H   H1122     1.0  0.56646  0.61260  0.07753  1.0000
  N   N49       1.0  0.94513  0.40659  0.30578  1.0000
  C   C664      1.0  0.96742  0.40670  0.32845  1.0000
  H   H1123     1.0  0.59426  0.61356  0.23526  1.0000
  H   H1124     1.0  0.96622  0.41038  0.25823  1.0000
  C   C665      1.0  0.92568  0.41900  0.32656  1.0000
  Fe  Fe94      1.0  0.49302  0.33985  0.18726  1.0000
  H   H1125     1.0  0.98906  0.63005  0.02497  1.0000
  H   H1126     1.0  0.95970  0.33468  0.34460  1.0000
  C   C666      1.0  0.90191  0.42354  0.30685  1.0000
  H   H1127     1.0  0.61086  0.64751  0.25969  1.0000
  H   H1128     1.0  0.91844  0.35705  0.26622  1.0000
  Fe  Fe95      1.0  0.98561  0.33357  0.26362  1.0000
  H   H1129     1.0  0.96111  0.37536  0.36206  1.0000
  H   H1130     1.0  0.59964  0.62103  0.18996  1.0000
  H   H1131     1.0  0.61914  0.44957  0.19090  1.0000
  H   H1132     1.0  0.92125  0.40858  0.35061  1.0000
  H   H1133     1.0  0.93163  0.43607  0.33811  1.0000
  S   S189      1.0  0.88978  0.63739  0.05741  1.0000
  C   C667      1.0  0.92400  0.37571  0.26517  1.0000
  H   H1134     1.0  0.58215  0.64714  0.04573  1.0000
  C   C668      1.0  0.57576  0.44437  0.17868  1.0000
  H   H1135     1.0  0.95310  0.65030  0.08123  1.0000
  C   C669      1.0  0.58295  0.49225  0.20493  1.0000
  H   H1136     1.0  0.60140  0.49100  0.19522  1.0000
  Fe  Fe96      1.0  0.98978  0.60706  0.20088  1.0000
  H   H1137     1.0  0.95566  0.36992  0.29537  1.0000
  H   H1138     1.0  0.89019  0.40825  0.30975  1.0000
  C   C670      1.0  0.57173  0.65614  0.33789  1.0000
  H   H1139     1.0  0.89291  0.43943  0.31863  1.0000
  H   H1140     1.0  0.61647  0.42461  0.21841  1.0000
  S   S190      1.0  0.51170  0.42869  0.18819  1.0000
  H   H1141     1.0  0.57959  0.41075  0.23098  1.0000
  H   H1142     1.0  0.90375  0.42772  0.27820  1.0000
  H   H1143     1.0  0.58057  0.50919  0.21991  1.0000
  H   H1144     1.0  0.61920  0.45326  0.27344  1.0000
  C   C671      1.0  0.59496  0.62863  0.21651  1.0000
  S   S191      1.0  0.57561  0.62982  0.31233  1.0000
  H   H1145     1.0  0.56608  0.41696  0.29260  1.0000
  C   C672      1.0  0.57344  0.42882  0.23907  1.0000
  C   C673      1.0  0.92494  0.65417  0.15007  1.0000
  C   C674      1.0  0.95511  0.44571  0.27445  1.0000
  H   H1146     1.0  0.59594  0.42473  0.28713  1.0000
  H   H1147     1.0  0.55666  0.44957  0.17678  1.0000
  S   S192      1.0  0.51677  0.34457  0.31999  1.0000
  H   H1148     1.0  0.57704  0.63699  0.21508  1.0000
  C   C675      1.0  0.55311  0.65520  0.13912  1.0000
  C   C676      1.0  0.57406  0.64952  0.07167  1.0000
  H   H1149     1.0  0.95442  0.40350  0.38376  1.0000
  S   S193      1.0  0.58120  0.32842  0.17212  1.0000
  H   H1150     1.0  0.98370  0.63393  0.12225  1.0000
  H   H1151     1.0  0.63394  0.65238  0.16905  1.0000
  H   H1152     1.0  0.95261  0.64727  0.01681  1.0000
  H   H1153     1.0  0.60896  0.65851  0.35008  1.0000
  H   H1154     1.0  0.65761  0.32893  0.40536  1.0000
  H   H1155     1.0  0.51063  0.35102  0.47865  1.0000
  C   C677      1.0  0.94287  0.32609  0.34473  1.0000
  C   C678      1.0  0.99179  0.62820  0.05436  1.0000
  H   H1156     1.0  0.51282  0.65405  0.98450  1.0000
  Fe  Fe97      1.0  0.92524  0.36409  0.71116  1.0000
  S   S194      1.0  0.90068  0.38435  0.74759  1.0000
  H   H1157     1.0  0.94077  0.51403  0.86538  1.0000
  Fe  Fe98      1.0  0.96374  0.36041  0.76960  1.0000
  S   S195      1.0  0.94194  0.38119  0.80968  1.0000
  C   C679      1.0  0.81394  0.33470  0.58714  1.0000
  Fe  Fe99      1.0  0.91237  0.35834  0.79023  1.0000
  S   S196      1.0  0.88591  0.34241  0.82812  1.0000
  Fe  Fe100     1.0  0.93220  0.40581  0.76351  1.0000
  S   S197      1.0  0.92378  0.44612  0.76659  1.0000
  H   H1158     1.0  0.65789  0.64181  0.82168  1.0000
  S   S198      1.0  0.95642  0.38650  0.72505  1.0000
  Fe  Fe101     1.0  0.94629  0.58376  0.69658  1.0000
  S   S199      1.0  0.97464  0.60738  0.71918  1.0000
  S   S200      1.0  0.95560  0.54360  0.69585  1.0000
  Fe  Fe102     1.0  0.91421  0.62706  0.67859  1.0000
  H   H1159     1.0  0.67444  0.59074  0.82824  1.0000
  C   C680      1.0  0.92301  0.64862  0.83027  1.0000
  Fe  Fe103     1.0  0.96767  0.63086  0.67139  1.0000
  Fe  Fe104     1.0  0.94440  0.62690  0.74631  1.0000
  S   S201      1.0  0.94771  0.63969  0.80402  1.0000
  S   S202      1.0  0.94128  0.60631  0.64665  1.0000
  S   S203      1.0  0.91656  0.60249  0.72618  1.0000
  H   H1160     1.0  0.83358  0.33475  0.58574  1.0000
  S   S204      1.0  0.88002  0.64529  0.66001  1.0000
  H   H1161     1.0  0.64700  0.61035  0.96411  1.0000
  H   H1162     1.0  0.94704  0.59050  0.90124  1.0000
  S   S205      1.0  0.58257  0.63358  0.91293  1.0000
  C   C681      1.0  0.56037  0.63588  0.87917  1.0000
  H   H1163     1.0  0.73051  0.33386  0.61945  1.0000
  C   C682      1.0  0.55636  0.65695  0.86050  1.0000
  C   C683      1.0  0.52367  0.63942  0.82706  1.0000
  C   C684      1.0  0.52772  0.61825  0.84558  1.0000
  C   C685      1.0  0.54619  0.61643  0.87126  1.0000
  H   H1164     1.0  0.65248  0.58907  0.92834  1.0000
  H   H1165     1.0  0.51796  0.36051  0.64983  1.0000
  H   H1166     1.0  0.51666  0.60333  0.84013  1.0000
  H   H1167     1.0  0.54921  0.60004  0.88553  1.0000
  S   S206      1.0  0.50029  0.64351  0.79550  1.0000
  H   H1168     1.0  0.97077  0.35845  0.64519  1.0000
  C   C686      1.0  0.51194  0.64430  0.95870  1.0000
  S   S207      1.0  0.98961  0.65605  0.63822  1.0000
  H   H1169     1.0  0.91746  0.59624  0.80629  1.0000
  H   H1170     1.0  0.89050  0.58146  0.81153  1.0000
  C   C687      1.0  0.66378  0.59667  0.85163  1.0000
  S   S208      1.0  0.93446  0.33655  0.75228  1.0000
  H   H1171     1.0  0.94532  0.60037  0.85645  1.0000
  C   C688      1.0  0.95208  0.56116  0.86368  1.0000
  H   H1172     1.0  0.51465  0.64997  0.90205  1.0000
  H   H1173     1.0  0.95127  0.43484  0.63521  1.0000
  C   C689      1.0  0.55588  0.32616  0.59917  1.0000
  H   H1174     1.0  0.97438  0.52762  0.82467  1.0000
  H   H1175     1.0  0.90813  0.34914  0.57755  1.0000
  H   H1176     1.0  0.68416  0.61998  0.94852  1.0000
  C   C690      1.0  0.95454  0.58753  0.87416  1.0000
  H   H1177     1.0  0.91783  0.55229  0.78783  1.0000
  C   C691      1.0  0.95543  0.53046  0.81703  1.0000
  C   C692      1.0  0.77268  0.33133  0.52326  1.0000
  C   C693      1.0  0.64173  0.60478  0.93668  1.0000
  N   N50       1.0  0.94729  0.55567  0.82467  1.0000
  C   C694      1.0  0.96605  0.33694  0.88403  1.0000
  H   H1178     1.0  0.95178  0.34992  0.89141  1.0000
  C   C695      1.0  0.93296  0.47285  0.74609  1.0000
  C   C696      1.0  0.95439  0.47448  0.72798  1.0000
  C   C697      1.0  0.96086  0.49617  0.71270  1.0000
  C   C698      1.0  0.94609  0.51661  0.71516  1.0000
  C   C699      1.0  0.92448  0.51487  0.73277  1.0000
  C   C700      1.0  0.91811  0.49325  0.74833  1.0000
  H   H1179     1.0  0.96613  0.45910  0.72605  1.0000
  H   H1180     1.0  0.97761  0.49717  0.69911  1.0000
  H   H1181     1.0  0.91260  0.53014  0.73418  1.0000
  H   H1182     1.0  0.90141  0.49227  0.76206  1.0000
  N   N51       1.0  0.90183  0.44612  0.65035  1.0000
  C   C701      1.0  0.91826  0.42646  0.66360  1.0000
  C   C702      1.0  0.88413  0.45127  0.67956  1.0000
  C   C703      1.0  0.91664  0.46748  0.64371  1.0000
  C   C704      1.0  0.89024  0.43779  0.61619  1.0000
  C   C705      1.0  0.93940  0.41985  0.63923  1.0000
  C   C706      1.0  0.86675  0.43145  0.68732  1.0000
  C   C707      1.0  0.90409  0.49203  0.64454  1.0000
  C   C708      1.0  0.87063  0.45400  0.59989  1.0000
  H   H1183     1.0  0.92576  0.43098  0.69044  1.0000
  H   H1184     1.0  0.90863  0.40983  0.66737  1.0000
  H   H1185     1.0  0.87291  0.46719  0.67396  1.0000
  H   H1186     1.0  0.89345  0.45554  0.70508  1.0000
  H   H1187     1.0  0.93108  0.46859  0.66408  1.0000
  H   H1188     1.0  0.92572  0.46588  0.61747  1.0000
  H   H1189     1.0  0.90359  0.43540  0.59474  1.0000
  H   H1190     1.0  0.88314  0.41973  0.61912  1.0000
  H   H1191     1.0  0.95024  0.40562  0.65224  1.0000
  H   H1192     1.0  0.93358  0.41252  0.61311  1.0000
  H   H1193     1.0  0.95556  0.59007  0.80281  1.0000
  H   H1194     1.0  0.85539  0.42750  0.66379  1.0000
  H   H1195     1.0  0.87584  0.41505  0.69669  1.0000
  H   H1196     1.0  0.85485  0.43737  0.70930  1.0000
  H   H1197     1.0  0.89851  0.49696  0.67205  1.0000
  H   H1198     1.0  0.88880  0.49347  0.62598  1.0000
  H   H1199     1.0  0.91687  0.50555  0.63648  1.0000
  H   H1200     1.0  0.87821  0.46684  0.58112  1.0000
  H   H1201     1.0  0.85980  0.46365  0.61994  1.0000
  H   H1202     1.0  0.85791  0.44299  0.58481  1.0000
  H   H1203     1.0  0.75942  0.33214  0.50109  1.0000
  H   H1204     1.0  0.64811  0.60633  0.84071  1.0000
  H   H1205     1.0  0.52718  0.35626  0.51974  1.0000
  H   H1206     1.0  0.63211  0.64995  0.84879  1.0000
  H   H1207     1.0  0.63136  0.62129  0.88748  1.0000
  H   H1208     1.0  0.91098  0.54561  0.83299  1.0000
  C   C709      1.0  0.98952  0.35349  0.65111  1.0000
  N   N52       1.0  0.66792  0.63101  0.89803  1.0000
  H   H1209     1.0  0.76940  0.34063  0.59784  1.0000
  H   H1210     1.0  0.95161  0.49370  0.83205  1.0000
  H   H1211     1.0  0.90800  0.58699  0.85031  1.0000
  C   C710      1.0  0.88065  0.65457  0.83869  1.0000
  C   C711      1.0  0.98772  0.56927  0.80233  1.0000
  H   H1212     1.0  0.95559  0.56710  0.77116  1.0000
  H   H1213     1.0  0.65812  0.58019  0.86464  1.0000
  H   H1214     1.0  0.96610  0.33624  0.85436  1.0000
  S   S209      1.0  0.91827  0.35935  0.65126  1.0000
  C   C712      1.0  0.54528  0.34649  0.61470  1.0000
  H   H1215     1.0  0.76773  0.34623  0.54112  1.0000
  C   C713      1.0  0.94199  0.51090  0.83613  1.0000
  H   H1216     1.0  0.63487  0.64123  0.92289  1.0000
  H   H1217     1.0  0.71848  0.63012  0.90900  1.0000
  H   H1218     1.0  0.92408  0.50867  0.82437  1.0000
  C   C714      1.0  0.64335  0.62540  0.91012  1.0000
  C   C715      1.0  0.92118  0.55770  0.81611  1.0000
  C   C716      1.0  0.90904  0.58214  0.82154  1.0000
  C   C717      1.0  0.68256  0.63589  0.93125  1.0000
  C   C718      1.0  0.52484  0.34405  0.49663  1.0000
  H   H1219     1.0  0.49647  0.63272  0.95817  1.0000
  C   C719      1.0  0.92678  0.65800  0.86475  1.0000
  H   H1220     1.0  0.55188  0.36370  0.60834  1.0000
  C   C720      1.0  0.65078  0.65374  0.84286  1.0000
  C   C721      1.0  0.67967  0.61097  0.87736  1.0000
  H   H1221     1.0  0.97978  0.34097  0.70291  1.0000
  C   C722      1.0  0.89965  0.33591  0.59332  1.0000
  C   C723      1.0  0.52604  0.34473  0.63820  1.0000
  H   H1222     1.0  0.52799  0.63249  0.95776  1.0000
  H   H1223     1.0  0.62300  0.59942  0.93827  1.0000
  C   C724      1.0  0.96049  0.57119  0.79950  1.0000
  H   H1224     1.0  0.97346  0.59211  0.87658  1.0000
  H   H1225     1.0  0.49828  0.40971  0.80417  1.0000
  H   H1226     1.0  0.98290  0.34402  0.89432  1.0000
  H   H1227     1.0  0.93805  0.55378  0.88069  1.0000
  H   H1228     1.0  0.69471  0.61756  0.86157  1.0000
  H   H1229     1.0  0.68758  0.59778  0.89637  1.0000
  C   C725      1.0  0.89980  0.64666  0.81749  1.0000
  H   H1230     1.0  0.80914  0.34229  0.61366  1.0000
  S   S210      1.0  0.94010  0.65232  0.70114  1.0000
  H   H1231     1.0  0.95456  0.52657  0.78783  1.0000
  H   H1232     1.0  0.67379  0.64987  0.94808  1.0000
  C   C726      1.0  0.66684  0.65344  0.87639  1.0000
  H   H1233     1.0  0.80707  0.34633  0.56559  1.0000
  C   C727      1.0  0.90159  0.33670  0.63087  1.0000
  H   H1234     1.0  0.89662  0.63923  0.79117  1.0000
  C   C728      1.0  0.70825  0.64334  0.92499  1.0000
  H   H1235     1.0  0.50643  0.33174  0.57264  1.0000
  H   H1236     1.0  0.79041  0.33411  0.51172  1.0000
  H   H1237     1.0  0.96894  0.55222  0.87250  1.0000
  H   H1238     1.0  0.86275  0.65313  0.82860  1.0000
  H   H1239     1.0  0.91403  0.65281  0.60342  1.0000
  H   H1240     1.0  0.71741  0.64497  0.95135  1.0000
  S   S211      1.0  0.57936  0.32916  0.56861  1.0000
  C   C729      1.0  0.53830  0.65860  0.83435  1.0000
  H   H1241     1.0  0.68466  0.65796  0.86670  1.0000
  H   H1242     1.0  0.54170  0.34396  0.48158  1.0000
  C   C730      1.0  0.99151  0.33472  0.68084  1.0000
  S   S212      1.0  0.84646  0.79704  0.40142  1.0000
  H   H1243     1.0  0.89374  0.72063  0.25569  1.0000
  Fe  Fe105     1.0  0.58929  0.74785  0.43223  1.0000
  S   S213      1.0  0.61301  0.77287  0.40416  1.0000
  S   S214      1.0  0.56223  0.72362  0.40634  1.0000
  Fe  Fe106     1.0  0.63715  0.77017  0.45329  1.0000
  H   H1244     1.0  0.77240  0.74579  0.04129  1.0000
  Fe  Fe107     1.0  0.59343  0.80142  0.43466  1.0000
  S   S215      1.0  0.57669  0.83475  0.41080  1.0000
  H   H1245     1.0  0.49362  0.85716  0.46859  1.0000
  Fe  Fe108     1.0  0.93087  0.85908  0.26479  1.0000
  S   S216      1.0  0.90195  0.87595  0.23125  1.0000
  S   S217      1.0  0.93000  0.84910  0.32370  1.0000
  Fe  Fe109     1.0  0.96530  0.85599  0.20106  1.0000
  S   S218      1.0  0.93846  0.87229  0.16315  1.0000
  C   C731      1.0  0.96861  0.80158  0.11238  1.0000
  Fe  Fe110     1.0  0.93075  0.89850  0.20871  1.0000
  S   S219      1.0  0.92741  0.93871  0.19675  1.0000
  Fe  Fe111     1.0  0.91231  0.84854  0.18928  1.0000
  S   S220      1.0  0.88585  0.82150  0.16894  1.0000
  S   S221      1.0  0.95911  0.88293  0.24488  1.0000
  S   S222      1.0  0.93975  0.83097  0.22444  1.0000
  Fe  Fe112     1.0  0.86490  0.72110  0.01801  1.0000
  S   S223      1.0  0.84718  0.69802  0.05792  1.0000
  S   S224      1.0  0.88103  0.75726  0.02809  1.0000
  Fe  Fe113     1.0  0.81968  0.69186  0.01404  1.0000
  C   C732      1.0  0.53004  0.84581  0.47586  1.0000
  C   C733      1.0  0.76260  0.85175  0.36545  1.0000
  C   C734      1.0  0.80641  0.74557  0.08965  1.0000
  Fe  Fe114     1.0  0.59719  0.69524  0.00832  1.0000
  H   H1246     1.0  0.85671  0.76945  0.32306  1.0000
  H   H1247     1.0  0.50425  0.98294  0.18269  1.0000
  C   C735      1.0  0.93251  0.96625  0.21967  1.0000
  C   C736      1.0  0.94124  0.96743  0.25487  1.0000
  C   C737      1.0  0.94542  0.78322  0.31709  1.0000
  H   H1248     1.0  0.59377  0.70237  0.20918  1.0000
  H   H1249     1.0  0.94463  0.95127  0.26957  1.0000
  H   H1250     1.0  0.52952  0.69548  0.36756  1.0000
  H   H1251     1.0  0.96293  0.67927  0.08098  1.0000
  C   C738      1.0  0.88694  0.80279  0.13055  1.0000
  C   C739      1.0  0.89714  0.80983  0.09853  1.0000
  C   C740      1.0  0.89550  0.79544  0.06767  1.0000
  C   C741      1.0  0.88410  0.77367  0.06855  1.0000
  C   C742      1.0  0.87465  0.76624  0.10089  1.0000
  C   C743      1.0  0.87573  0.78091  0.13153  1.0000
  H   H1252     1.0  0.90546  0.82677  0.09719  1.0000
  H   H1253     1.0  0.90268  0.80146  0.04271  1.0000
  H   H1254     1.0  0.86598  0.74947  0.10206  1.0000
  H   H1255     1.0  0.86766  0.77535  0.15609  1.0000
  H   H1256     1.0  0.80160  0.80699  0.43244  1.0000
  C   C744      1.0  0.56676  0.69811  0.37918  1.0000
  H   H1257     1.0  0.93257  0.74290  0.25594  1.0000
  C   C745      1.0  0.59115  0.68350  0.21590  1.0000
  H   H1258     1.0  0.98763  0.82709  0.05846  1.0000
  C   C746      1.0  0.58916  0.68762  0.37406  1.0000
  H   H1259     1.0  0.93743  0.78256  0.34403  1.0000
  H   H1260     1.0  0.78810  0.78178  0.37963  1.0000
  H   H1261     1.0  0.60455  0.69546  0.38622  1.0000
  C   C747      1.0  0.51887  0.82875  0.32393  1.0000
  C   C748      1.0  0.53328  0.80898  0.33293  1.0000
  C   C749      1.0  0.55103  0.81061  0.35948  1.0000
  C   C750      1.0  0.55477  0.83215  0.37694  1.0000
  C   C751      1.0  0.54043  0.85195  0.36784  1.0000
  C   C752      1.0  0.52239  0.85023  0.34168  1.0000
  H   H1262     1.0  0.53071  0.79230  0.31934  1.0000
  H   H1263     1.0  0.56195  0.79524  0.36625  1.0000
  H   H1264     1.0  0.54326  0.86869  0.38117  1.0000
  H   H1265     1.0  0.50117  0.71386  0.31700  1.0000
  C   C753      1.0  0.86915  0.81334  0.38154  1.0000
  C   C754      1.0  0.89128  0.81557  0.39807  1.0000
  C   C755      1.0  0.90955  0.82696  0.38023  1.0000
  C   C756      1.0  0.90594  0.83621  0.34572  1.0000
  C   C757      1.0  0.88366  0.83442  0.32944  1.0000
  C   C758      1.0  0.86534  0.82306  0.34733  1.0000
  H   H1266     1.0  0.89445  0.80821  0.42440  1.0000
  H   H1267     1.0  0.92668  0.82839  0.39312  1.0000
  H   H1268     1.0  0.88060  0.84165  0.30301  1.0000
  H   H1269     1.0  0.84826  0.82146  0.33435  1.0000
  S   S225      1.0  0.77988  0.69274  0.02868  1.0000
  S   S226      1.0  0.61444  0.74280  0.47903  1.0000
  C   C759      1.0  0.79739  0.80535  0.08404  1.0000
  C   C760      1.0  0.92658  0.78470  0.28689  1.0000
  H   H1270     1.0  0.71763  0.79084  0.39837  1.0000
  H   H1271     1.0  0.74286  0.79334  0.37102  1.0000
  H   H1272     1.0  0.87942  0.75644  0.24996  1.0000
  H   H1273     1.0  0.63899  0.69445  0.15402  1.0000
  H   H1274     1.0  0.79494  0.76591  0.41913  1.0000
  S   S227      1.0  0.88802  0.69177  0.99491  1.0000
  C   C761      1.0  0.54938  0.66681  0.34267  1.0000
  N   N53       1.0  0.79900  0.77241  0.03477  1.0000
  H   H1275     1.0  0.97889  0.81625  0.12423  1.0000
  H   H1276     1.0  0.53582  0.68537  0.44640  1.0000
  C   C762      1.0  0.61821  0.66445  0.17275  1.0000
  H   H1277     1.0  0.53907  0.65916  0.47401  1.0000
  H   H1278     1.0  0.57790  0.67707  0.19618  1.0000
  H   H1279     1.0  0.50975  0.77836  0.22057  1.0000
  H   H1280     1.0  0.82982  0.77155  0.07032  1.0000
  H   H1281     1.0  0.63561  0.70049  0.21256  1.0000
  H   H1282     1.0  0.96526  0.91099  0.12313  1.0000
  C   C763      1.0  0.96572  0.66188  0.06780  1.0000
  H   H1283     1.0  0.89312  0.78447  0.33076  1.0000
  H   H1284     1.0  0.97009  0.67343  0.01174  1.0000
  C   C764      1.0  0.78449  0.79096  0.05468  1.0000
  C   C765      1.0  0.57265  0.67203  0.08729  1.0000
  H   H1285     1.0  0.53122  0.76261  0.19374  1.0000
  C   C766      1.0  0.97222  0.76155  0.08341  1.0000
  C   C767      1.0  0.59160  0.66667  0.35361  1.0000
  H   H1286     1.0  0.52057  0.81631  0.20893  1.0000
  H   H1287     1.0  0.96348  0.76523  0.02617  1.0000
  C   C768      1.0  0.87063  0.75522  0.32179  1.0000
  S   S228      1.0  0.61497  0.72620  0.98287  1.0000
  H   H1288     1.0  0.65169  0.67340  0.21985  1.0000
  H   H1289     1.0  0.62117  0.70223  0.27342  1.0000
  C   C769      1.0  0.81679  0.75954  0.05846  1.0000
  C   C770      1.0  0.94554  0.98958  0.27128  1.0000
  H   H1290     1.0  0.86875  0.74516  0.34701  1.0000
  H   H1291     1.0  0.76283  0.75397  0.47266  1.0000
  C   C771      1.0  0.54692  0.68759  0.36343  1.0000
  H   H1292     1.0  0.82772  0.74683  0.04233  1.0000
  H   H1293     1.0  0.73806  0.80671  0.44453  1.0000
  C   C772      1.0  0.87841  0.79408  0.25476  1.0000
  H   H1294     1.0  0.89905  0.67153  0.11517  1.0000
  C   C773      1.0  0.76391  0.76299  0.99204  1.0000
  H   H1295     1.0  0.81665  0.80700  0.08062  1.0000
  H   H1296     1.0  0.71968  0.81598  0.37096  1.0000
  H   H1297     1.0  0.79902  0.79150  0.98455  1.0000
  H   H1298     1.0  0.93619  0.78521  0.26104  1.0000
  H   H1299     1.0  0.97749  0.80362  0.02928  1.0000
  H   H1300     1.0  0.79453  0.83232  0.38057  1.0000
  H   H1301     1.0  0.95817  0.76821  0.31323  1.0000
  H   H1302     1.0  0.51099  0.77375  0.39364  1.0000
  N   N54       1.0  0.90846  0.76556  0.28608  1.0000
  C   C774      1.0  0.89552  0.76595  0.32124  1.0000
  H   H1303     1.0  0.86657  0.74297  0.29962  1.0000
  H   H1304     1.0  0.93894  0.80983  0.14699  1.0000
  C   C775      1.0  0.77245  0.84306  0.44250  1.0000
  H   H1305     1.0  0.82085  0.74056  0.10875  1.0000
  H   H1306     1.0  0.93895  0.78017  0.13055  1.0000
  H   H1307     1.0  0.51148  0.86559  0.33488  1.0000
  H   H1308     1.0  0.98807  0.76338  0.14971  1.0000
  C   C776      1.0  0.54849  0.67386  0.46158  1.0000
  H   H1309     1.0  0.79119  0.84850  0.44002  1.0000
  C   C777      1.0  0.62173  0.68619  0.14886  1.0000
  H   H1310     1.0  0.73174  0.68947  0.05239  1.0000
  S   S229      1.0  0.67739  0.76341  0.44604  1.0000
  Fe  Fe115     1.0  0.86878  0.66837  0.03260  1.0000
  H   H1311     1.0  0.76954  0.78248  0.06844  1.0000
  H   H1312     1.0  0.98501  0.74810  0.07263  1.0000
  C   C778      1.0  0.90675  0.72003  0.27805  1.0000
  C   C779      1.0  0.56204  0.67479  0.12101  1.0000
  H   H1313     1.0  0.56067  0.69218  0.13310  1.0000
  H   H1314     1.0  0.91789  0.80242  0.29011  1.0000
  C   C780      1.0  0.72518  0.75824  0.46189  1.0000
  H   H1315     1.0  0.76964  0.86801  0.37789  1.0000
  N   N55       1.0  0.76752  0.82245  0.41783  1.0000
  C   C781      1.0  0.50907  0.80623  0.42470  1.0000
  C   C782      1.0  0.77507  0.82939  0.38084  1.0000
  C   C783      1.0  0.78280  0.80180  0.43034  1.0000
  C   C784      1.0  0.74155  0.81700  0.41997  1.0000
  H   H1316     1.0  0.79283  0.75592  0.10462  1.0000
  C   C785      1.0  0.78224  0.77909  0.40744  1.0000
  C   C786      1.0  0.73041  0.80363  0.38794  1.0000
  H   H1317     1.0  0.65228  0.69734  0.27306  1.0000
  C   C787      1.0  0.51217  0.76777  0.19571  1.0000
  C   C788      1.0  0.81174  0.78301  0.00370  1.0000
  H   H1318     1.0  0.77792  0.79641  0.45770  1.0000
  H   H1319     1.0  0.52823  0.80462  0.43140  1.0000
  H   H1320     1.0  0.73081  0.83370  0.42295  1.0000
  H   H1321     1.0  0.93432  0.73880  0.30311  1.0000
  H   H1322     1.0  0.90643  0.75700  0.34243  1.0000
  C   C789      1.0  0.95058  0.79427  0.14061  1.0000
  H   H1323     1.0  0.50494  0.84371  0.21291  1.0000
  H   H1324     1.0  0.76470  0.77090  0.40813  1.0000
  C   C790      1.0  0.92169  0.74232  0.28064  1.0000
  C   C791      1.0  0.70343  0.76883  0.47235  1.0000
  H   H1325     1.0  0.91874  0.70452  0.27270  1.0000
  C   C792      1.0  0.57882  0.68284  0.25267  1.0000
  C   C793      1.0  0.75212  0.69476  0.00482  1.0000
  H   H1326     1.0  0.63429  0.67319  0.28358  1.0000
  H   H1327     1.0  0.96275  0.75172  0.10435  1.0000
  H   H1328     1.0  0.74315  0.85160  0.36868  1.0000
  S   S230      1.0  0.83993  0.66006  0.99249  1.0000
  C   C794      1.0  0.73088  0.69266  0.02389  1.0000
  H   H1329     1.0  0.97386  0.91964  0.18414  1.0000
  H   H1330     1.0  0.72555  0.74643  0.43899  1.0000
  H   H1331     1.0  0.54300  0.83192  0.46736  1.0000
  H   H1332     1.0  0.69248  0.69271  0.02175  1.0000
  H   H1333     1.0  0.95926  0.78894  0.16616  1.0000
  C   C795      1.0  0.95458  0.76673  0.05248  1.0000
  H   H1334     1.0  0.88988  0.80925  0.24959  1.0000
  H   H1335     1.0  0.60708  0.69951  0.15131  1.0000
  H   H1336     1.0  0.50832  0.81602  0.39903  1.0000
  H   H1337     1.0  0.89796  0.71640  0.30375  1.0000
  H   H1338     1.0  0.57067  0.70050  0.25859  1.0000
  H   H1339     1.0  0.86888  0.79705  0.28014  1.0000
  H   H1340     1.0  0.77618  0.80379  0.03553  1.0000
  H   H1341     1.0  0.94020  0.75372  0.05305  1.0000
  C   C796      1.0  0.82963  0.80224  0.01267  1.0000
  H   H1342     1.0  0.76624  0.85277  0.33634  1.0000
  H   H1343     1.0  0.90304  0.77004  0.22897  1.0000
  H   H1344     1.0  0.77251  0.81513  0.36092  1.0000
  C   C797      1.0  0.63476  0.68309  0.22604  1.0000
  N   N56       1.0  0.98522  0.78217  0.09913  1.0000
  S   S231      1.0  0.58465  0.69692  0.06619  1.0000
  H   H1345     1.0  0.79288  0.73942  0.00664  1.0000
  S   S232      1.0  0.82711  0.75511  0.47899  1.0000
  H   H1346     1.0  0.76128  0.85881  0.43511  1.0000
  H   H1347     1.0  0.78978  0.82367  0.08448  1.0000
  C   C798      1.0  0.63522  0.68899  0.26637  1.0000
  Fe  Fe116     1.0  0.84772  0.78624  0.46027  1.0000
  H   H1348     1.0  0.82064  0.81865  0.02249  1.0000
  H   H1349     1.0  0.94527  0.78406  0.05443  1.0000
  H   H1350     1.0  0.94041  0.67554  0.02828  1.0000
  H   H1351     1.0  0.79877  0.72880  0.07998  1.0000
  H   H1352     1.0  0.79392  0.79813  0.11100  1.0000
  H   H1353     1.0  0.57431  0.70013  0.47387  1.0000
  H   H1354     1.0  0.56071  0.66574  0.44156  1.0000
  H   H1355     1.0  0.95592  0.79954  0.31658  1.0000
  C   C799      1.0  0.78259  0.75413  0.01964  1.0000
  S   S233      1.0  0.56863  0.77683  0.46039  1.0000
  H   H1356     1.0  0.86497  0.79413  0.23283  1.0000
  C   C800      1.0  0.89252  0.77036  0.25409  1.0000
  C   C801      1.0  0.99258  0.81006  0.04520  1.0000
  H   H1357     1.0  0.95819  0.80999  0.09042  1.0000
  H   H1358     1.0  0.49682  0.69296  0.28157  1.0000
  N   N57       1.0  0.61406  0.66937  0.21208  1.0000
  C   C802      1.0  0.70848  0.69452  0.00654  1.0000
  C   C803      1.0  0.50077  0.78099  0.41671  1.0000
  H   H1359     1.0  0.50312  0.76832  0.13957  1.0000
  S   S234      1.0  0.62227  0.66776  0.98507  1.0000
  H   H1360     1.0  0.59037  0.67835  0.27571  1.0000
  C   C804      1.0  0.98355  0.91665  0.12911  1.0000
  C   C805      1.0  0.50713  0.82787  0.19544  1.0000
  H   H1361     1.0  0.98408  0.93558  0.12207  1.0000
  C   C806      1.0  0.50612  0.84420  0.45580  1.0000
  H   H1362     1.0  0.97903  0.95699  0.18831  1.0000
  C   C807      1.0  0.50433  0.78151  0.16180  1.0000
  H   H1363     1.0  0.97824  0.93095  0.23855  1.0000
  C   C808      1.0  0.95708  0.66463  0.02872  1.0000
  H   H1364     1.0  0.56394  0.67046  0.25186  1.0000
  H   H1365     1.0  0.51917  0.79282  0.15430  1.0000
  H   H1366     1.0  0.97405  0.67679  0.13731  1.0000
  H   H1367     1.0  0.62195  0.68031  0.12040  1.0000
  H   H1368     1.0  0.53906  0.72451  0.47400  1.0000
  H   H1369     1.0  0.51422  0.83397  0.16981  1.0000
  H   H1370     1.0  0.75086  0.74891  0.98751  1.0000
  H   H1371     1.0  0.92577  0.66892  0.16855  1.0000
  H   H1372     1.0  0.53793  0.86314  0.47025  1.0000
  H   H1373     1.0  0.99116  0.97337  0.15271  1.0000
  S   S235      1.0  0.49686  0.82566  0.29032  1.0000
  H   H1374     1.0  0.92123  0.98722  0.17431  1.0000
  N   N58       1.0  0.49591  0.81984  0.45342  1.0000
  H   H1375     1.0  0.50225  0.75120  0.19808  1.0000
  H   H1376     1.0  0.50886  0.85148  0.42857  1.0000
  H   H1377     1.0  0.98800  0.89280  0.17363  1.0000
  H   H1378     1.0  0.82140  0.76887  0.98831  1.0000
  H   H1379     1.0  0.83890  0.80696  0.98775  1.0000
  C   C809      1.0  0.92796  0.98773  0.20152  1.0000
  H   H1380     1.0  0.84360  0.79623  0.03175  1.0000
  C   C810      1.0  0.98905  0.91219  0.16913  1.0000
  H   H1381     1.0  0.49325  0.68359  0.32638  1.0000
  H   H1382     1.0  0.95234  0.99006  0.29844  1.0000
  H   H1383     1.0  0.75385  0.77889  0.00140  1.0000
  H   H1384     1.0  0.50889  0.81572  0.10908  1.0000
  H   H1385     1.0  0.50454  0.76891  0.43942  1.0000
  C   C811      1.0  0.74644  0.76259  0.48084  1.0000
  C   C812      1.0  0.99236  0.66931  0.13739  1.0000
  S   S236      1.0  0.95536  0.82320  0.69852  1.0000
  C   C813      1.0  0.74644  0.77795  0.51039  1.0000
  H   H1386     1.0  0.86388  0.73327  0.80950  1.0000
  Fe  Fe117     1.0  0.85737  0.74816  0.51785  1.0000
  S   S237      1.0  0.84189  0.77088  0.56192  1.0000
  S   S238      1.0  0.87842  0.71353  0.52506  1.0000
  Fe  Fe118     1.0  0.81265  0.77987  0.52125  1.0000
  S   S239      1.0  0.77298  0.78500  0.53450  1.0000
  Fe  Fe119     1.0  0.86245  0.80003  0.53713  1.0000
  S   S240      1.0  0.88777  0.82693  0.56092  1.0000
  S   S241      1.0  0.85975  0.67656  0.89646  1.0000
  H   H1387     1.0  0.52759  0.98406  0.67007  1.0000
  Fe  Fe120     1.0  0.59534  0.77405  0.50461  1.0000
  S   S242      1.0  0.58355  0.77148  0.56254  1.0000
  H   H1388     1.0  0.50435  0.74662  0.76089  1.0000
  H   H1389     1.0  0.56721  0.67201  0.86616  1.0000
  Fe  Fe121     1.0  0.58999  0.72089  0.93595  1.0000
  S   S243      1.0  0.61489  0.69525  0.90813  1.0000
  S   S244      1.0  0.56240  0.74427  0.90675  1.0000
  H   H1390     1.0  0.50553  0.69838  0.56658  1.0000
  S   S245      1.0  0.67910  0.70110  0.94582  1.0000
  S   S246      1.0  0.87916  0.77698  0.49482  1.0000
  Fe  Fe122     1.0  0.51667  0.85493  0.70292  1.0000
  S   S247      1.0  0.54054  0.87816  0.73565  1.0000
  S   S248      1.0  0.52227  0.85126  0.64265  1.0000
  S   S249      1.0  0.57061  0.69226  0.96389  1.0000
  H   H1391     1.0  0.89377  0.67559  0.72604  1.0000
  H   H1392     1.0  0.51575  0.73531  0.54668  1.0000
  C   C814      1.0  0.53720  0.68332  0.54032  1.0000
  Fe  Fe123     1.0  0.53773  0.85035  0.77834  1.0000
  S   S250      1.0  0.56917  0.83668  0.81150  1.0000
  H   H1393     1.0  0.92360  0.70479  0.72845  1.0000
  S   S251      1.0  0.51673  0.82605  0.74374  1.0000
  C   C815      1.0  0.56803  0.80981  0.83549  1.0000
  C   C816      1.0  0.58741  0.80249  0.85702  1.0000
  C   C817      1.0  0.58646  0.78191  0.87803  1.0000
  C   C818      1.0  0.56604  0.76852  0.87772  1.0000
  C   C819      1.0  0.54693  0.77553  0.85548  1.0000
  C   C820      1.0  0.54790  0.79604  0.83444  1.0000
  H   H1394     1.0  0.60307  0.81303  0.85799  1.0000
  H   H1395     1.0  0.60125  0.77678  0.89515  1.0000
  H   H1396     1.0  0.53112  0.76522  0.85502  1.0000
  H   H1397     1.0  0.53292  0.80147  0.81792  1.0000
  H   H1398     1.0  0.57522  0.72833  0.52096  1.0000
  C   C821      1.0  0.72812  0.70108  0.95067  1.0000
  H   H1399     1.0  0.54962  0.66875  0.54887  1.0000
  C   C822      1.0  0.94269  0.96167  0.68345  1.0000
  H   H1400     1.0  0.53545  0.67498  0.82000  1.0000
  C   C823      1.0  0.85417  0.68603  0.75854  1.0000
  C   C824      1.0  0.51661  0.96203  0.71360  1.0000
  C   C825      1.0  0.97805  0.76786  0.61032  1.0000
  H   H1401     1.0  0.90343  0.72730  0.62049  1.0000
  H   H1402     1.0  0.52899  0.67086  0.92908  1.0000
  H   H1403     1.0  0.94716  0.72821  0.51220  1.0000
  H   H1404     1.0  0.51498  0.71613  0.85873  1.0000
  C   C826      1.0  0.56498  0.79305  0.58336  1.0000
  C   C827      1.0  0.55796  0.78956  0.61888  1.0000
  C   C828      1.0  0.54452  0.80704  0.63726  1.0000
  C   C829      1.0  0.53793  0.82814  0.62018  1.0000
  C   C830      1.0  0.54434  0.83132  0.58429  1.0000
  C   C831      1.0  0.55785  0.81389  0.56593  1.0000
  H   H1405     1.0  0.56331  0.77344  0.63249  1.0000
  H   H1406     1.0  0.53948  0.80431  0.66475  1.0000
  H   H1407     1.0  0.53931  0.84763  0.57096  1.0000
  H   H1408     1.0  0.56322  0.81682  0.53864  1.0000
  H   H1409     1.0  0.96852  0.71148  0.62892  1.0000
  C   C832      1.0  0.50342  0.98310  0.76638  1.0000
  C   C833      1.0  0.72467  0.78839  0.52107  1.0000
  H   H1410     1.0  0.50503  0.79699  0.92638  1.0000
  H   H1411     1.0  0.72430  0.80017  0.54399  1.0000
  C   C834      1.0  0.54194  0.83157  0.91695  1.0000
  C   C835      1.0  0.87936  0.69631  0.56453  1.0000
  C   C836      1.0  0.86120  0.69746  0.58969  1.0000
  H   H1412     1.0  0.88217  0.75066  0.61548  1.0000
  C   C837      1.0  0.75052  0.69892  0.96793  1.0000
  C   C838      1.0  0.56670  0.71554  0.53886  1.0000
  C   C839      1.0  0.89849  0.68028  0.56996  1.0000
  H   H1413     1.0  0.84627  0.70956  0.58562  1.0000
  H   H1414     1.0  0.58923  0.79925  0.74041  1.0000
  H   H1415     1.0  0.93979  0.77971  0.54018  1.0000
  C   C840      1.0  0.93749  0.82335  0.65924  1.0000
  C   C841      1.0  0.91592  0.81156  0.65942  1.0000
  C   C842      1.0  0.90085  0.81176  0.62910  1.0000
  C   C843      1.0  0.90709  0.82406  0.59842  1.0000
  C   C844      1.0  0.92879  0.83562  0.59813  1.0000
  C   C845      1.0  0.94410  0.83496  0.62815  1.0000
  H   H1416     1.0  0.91066  0.80252  0.68335  1.0000
  H   H1417     1.0  0.88406  0.80307  0.62985  1.0000
  H   H1418     1.0  0.93380  0.84506  0.57441  1.0000
  H   H1419     1.0  0.96097  0.84341  0.62722  1.0000
  Fe  Fe124     1.0  0.85813  0.68529  0.95632  1.0000
  C   C846      1.0  0.88718  0.69370  0.71867  1.0000
  C   C847      1.0  0.86168  0.68189  0.61902  1.0000
  C   C848      1.0  0.52393  0.69264  0.57363  1.0000
  H   H1420     1.0  0.90493  0.72728  0.70741  1.0000
  H   H1421     1.0  0.51207  0.72334  0.90502  1.0000
  H   H1422     1.0  0.84188  0.71571  0.68693  1.0000
  Fe  Fe125     1.0  0.50698  0.89448  0.75778  1.0000
  C   C849      1.0  0.49464  0.76102  0.77524  1.0000
  H   H1423     1.0  0.97313  0.93817  0.68765  1.0000
  H   H1424     1.0  0.92914  0.96792  0.66376  1.0000
  N   N59       1.0  0.54935  0.70116  0.51765  1.0000
  H   H1425     1.0  0.96627  0.76207  0.54233  1.0000
  H   H1426     1.0  0.90448  0.74542  0.56134  1.0000
  N   N60       1.0  0.94611  0.91832  0.66067  1.0000
  C   C850      1.0  0.95834  0.94123  0.66828  1.0000
  C   C851      1.0  0.96495  0.90027  0.65010  1.0000
  C   C852      1.0  0.93414  0.91083  0.69473  1.0000
  C   C853      1.0  0.92822  0.92275  0.63106  1.0000
  C   C854      1.0  0.70335  0.78389  0.50227  1.0000
  H   H1427     1.0  0.97783  0.89756  0.67260  1.0000
  C   C855      1.0  0.97937  0.90593  0.61653  1.0000
  C   C856      1.0  0.91591  0.90094  0.61568  1.0000
  C   C857      1.0  0.88773  0.70831  0.78013  1.0000
  H   H1428     1.0  0.96653  0.94827  0.64376  1.0000
  H   H1429     1.0  0.95737  0.88274  0.64509  1.0000
  H   H1430     1.0  0.84172  0.74679  0.69466  1.0000
  H   H1431     1.0  0.94515  0.75485  0.48704  1.0000
  H   H1432     1.0  0.91622  0.91937  0.69698  1.0000
  H   H1433     1.0  0.91381  0.93506  0.64020  1.0000
  H   H1434     1.0  0.93655  0.93177  0.60822  1.0000
  C   C858      1.0  0.87528  0.71734  0.81441  1.0000
  H   H1435     1.0  0.53288  0.70705  0.58796  1.0000
  H   H1436     1.0  0.49649  0.67848  0.86463  1.0000
  H   H1437     1.0  0.57580  0.67466  0.50136  1.0000
  H   H1438     1.0  0.54319  0.81205  0.91454  1.0000
  H   H1439     1.0  0.50921  0.80177  0.88021  1.0000
  H   H1440     1.0  0.91995  0.88140  0.72432  1.0000
  H   H1441     1.0  0.87691  0.69115  0.69362  1.0000
  H   H1442     1.0  0.93412  0.95707  0.70891  1.0000
  H   H1443     1.0  0.92860  0.88766  0.60447  1.0000
  H   H1444     1.0  0.90407  0.90657  0.59320  1.0000
  H   H1445     1.0  0.90450  0.89269  0.63566  1.0000
  H   H1446     1.0  0.53651  0.75274  0.52249  1.0000
  H   H1447     1.0  0.52247  0.83991  0.86853  1.0000
  H   H1448     1.0  0.84347  0.73031  0.75356  1.0000
  C   C859      1.0  0.85974  0.72719  0.73745  1.0000
  H   H1449     1.0  0.68689  0.79224  0.51076  1.0000
  H   H1450     1.0  0.90749  0.77405  0.57901  1.0000
  H   H1451     1.0  0.55792  0.72678  0.55945  1.0000
  H   H1452     1.0  0.50813  0.70273  0.95787  1.0000
  H   H1453     1.0  0.62073  0.79543  0.63086  1.0000
  H   H1454     1.0  0.52000  0.94565  0.69925  1.0000
  N   N61       1.0  0.49633  0.83291  0.90895  1.0000
  H   H1455     1.0  0.96800  0.90898  0.59258  1.0000
  C   C860      1.0  0.88066  0.66560  0.62410  1.0000
  H   H1456     1.0  0.94294  0.72800  0.64426  1.0000
  H   H1457     1.0  0.82623  0.66345  0.73992  1.0000
  C   C861      1.0  0.90150  0.74673  0.61759  1.0000
  H   H1458     1.0  0.54280  0.83683  0.94556  1.0000
  H   H1459     1.0  0.76654  0.70064  0.95271  1.0000
  H   H1460     1.0  0.53183  0.69962  0.89078  1.0000
  H   H1461     1.0  0.52063  0.86179  0.90282  1.0000
  H   H1462     1.0  0.91964  0.74505  0.50902  1.0000
  H   H1463     1.0  0.88892  0.72220  0.83459  1.0000
  H   H1464     1.0  0.98379  0.77702  0.63524  1.0000
  H   H1465     1.0  0.51767  0.80251  0.49461  1.0000
  H   H1466     1.0  0.86481  0.70346  0.82704  1.0000
  C   C862      1.0  0.51985  0.84244  0.89789  1.0000
  H   H1467     1.0  0.84700  0.68209  0.63732  1.0000
  H   H1468     1.0  0.87112  0.74245  0.74391  1.0000
  H   H1469     1.0  0.66086  0.66862  0.89349  1.0000
  H   H1470     1.0  0.84320  0.69248  0.78128  1.0000
  Fe  Fe126     1.0  0.63898  0.69830  0.95709  1.0000
  H   H1471     1.0  0.65056  0.67185  0.83150  1.0000
  H   H1472     1.0  0.94421  0.91691  0.71879  1.0000
  H   H1473     1.0  0.95411  0.97692  0.68948  1.0000
  H   H1474     1.0  0.77196  0.76630  0.96566  1.0000
  H   H1475     1.0  0.94520  0.78719  0.60299  1.0000
  H   H1476     1.0  0.94442  0.76537  0.63574  1.0000
  H   H1477     1.0  0.90779  0.75598  0.64192  1.0000
  H   H1478     1.0  0.57353  0.86710  0.62565  1.0000
  C   C863      1.0  0.85258  0.73024  0.69761  1.0000
  H   H1479     1.0  0.93557  0.71543  0.56871  1.0000
  H   H1480     1.0  0.96537  0.72401  0.57186  1.0000
  H   H1481     1.0  0.59750  0.88442  0.64234  1.0000
  H   H1482     1.0  0.62728  0.81215  0.59242  1.0000
  H   H1483     1.0  0.91248  0.67907  0.55047  1.0000
  H   H1484     1.0  0.94880  0.87543  0.70734  1.0000
  H   H1485     1.0  0.86353  0.66961  0.76797  1.0000
  H   H1486     1.0  0.86820  0.73207  0.68028  1.0000
  N   N62       1.0  0.87192  0.70410  0.74797  1.0000
  H   H1487     1.0  0.64463  0.81637  0.63204  1.0000
  C   C864      1.0  0.88442  0.66452  0.87281  1.0000
  H   H1488     1.0  0.57961  0.68817  0.57688  1.0000
  H   H1489     1.0  0.94465  0.65951  0.87494  1.0000
  C   C865      1.0  0.53148  0.71738  0.49900  1.0000
  H   H1490     1.0  0.93998  0.69977  0.62364  1.0000
  H   H1491     1.0  0.92348  0.87462  0.67797  1.0000
  C   C866      1.0  0.90896  0.70804  0.70887  1.0000
  Fe  Fe127     1.0  0.59652  0.66718  0.93829  1.0000
  N   N63       1.0  0.60638  0.83796  0.67246  1.0000
  C   C867      1.0  0.60043  0.81513  0.69064  1.0000
  C   C868      1.0  0.60865  0.83289  0.63290  1.0000
  C   C869      1.0  0.58634  0.85574  0.67887  1.0000
  C   C870      1.0  0.62922  0.84629  0.68876  1.0000
  C   C871      1.0  0.59305  0.81714  0.73030  1.0000
  C   C872      1.0  0.62649  0.81305  0.62213  1.0000
  C   C873      1.0  0.58163  0.87487  0.65008  1.0000
  C   C874      1.0  0.63947  0.86874  0.67285  1.0000
  H   H1492     1.0  0.58575  0.80640  0.67618  1.0000
  H   H1493     1.0  0.61568  0.80226  0.68999  1.0000
  H   H1494     1.0  0.61351  0.84882  0.61785  1.0000
  H   H1495     1.0  0.59121  0.82794  0.62159  1.0000
  H   H1496     1.0  0.56916  0.84666  0.68074  1.0000
  H   H1497     1.0  0.58872  0.86494  0.70509  1.0000
  H   H1498     1.0  0.62707  0.85010  0.71780  1.0000
  H   H1499     1.0  0.64322  0.83212  0.68714  1.0000
  H   H1500     1.0  0.60720  0.82414  0.74779  1.0000
  H   H1501     1.0  0.57660  0.82799  0.73385  1.0000
  H   H1502     1.0  0.91548  0.70197  0.68231  1.0000
  C   C875      1.0  0.89936  0.66530  0.59991  1.0000
  S   S252      1.0  0.50121  0.93427  0.77059  1.0000
  H   H1503     1.0  0.90112  0.72172  0.77417  1.0000
  H   H1504     1.0  0.82299  0.69288  0.72413  1.0000
  H   H1505     1.0  0.56852  0.88813  0.66052  1.0000
  S   S253      1.0  0.50620  0.86833  0.80362  1.0000
  H   H1506     1.0  0.64309  0.86693  0.64387  1.0000
  H   H1507     1.0  0.65668  0.87215  0.68627  1.0000
  H   H1508     1.0  0.62789  0.88445  0.67817  1.0000
  N   N64       1.0  0.93973  0.75245  0.58091  1.0000
  C   C876      1.0  0.94674  0.76126  0.54448  1.0000
  C   C877      1.0  0.95078  0.76855  0.60835  1.0000
  C   C878      1.0  0.91318  0.75525  0.58312  1.0000
  C   C879      1.0  0.94770  0.72687  0.58437  1.0000
  C   C880      1.0  0.93904  0.74627  0.51181  1.0000
  H   H1509     1.0  0.55801  0.83843  0.90417  1.0000
  C   C881      1.0  0.90759  0.66593  0.88596  1.0000
  C   C882      1.0  0.94982  0.71650  0.62259  1.0000
  H   H1510     1.0  0.59935  0.69314  0.53961  1.0000
  H   H1511     1.0  0.52367  0.67399  0.52416  1.0000
  C   C883      1.0  0.93145  0.88407  0.70085  1.0000
  C   C884      1.0  0.50774  0.96139  0.74845  1.0000
  H   H1512     1.0  0.50629  0.82907  0.96482  1.0000
  C   C885      1.0  0.56321  0.68783  0.48921  1.0000
  H   H1513     1.0  0.52317  0.67821  0.59359  1.0000
  H   H1514     1.0  0.59689  0.71407  0.57512  1.0000
  C   C886      1.0  0.49726  0.80641  0.90275  1.0000
  H   H1515     1.0  0.98816  0.97649  0.77827  1.0000
  C   C887      1.0  0.49872  0.80679  0.48829  1.0000
  H   H1516     1.0  0.84469  0.67220  0.70462  1.0000
  C   C888      1.0  0.58661  0.70151  0.55852  1.0000
  H   H1517     1.0  0.72728  0.70444  0.92222  1.0000
  H   H1518     1.0  0.89805  0.69189  0.78722  1.0000
  C   C889      1.0  0.83625  0.67854  0.72963  1.0000
  H   H1519     1.0  0.52775  0.84472  0.50522  1.0000
  H   H1520     1.0  0.51565  0.70746  0.49032  1.0000
  C   C890      1.0  0.52092  0.98394  0.69709  1.0000
  H   H1521     1.0  0.70900  0.66096  0.91239  1.0000
  H   H1522     1.0  0.50702  0.76830  0.79548  1.0000
  H   H1523     1.0  0.50767  0.74799  0.50461  1.0000
  H   H1524     1.0  0.49828  0.81542  0.54544  1.0000
  S   S254      1.0  0.83638  0.71684  0.97576  1.0000
  C   C891      1.0  0.70688  0.69881  0.96970  1.0000
  C   C892      1.0  0.52248  0.73944  0.51987  1.0000
  S   S255      1.0  0.83206  0.81132  0.50087  1.0000
  H   H1525     1.0  0.49561  0.85774  0.95327  1.0000
  H   H1526     1.0  0.91075  0.67359  0.91213  1.0000
  H   H1527     1.0  0.98555  0.74963  0.61102  1.0000
  H   H1528     1.0  0.98581  0.77760  0.58782  1.0000
  C   C893      1.0  0.51233  0.66105  0.92635  1.0000
  H   H1529     1.0  0.49331  0.69155  0.75537  1.0000
  C   C894      1.0  0.51435  0.70839  0.88593  1.0000
  H   H1530     1.0  0.49657  0.98295  0.79330  1.0000
  Fe  Fe128     1.0  0.99075  0.84096  0.70723  1.0000
  H   H1531     1.0  0.99106  0.92110  0.62109  1.0000
  H   H1532     1.0  0.99005  0.71445  0.70690  1.0000
  C   C895      1.0  0.49382  0.69101  0.88740  1.0000
  H   H1533     1.0  0.78183  0.82743  0.49476  1.0000
  H   H1534     1.0  0.76895  0.85632  0.49713  1.0000
  H   H1535     1.0  0.99126  0.89053  0.61030  1.0000
  S   S256      1.0  0.61918  0.80110  0.48150  1.0000
  H   H1536     1.0  0.75029  0.83202  0.48791  1.0000
  C   C896      1.0  0.76797  0.83915  0.48268  1.0000
