data_image0
_chemical_formula_structural       H2SHFe2HC2FeH2FeS2HCFeHS2HFeSFeS2FeS2FeSFeS3C6H5CH2NHSC6H4C6H9C3HCHCH5CH4CHC2SHC2H5C3H7SH2CH2SCH6CSHC2HFeH2CH3SCH2SH2C3H3C2HCH2CH5C2H2SH2C2HCNHCH2NH2CH3CH2CH4SH2CH2CH2C2H2NH3C2HCSH2CHCHC2HNHC2H4NHC2H2C2H11CHFeC3HFeSHFeSHCSFeH2FeCSH4S2HFeSFeSCFeS2FeSFeS3C6H6C2NCHC6H4C6H11C2H7C2H2C3HC2H3SHCH5CSHFeH6SH2NC4H2C3H21C5H2SCHSH3CH3CH7CH2C2H3C2SFeHC2H3N2HCH2C2H3C2H2NHC6HCSCSH2C4HCHCH4CHCH2CHC2HCHCH6CHCNH7CH2SCHSFeSHFeCSFeH3S2CHS2HSH2CH2CH3CSC3HCFeC3H3C2HCH7C3HCH3FeC2SH2CHNCHC2H2SHC2FeH2CH3C2HCH4C2SNC2HSCHCH4CHFeCH2CHC2HCHCH6C2H2NH3NHCH6CHFeCH2C3HC2H4CHCH2C3HCH2CHCH3CH13CHS2HSHFeSHFeCSFeC2HS2HS3FeH2NH3C5SHCFeHCH2CSH5FeC3H2SH2C2H3CH3CH5NH4CH3CHNH4CNHCH4NC8H8CH6CH4SCHCSH7CFeHC2HCH4C3SHCHC3HCFeC3H2C2H6FeC3H3C2HCFeC2HCHCFeS2FeHSCSFeS3HSH2FeSHC2FeS2FeSHFeS2FeSFeS3CHNH2C7H4C6H4C6H4C6H9CHNCH3C2HCH2C2HCH9C2H6NC8H20CH3C2H2CH8FeHCH3SHSHSHCHCNC8H17FeC4H2NH3FeHSCH2C2H3CNHCH2CHCH5C2H2FeS2FeH3CFeS5HCFeS2H2FeS2FeSHFeS2FeSFeS3HS2NHC7H4C6H4C6H4C6H4CH3C2H2NH2CHCH2CH2SCHC2H5SHC2H4CH2NCHCHC2H4C2HCHFeH4CH2C2HC2H4NC8H20C2HCHCHC2H2CH2C2HSHCHFeH5SFeH2CHFeH2SCH4FeCHNHC2HSHC2H3C2H7CHCHC2NH3CH2CSH2S2FeSCHCSFeS2FeS2FeS2FeSFeS3FeCSH2FeS2HC6H4CNCH2C2H5CSH5C6H4C6H4C4HCH3NSCH3FeH2CH4FeH4CHCH2C3HC3HSHCH2C3HC2H9CH2CH3CH5SHSNHCHCHCHC3H3CNH8CHCH3C3SNH5NH2CH3C3H3C2H2CH3CH2CNH2C3SNCH2FeHCFeC2HFeHCH3CH3SCHCH6CH3CHC2H3C3H6SH2S2FeSCH4SHFeS2FeS2FeSFeS3FeNSCHFeS3C6H4CH7C2SH8C6H4C6H6C3FeCHCH10SHFeH5CHC2HSH4FeC3FeHCHCH4SHC2H3FeCH2CHC2H5C2SNCNHC4H6CSC2H6NC3H3CH2CHCH2C2HC2HCH4C2HC3H11CH3SCH4C2H4CSCHS2FeS2FeSFeHSHFeHSC3SHSCFeH3CHFeH3CHC2HC3H2CHCFeH3C6SHFeH2SH4CHC2SHSH2SH7CH3C2H3C2H4C2NC2NC2HCH7CHC3H4CH5CH2C2H10SCSH4CH2CH3CHCH3C2H2CH2CNHCHSHSCSFeHSFeH2CS2FeHSHC2H2SCFeHFeH3CHCHCH4C2H4C3H2CHCSCH4C3S2CH2NC6HCH9SH2CH3CHC2H8CH4CH2FeHNCH2CH3CH2CHC2H3SHCSH5NC2H2NC8H9CH7C2HCSH6CH4SH3C4HCH2CH2SCHCFeHSFeS2CHFeS3FeS2HSCH2CFeSHFeS2FeS2FeSFeS3CH5C2H3C6H4C6H4C6H4C6H4SH3NC8H20C3HC2SH4C2HSNH5CH2CH7CH5SCFeHSHCHCH3CSH2CSCH2C2HCH2CHCH3NCH6FeC2H3CH2CNCSHCFeC3H8C2H7NHC2HCH2CHC3H2CFeH2FeS2H2FeS3HSH2SH4FeSHFeS2FeS2FeHFeS3NHCHNCHCH2C7H4C6H4C6H4C6H4CH3C3HCH9NH3SH6C2HCHC2H3CHFeH2CH6NC7SH9CH6C3H2CHC2HCH2CHCH3C3H4CH3CHNC3SH4SHCHCHC2H3CNH3CH3CH2CH2C2H5CH2CHCH3CHSH3SCNHC2HSC2H4CH4CHCFeCH
_chemical_formula_sum              "H1536 S256 Fe128 C896 N64"
_cell_length_a       52.3203
_cell_length_b       53.1021
_cell_length_c       39.4549
_cell_angle_alpha    89.9411
_cell_angle_beta     89.8123
_cell_angle_gamma    89.8857

_space_group_name_H-M_alt    "P 1"
_space_group_IT_number       1

loop_
  _space_group_symop_operation_xyz
  'x, y, z'

loop_
  _atom_site_type_symbol
  _atom_site_label
  _atom_site_symmetry_multiplicity
  _atom_site_fract_x
  _atom_site_fract_y
  _atom_site_fract_z
  _atom_site_occupancy
  H   H1        1.0  0.41529  0.06084  0.44715  1.0000
  H   H2        1.0  0.14667  0.16689  0.05596  1.0000
  S   S1        1.0  0.03909  0.05953  0.42642  1.0000
  H   H3        1.0  0.33789  0.22677  0.45871  1.0000
  Fe  Fe1       1.0  0.04418  0.10074  0.43830  1.0000
  Fe  Fe2       1.0  0.02436  0.07235  0.37531  1.0000
  H   H4        1.0  0.29679  0.27930  0.48904  1.0000
  C   C1        1.0  0.39030  0.31327  0.18257  1.0000
  C   C2        1.0  0.47388  0.07822  0.47698  1.0000
  Fe  Fe3       1.0  0.17578  0.29935  0.03103  1.0000
  H   H5        1.0  0.48960  0.22093  0.24816  1.0000
  H   H6        1.0  0.51096  0.23854  0.30070  1.0000
  Fe  Fe4       1.0  0.21319  0.26046  0.06355  1.0000
  S   S2        1.0  0.21423  0.23746  0.01542  1.0000
  S   S3        1.0  0.23448  0.24352  0.10919  1.0000
  H   H7        1.0  0.11451  0.07336  0.03388  1.0000
  C   C3        1.0  0.50923  0.01220  0.49011  1.0000
  Fe  Fe5       1.0  0.17167  0.24385  0.01201  1.0000
  H   H8        1.0  0.02048  0.05649  0.21490  1.0000
  S   S4        1.0  0.21859  0.29775  0.03746  1.0000
  S   S5        1.0  0.17030  0.26418  0.06192  1.0000
  H   H9        1.0  0.10950  0.28529  0.05582  1.0000
  Fe  Fe6       1.0  0.49680  0.10599  0.38507  1.0000
  S   S6        1.0  0.45723  0.12325  0.38705  1.0000
  Fe  Fe7       1.0  0.38501  0.28436  0.30070  1.0000
  S   S7        1.0  0.39233  0.26545  0.25081  1.0000
  S   S8        1.0  0.40249  0.32352  0.30578  1.0000
  Fe  Fe8       1.0  0.34541  0.24448  0.31992  1.0000
  S   S9        1.0  0.34984  0.22353  0.27067  1.0000
  S   S10       1.0  0.31678  0.22629  0.35498  1.0000
  Fe  Fe9       1.0  0.39184  0.22918  0.28042  1.0000
  S   S11       1.0  0.42213  0.19923  0.27080  1.0000
  Fe  Fe10      1.0  0.34957  0.26173  0.24594  1.0000
  S   S12       1.0  0.32935  0.27897  0.19963  1.0000
  S   S13       1.0  0.38748  0.24833  0.33085  1.0000
  S   S14       1.0  0.34222  0.28215  0.29487  1.0000
  C   C4        1.0  0.44793  0.14453  0.35470  1.0000
  C   C5        1.0  0.42844  0.16214  0.36115  1.0000
  C   C6        1.0  0.42038  0.17903  0.33575  1.0000
  C   C7        1.0  0.43142  0.17814  0.30342  1.0000
  C   C8        1.0  0.45068  0.16028  0.29686  1.0000
  C   C9        1.0  0.45913  0.14376  0.32246  1.0000
  H   H10       1.0  0.41952  0.16275  0.38591  1.0000
  H   H11       1.0  0.40540  0.19253  0.34108  1.0000
  H   H12       1.0  0.45898  0.15912  0.27178  1.0000
  H   H13       1.0  0.47380  0.12998  0.31696  1.0000
  H   H14       1.0  0.05501  0.24402  0.46253  1.0000
  C   C10       1.0  0.27583  0.26001  0.27275  1.0000
  H   H15       1.0  0.24872  0.27527  0.21782  1.0000
  H   H16       1.0  0.20464  0.24394  0.32216  1.0000
  N   N1        1.0  0.09469  0.24379  0.44705  1.0000
  H   H17       1.0  0.35321  0.33167  0.27473  1.0000
  S   S15       1.0  0.24724  0.28695  0.45792  1.0000
  C   C11       1.0  0.26106  0.25378  0.13367  1.0000
  C   C12       1.0  0.27150  0.27789  0.13038  1.0000
  C   C13       1.0  0.29243  0.28516  0.15066  1.0000
  C   C14       1.0  0.30316  0.26851  0.17456  1.0000
  C   C15       1.0  0.29288  0.24431  0.17760  1.0000
  C   C16       1.0  0.27199  0.23703  0.15727  1.0000
  H   H18       1.0  0.26318  0.29107  0.11263  1.0000
  H   H19       1.0  0.30016  0.30392  0.14806  1.0000
  H   H20       1.0  0.30108  0.23114  0.19549  1.0000
  H   H21       1.0  0.26420  0.21827  0.15988  1.0000
  C   C17       1.0  0.26594  0.27031  0.42835  1.0000
  C   C18       1.0  0.28540  0.28285  0.41054  1.0000
  C   C19       1.0  0.30125  0.26963  0.38781  1.0000
  C   C20       1.0  0.29781  0.24376  0.38326  1.0000
  C   C21       1.0  0.27820  0.23132  0.40081  1.0000
  C   C22       1.0  0.26220  0.24458  0.42312  1.0000
  H   H22       1.0  0.28829  0.30281  0.41447  1.0000
  H   H23       1.0  0.31624  0.27935  0.37414  1.0000
  H   H24       1.0  0.27530  0.21134  0.39705  1.0000
  H   H25       1.0  0.24707  0.23482  0.43636  1.0000
  H   H26       1.0  0.07514  0.10689  0.04194  1.0000
  H   H27       1.0  0.27175  0.25125  0.05556  1.0000
  H   H28       1.0  0.10618  0.21052  0.47518  1.0000
  H   H29       1.0  0.01872  0.01137  0.45444  1.0000
  H   H30       1.0  0.31939  0.24780  0.09417  1.0000
  C   C23       1.0  0.50261  0.20042  0.34463  1.0000
  C   C24       1.0  0.04385  0.02036  0.05302  1.0000
  C   C25       1.0  0.09751  0.13763  0.46755  1.0000
  H   H31       1.0  0.48583  0.06199  0.46895  1.0000
  C   C26       1.0  0.25279  0.21992  0.27259  1.0000
  H   H32       1.0  0.15634  0.31850  0.47370  1.0000
  C   C27       1.0  0.12487  0.16072  0.42856  1.0000
  H   H33       1.0  0.10423  0.08508  0.09123  1.0000
  H   H34       1.0  0.07186  0.14621  0.00622  1.0000
  H   H35       1.0  0.43246  0.29772  0.35822  1.0000
  H   H36       1.0  0.11896  0.21658  0.42102  1.0000
  H   H37       1.0  0.02596  0.05691  0.15508  1.0000
  C   C28       1.0  0.09416  0.29031  0.03757  1.0000
  H   H38       1.0  0.25824  0.21764  0.24547  1.0000
  H   H39       1.0  0.04866  0.29810  0.00375  1.0000
  H   H40       1.0  0.46967  0.04375  0.07791  1.0000
  H   H41       1.0  0.12584  0.23689  0.48188  1.0000
  C   C29       1.0  0.10459  0.14383  0.43438  1.0000
  H   H42       1.0  0.14533  0.08741  0.03557  1.0000
  C   C30       1.0  0.02563  0.02806  0.30192  1.0000
  C   C31       1.0  0.09969  0.23602  0.38193  1.0000
  S   S16       1.0  0.03273  0.11361  0.38613  1.0000
  H   H43       1.0  0.48994  0.18301  0.39174  1.0000
  C   C32       1.0  0.09018  0.28878  0.42212  1.0000
  C   C33       1.0  0.38229  0.32768  0.21479  1.0000
  H   H44       1.0  0.22144  0.24161  0.36137  1.0000
  H   H45       1.0  0.37345  0.30803  0.16716  1.0000
  H   H46       1.0  0.32418  0.26323  0.99195  1.0000
  H   H47       1.0  0.49374  0.18976  0.26455  1.0000
  H   H48       1.0  0.12934  0.24783  0.41699  1.0000
  C   C34       1.0  0.50818  0.18587  0.37773  1.0000
  C   C35       1.0  0.24616  0.25112  0.31898  1.0000
  C   C36       1.0  0.27228  0.20424  0.29301  1.0000
  H   H49       1.0  0.23390  0.21047  0.27512  1.0000
  H   H50       1.0  0.26310  0.24527  0.33384  1.0000
  H   H51       1.0  0.24366  0.27147  0.32504  1.0000
  H   H52       1.0  0.26822  0.20425  0.32061  1.0000
  H   H53       1.0  0.27128  0.18431  0.28459  1.0000
  H   H54       1.0  0.29219  0.21048  0.28845  1.0000
  H   H55       1.0  0.45236  0.01374  0.19772  1.0000
  S   S17       1.0  0.16279  0.19353  0.44709  1.0000
  H   H56       1.0  0.49516  0.21935  0.35193  1.0000
  H   H57       1.0  0.21542  0.26980  0.21218  1.0000
  C   C37       1.0  0.28162  0.25706  0.03204  1.0000
  H   H58       1.0  0.47931  0.04195  0.22814  1.0000
  H   H59       1.0  0.50614  0.06139  0.22073  1.0000
  S   S18       1.0  0.17662  0.26183  0.46745  1.0000
  C   C38       1.0  0.28427  0.21390  0.00975  1.0000
  H   H60       1.0  0.32516  0.21503  0.09408  1.0000
  H   H61       1.0  0.41785  0.13018  0.48484  1.0000
  H   H62       1.0  0.09622  0.31067  0.03230  1.0000
  H   H63       1.0  0.01960  0.30175  0.43463  1.0000
  H   H64       1.0  0.07900  0.02266  0.47839  1.0000
  H   H65       1.0  0.13543  0.07167  0.09028  1.0000
  C   C39       1.0  0.14116  0.14695  0.06060  1.0000
  S   S19       1.0  0.14918  0.33267  0.03990  1.0000
  H   H66       1.0  0.31135  0.28133  0.05482  1.0000
  C   C40       1.0  0.11169  0.23609  0.41768  1.0000
  C   C41       1.0  0.42906  0.33256  0.33070  1.0000
  H   H67       1.0  0.36835  0.31519  0.22779  1.0000
  Fe  Fe11      1.0  0.17854  0.22160  0.48512  1.0000
  H   H68       1.0  0.25733  0.21277  0.05337  1.0000
  H   H69       1.0  0.05899  0.24442  0.41888  1.0000
  C   C42       1.0  0.43651  0.06276  0.44671  1.0000
  H   H70       1.0  0.11512  0.23299  0.36293  1.0000
  H   H71       1.0  0.08991  0.25375  0.37518  1.0000
  H   H72       1.0  0.40470  0.32336  0.16713  1.0000
  S   S20       1.0  0.07318  0.11543  0.47632  1.0000
  C   C43       1.0  0.04072  0.01691  0.27633  1.0000
  H   H73       1.0  0.09483  0.13520  0.41325  1.0000
  H   H74       1.0  0.28413  0.19099  0.05627  1.0000
  S   S21       1.0  0.50571  0.06442  0.38827  1.0000
  H   H75       1.0  0.46853  0.31264  0.39390  1.0000
  H   H76       1.0  0.07129  0.28461  0.41091  1.0000
  C   C44       1.0  0.13774  0.32720  0.47646  1.0000
  C   C45       1.0  0.49110  0.04443  0.17449  1.0000
  C   C46       1.0  0.07807  0.14690  0.03292  1.0000
  H   H77       1.0  0.32950  0.21214  0.03665  1.0000
  H   H78       1.0  0.47438  0.21275  0.28695  1.0000
  H   H79       1.0  0.04668  0.20292  0.42365  1.0000
  C   C47       1.0  0.32314  0.23907  0.47052  1.0000
  C   C48       1.0  0.08993  0.12180  0.04476  1.0000
  H   H80       1.0  0.06015  0.02330  0.27265  1.0000
  C   C49       1.0  0.32076  0.23065  0.04327  1.0000
  H   H81       1.0  0.46829  0.03767  0.43070  1.0000
  H   H82       1.0  0.06063  0.15076  0.04821  1.0000
  C   C50       1.0  0.48530  0.04235  0.09684  1.0000
  H   H83       1.0  0.48751  0.06114  0.10861  1.0000
  H   H84       1.0  0.39943  0.29524  0.19010  1.0000
  H   H85       1.0  0.02227  0.03445  0.12245  1.0000
  H   H86       1.0  0.44019  0.03576  0.40551  1.0000
  H   H87       1.0  0.29357  0.22591  0.08736  1.0000
  C   C51       1.0  0.31376  0.23000  0.08147  1.0000
  C   C52       1.0  0.06266  0.20730  0.44114  1.0000
  H   H88       1.0  0.29063  0.29718  0.25994  1.0000
  H   H89       1.0  0.09120  0.16300  0.03673  1.0000
  S   S22       1.0  0.13725  0.21791  0.00789  1.0000
  H   H90       1.0  0.33644  0.24472  0.04097  1.0000
  H   H91       1.0  0.22437  0.21664  0.33151  1.0000
  C   C53       1.0  0.29387  0.28289  0.03920  1.0000
  C   C54       1.0  0.49715  0.04337  0.21292  1.0000
  H   H92       1.0  0.39932  0.32849  0.23168  1.0000
  C   C55       1.0  0.22272  0.23738  0.33381  1.0000
  N   N2        1.0  0.11438  0.11397  0.02720  1.0000
  H   H93       1.0  0.29160  0.25209  0.28838  1.0000
  C   C56       1.0  0.13792  0.17188  0.45577  1.0000
  H   H94       1.0  0.08608  0.22018  0.37901  1.0000
  H   H95       1.0  0.07568  0.28677  0.05056  1.0000
  N   N3        1.0  0.25088  0.24747  0.28163  1.0000
  H   H96       1.0  0.23674  0.24364  0.21111  1.0000
  H   H97       1.0  0.33539  0.33579  0.19705  1.0000
  C   C57       1.0  0.46049  0.32501  0.37492  1.0000
  H   H98       1.0  0.30435  0.23028  0.46569  1.0000
  H   H99       1.0  0.15760  0.13708  0.07244  1.0000
  H   H100      1.0  0.50270  0.05992  0.16326  1.0000
  C   C58       1.0  0.22881  0.25871  0.26222  1.0000
  H   H101      1.0  0.21140  0.24686  0.26514  1.0000
  H   H102      1.0  0.04992  0.02926  0.18599  1.0000
  C   C59       1.0  0.44004  0.31650  0.35476  1.0000
  H   H103      1.0  0.12520  0.14803  0.07891  1.0000
  H   H104      1.0  0.07941  0.19671  0.43136  1.0000
  H   H105      1.0  0.11773  0.27602  0.99766  1.0000
  H   H106      1.0  0.45804  0.02503  0.12974  1.0000
  S   S23       1.0  0.05270  0.06179  0.01358  1.0000
  H   H107      1.0  0.50074  0.03366  0.32008  1.0000
  H   H108      1.0  0.28337  0.29313  0.30457  1.0000
  C   C60       1.0  0.27697  0.28879  0.27838  1.0000
  H   H109      1.0  0.22303  0.27732  0.27270  1.0000
  H   H110      1.0  0.25862  0.29853  0.27388  1.0000
  C   C61       1.0  0.44718  0.03791  0.43192  1.0000
  H   H111      1.0  0.09239  0.12382  0.07247  1.0000
  H   H112      1.0  0.51041  0.02834  0.22084  1.0000
  C   C62       1.0  0.09738  0.27398  0.00544  1.0000
  C   C63       1.0  0.13055  0.16600  0.48894  1.0000
  H   H113      1.0  0.47617  0.09170  0.45559  1.0000
  H   H114      1.0  0.05803  0.19987  0.46676  1.0000
  N   N4        1.0  0.49482  0.02046  0.15444  1.0000
  H   H115      1.0  0.47082  0.05075  0.17274  1.0000
  H   H116      1.0  0.28201  0.25572  0.24638  1.0000
  H   H117      1.0  0.44068  0.07761  0.42748  1.0000
  C   C64       1.0  0.27039  0.20033  0.03896  1.0000
  C   C65       1.0  0.23305  0.26191  0.22374  1.0000
  H   H118      1.0  0.12851  0.14994  0.00864  1.0000
  C   C66       1.0  0.03683  0.01892  0.16883  1.0000
  S   S24       1.0  0.03871  0.05320  0.32647  1.0000
  H   H119      1.0  0.13050  0.16513  0.40283  1.0000
  H   H120      1.0  0.32421  0.25744  0.45720  1.0000
  C   C67       1.0  0.03358  0.03723  0.02929  1.0000
  H   H121      1.0  0.48620  0.19048  0.33287  1.0000
  C   C68       1.0  0.12502  0.09029  0.04319  1.0000
  H   H122      1.0  0.13225  0.10494  0.09499  1.0000
  C   C69       1.0  0.13407  0.13467  0.02651  1.0000
  C   C70       1.0  0.12409  0.08833  0.08218  1.0000
  H   H123      1.0  0.29669  0.19918  0.99826  1.0000
  N   N5        1.0  0.29953  0.23701  0.01880  1.0000
  H   H124      1.0  0.29815  0.29308  0.01527  1.0000
  C   C71       1.0  0.06732  0.23605  0.44213  1.0000
  C   C72       1.0  0.49203  0.20983  0.27181  1.0000
  H   H125      1.0  0.10558  0.28785  0.40275  1.0000
  H   H126      1.0  0.44918  0.12362  0.46919  1.0000
  H   H127      1.0  0.51511  0.16452  0.30606  1.0000
  H   H128      1.0  0.05006  0.26485  0.00938  1.0000
  N   N6        1.0  0.44641  0.07027  0.48125  1.0000
  H   H129      1.0  0.27995  0.29475  0.05334  1.0000
  C   C73       1.0  0.47843  0.02174  0.12297  1.0000
  C   C74       1.0  0.51031  0.02058  0.30330  1.0000
  H   H130      1.0  0.50124  0.01610  0.46548  1.0000
  H   H131      1.0  0.15239  0.12766  0.01565  1.0000
  C   C75       1.0  0.09631  0.27183  0.45265  1.0000
  C   C76       1.0  0.42974  0.11561  0.47214  1.0000
  H   H132      1.0  0.09521  0.25401  0.01373  1.0000
  H   H133      1.0  0.11591  0.27706  0.46108  1.0000
  H   H134      1.0  0.08951  0.30868  0.43076  1.0000
  H   H135      1.0  0.08316  0.27793  0.47328  1.0000
  H   H136      1.0  0.50275  0.03734  0.08222  1.0000
  H   H137      1.0  0.33505  0.33878  0.13998  1.0000
  H   H138      1.0  0.25831  0.18515  0.02816  1.0000
  H   H139      1.0  0.26588  0.26042  0.01362  1.0000
  H   H140      1.0  0.06333  0.02269  0.06156  1.0000
  H   H141      1.0  0.44042  0.02122  0.44630  1.0000
  H   H142      1.0  0.01832  0.26902  0.42423  1.0000
  C   C77       1.0  0.10552  0.23126  0.47827  1.0000
  H   H143      1.0  0.42118  0.11247  0.44681  1.0000
  Fe  Fe12      1.0  0.21689  0.26497  0.48604  1.0000
  C   C78       1.0  0.50479  0.01082  0.00959  1.0000
  C   C79       1.0  0.01897  0.03748  0.15002  1.0000
  C   C80       1.0  0.10768  0.10769  0.99096  1.0000
  H   H144      1.0  0.46019  0.06378  0.55194  1.0000
  Fe  Fe13      1.0  0.04257  0.07831  0.96236  1.0000
  S   S25       1.0  0.07072  0.07105  0.92061  1.0000
  H   H145      1.0  0.27458  0.19160  0.72873  1.0000
  Fe  Fe14      1.0  0.06807  0.11260  0.91010  1.0000
  S   S26       1.0  0.10463  0.13496  0.90084  1.0000
  H   H146      1.0  0.31473  0.21499  0.95138  1.0000
  C   C81       1.0  0.45079  0.33957  0.86302  1.0000
  S   S27       1.0  0.04238  0.12019  0.95444  1.0000
  Fe  Fe15      1.0  0.16535  0.27078  0.52083  1.0000
  H   H147      1.0  0.27403  0.20141  0.79213  1.0000
  H   H148      1.0  0.12463  0.25299  0.95205  1.0000
  Fe  Fe16      1.0  0.20676  0.23597  0.55099  1.0000
  C   C82       1.0  0.07338  0.31406  0.92962  1.0000
  S   S28       1.0  0.22648  0.21691  0.59611  1.0000
  H   H149      1.0  0.09216  0.09344  0.99003  1.0000
  H   H150      1.0  0.26837  0.20314  0.54442  1.0000
  H   H151      1.0  0.49654  0.11537  0.75922  1.0000
  H   H152      1.0  0.20757  0.24139  0.76092  1.0000
  S   S29       1.0  0.20576  0.27733  0.53865  1.0000
  S   S30       1.0  0.16502  0.23015  0.53790  1.0000
  H   H153      1.0  0.05086  0.01911  0.93799  1.0000
  Fe  Fe17      1.0  0.49360  0.10053  0.89560  1.0000
  S   S31       1.0  0.45299  0.11564  0.89049  1.0000
  Fe  Fe18      1.0  0.36893  0.27161  0.79369  1.0000
  S   S32       1.0  0.37977  0.25171  0.74565  1.0000
  C   C83       1.0  0.05088  0.03834  0.61254  1.0000
  Fe  Fe19      1.0  0.33177  0.22975  0.81357  1.0000
  S   S33       1.0  0.33997  0.20691  0.76666  1.0000
  S   S34       1.0  0.30330  0.21362  0.85100  1.0000
  Fe  Fe20      1.0  0.38107  0.21664  0.77813  1.0000
  S   S35       1.0  0.41529  0.19014  0.77374  1.0000
  Fe  Fe21      1.0  0.33771  0.24391  0.73865  1.0000
  S   S36       1.0  0.31749  0.25661  0.68980  1.0000
  S   S37       1.0  0.37287  0.23725  0.82672  1.0000
  S   S38       1.0  0.32681  0.26597  0.78522  1.0000
  C   C84       1.0  0.44351  0.13798  0.85933  1.0000
  C   C85       1.0  0.41833  0.14731  0.85975  1.0000
  C   C86       1.0  0.40967  0.16402  0.83441  1.0000
  C   C87       1.0  0.42602  0.17124  0.80802  1.0000
  C   C88       1.0  0.45126  0.16209  0.80775  1.0000
  C   C89       1.0  0.46005  0.14579  0.83343  1.0000
  H   H154      1.0  0.40536  0.14142  0.87962  1.0000
  H   H155      1.0  0.39017  0.17081  0.83485  1.0000
  H   H156      1.0  0.46405  0.16761  0.78748  1.0000
  H   H157      1.0  0.47950  0.13899  0.83281  1.0000
  H   H158      1.0  0.32237  0.30220  0.95508  1.0000
  H   H159      1.0  0.11401  0.27437  0.91910  1.0000
  C   C90       1.0  0.09517  0.17142  0.94930  1.0000
  C   C91       1.0  0.50401  0.09622  0.76449  1.0000
  N   N7        1.0  0.24492  0.22564  0.77085  1.0000
  C   C92       1.0  0.51036  0.01768  0.80821  1.0000
  H   H160      1.0  0.34920  0.28968  0.86351  1.0000
  C   C93       1.0  0.25174  0.22835  0.62189  1.0000
  C   C94       1.0  0.25831  0.25385  0.62290  1.0000
  C   C95       1.0  0.27823  0.26211  0.64419  1.0000
  C   C96       1.0  0.29194  0.24505  0.66457  1.0000
  C   C97       1.0  0.28555  0.21950  0.66327  1.0000
  C   C98       1.0  0.26540  0.21127  0.64233  1.0000
  H   H161      1.0  0.24788  0.26724  0.60753  1.0000
  H   H162      1.0  0.28308  0.28191  0.64485  1.0000
  H   H163      1.0  0.29635  0.20607  0.67808  1.0000
  H   H164      1.0  0.26055  0.19148  0.64162  1.0000
  C   C99       1.0  0.26072  0.26720  0.92191  1.0000
  C   C100      1.0  0.27753  0.27673  0.89735  1.0000
  C   C101      1.0  0.29051  0.26041  0.87529  1.0000
  C   C102      1.0  0.28695  0.23444  0.87797  1.0000
  C   C103      1.0  0.26976  0.22489  0.90212  1.0000
  C   C104      1.0  0.25647  0.24127  0.92393  1.0000
  H   H165      1.0  0.28054  0.29682  0.89542  1.0000
  H   H166      1.0  0.30335  0.26788  0.85627  1.0000
  H   H167      1.0  0.26671  0.20478  0.90392  1.0000
  H   H168      1.0  0.24325  0.23385  0.94252  1.0000
  H   H169      1.0  0.35807  0.26511  0.89185  1.0000
  H   H170      1.0  0.34139  0.21805  0.98058  1.0000
  H   H171      1.0  0.10252  0.03213  0.50836  1.0000
  H   H172      1.0  0.06785  0.01696  0.57255  1.0000
  H   H173      1.0  0.24264  0.18864  0.79421  1.0000
  H   H174      1.0  0.03675  0.05344  0.61765  1.0000
  H   H175      1.0  0.26214  0.24290  0.81501  1.0000
  C   C105      1.0  0.11315  0.16020  0.92782  1.0000
  C   C106      1.0  0.13865  0.16852  0.92883  1.0000
  H   H176      1.0  0.22408  0.23913  0.85373  1.0000
  H   H177      1.0  0.44485  0.03418  0.55642  1.0000
  H   H178      1.0  0.20764  0.20816  0.76666  1.0000
  H   H179      1.0  0.15264  0.16005  0.91209  1.0000
  H   H180      1.0  0.27059  0.16534  0.75601  1.0000
  H   H181      1.0  0.20796  0.21997  0.82326  1.0000
  H   H182      1.0  0.23678  0.27110  0.73621  1.0000
  C   C107      1.0  0.24279  0.23920  0.80442  1.0000
  C   C108      1.0  0.40976  0.32160  0.82340  1.0000
  H   H183      1.0  0.16609  0.19288  0.95343  1.0000
  H   H184      1.0  0.45820  0.04496  0.71086  1.0000
  C   C109      1.0  0.10926  0.25712  0.93364  1.0000
  C   C110      1.0  0.10567  0.08133  0.54397  1.0000
  C   C111      1.0  0.32286  0.32224  0.94713  1.0000
  H   H185      1.0  0.14446  0.11228  0.96388  1.0000
  C   C112      1.0  0.35101  0.33973  0.88312  1.0000
  C   C113      1.0  0.32267  0.23203  0.58507  1.0000
  H   H186      1.0  0.49519  0.05707  0.75646  1.0000
  H   H187      1.0  0.37786  0.29258  0.93131  1.0000
  H   H188      1.0  0.26522  0.28713  0.53787  1.0000
  S   S39       1.0  0.17523  0.27933  0.98122  1.0000
  H   H189      1.0  0.30168  0.26601  0.58130  1.0000
  C   C114      1.0  0.08687  0.30523  0.96226  1.0000
  H   H190      1.0  0.30185  0.20219  0.53764  1.0000
  H   H191      1.0  0.33782  0.22064  0.57283  1.0000
  H   H192      1.0  0.31237  0.32443  0.92308  1.0000
  H   H193      1.0  0.47524  0.10103  0.52453  1.0000
  H   H194      1.0  0.06880  0.26048  0.92967  1.0000
  C   C115      1.0  0.09144  0.06105  0.56479  1.0000
  S   S40       1.0  0.38125  0.31206  0.80316  1.0000
  H   H195      1.0  0.09178  0.25629  0.51946  1.0000
  Fe  Fe22      1.0  0.03658  0.06611  0.88660  1.0000
  H   H196      1.0  0.33380  0.22282  0.51799  1.0000
  H   H197      1.0  0.08660  0.32630  0.91493  1.0000
  H   H198      1.0  0.03442  0.04229  0.73305  1.0000
  H   H199      1.0  0.05458  0.09375  0.54123  1.0000
  H   H200      1.0  0.07857  0.24040  0.96261  1.0000
  H   H201      1.0  0.42627  0.03717  0.49924  1.0000
  S   S41       1.0  0.50322  0.05887  0.89530  1.0000
  H   H202      1.0  0.26971  0.24544  0.54874  1.0000
  H   H203      1.0  0.50993  0.09489  0.79131  1.0000
  N   N8        1.0  0.46022  0.07448  0.77438  1.0000
  C   C116      1.0  0.04826  0.07838  0.55850  1.0000
  C   C117      1.0  0.44626  0.05084  0.76407  1.0000
  C   C118      1.0  0.46665  0.07354  0.81180  1.0000
  C   C119      1.0  0.44519  0.09794  0.76606  1.0000
  H   H204      1.0  0.32999  0.23711  0.61059  1.0000
  H   H205      1.0  0.10748  0.07642  0.51677  1.0000
  C   C120      1.0  0.44796  0.05922  0.83535  1.0000
  C   C121      1.0  0.41873  0.10047  0.78277  1.0000
  C   C122      1.0  0.05471  0.03340  0.57429  1.0000
  H   H206      1.0  0.06834  0.29872  0.91205  1.0000
  H   H207      1.0  0.42764  0.04909  0.77735  1.0000
  H   H208      1.0  0.45752  0.03392  0.77175  1.0000
  H   H209      1.0  0.48544  0.06421  0.81602  1.0000
  H   H210      1.0  0.46898  0.09286  0.82223  1.0000
  H   H211      1.0  0.45587  0.11502  0.77379  1.0000
  H   H212      1.0  0.44258  0.09987  0.73823  1.0000
  H   H213      1.0  0.29622  0.25489  0.96951  1.0000
  H   H214      1.0  0.10517  0.14417  0.52049  1.0000
  H   H215      1.0  0.42775  0.06469  0.83192  1.0000
  H   H216      1.0  0.33363  0.32877  0.87698  1.0000
  H   H217      1.0  0.10786  0.30653  0.95794  1.0000
  H   H218      1.0  0.13869  0.08037  0.97911  1.0000
  H   H219      1.0  0.45278  0.06330  0.86215  1.0000
  H   H220      1.0  0.44990  0.03855  0.83192  1.0000
  H   H221      1.0  0.40568  0.08498  0.77562  1.0000
  H   H222      1.0  0.40975  0.11833  0.77407  1.0000
  H   H223      1.0  0.42024  0.10195  0.81068  1.0000
  H   H224      1.0  0.03103  0.28955  0.94326  1.0000
  H   H225      1.0  0.33297  0.28595  0.90380  1.0000
  H   H226      1.0  0.09152  0.06789  0.59143  1.0000
  C   C123      1.0  0.14629  0.18716  0.95213  1.0000
  C   C124      1.0  0.22707  0.22586  0.83229  1.0000
  C   C125      1.0  0.44050  0.04786  0.72596  1.0000
  C   C126      1.0  0.25576  0.19980  0.77786  1.0000
  C   C127      1.0  0.26118  0.18290  0.74702  1.0000
  H   H227      1.0  0.23754  0.20946  0.84286  1.0000
  H   H228      1.0  0.24326  0.17700  0.73443  1.0000
  S   S42       1.0  0.24724  0.28811  0.95141  1.0000
  C   C128      1.0  0.31646  0.25646  0.56571  1.0000
  H   H229      1.0  0.26601  0.23188  0.72405  1.0000
  S   S43       1.0  0.22010  0.22401  0.49909  1.0000
  H   H230      1.0  0.10146  0.22576  0.53250  1.0000
  H   H231      1.0  0.21450  0.23955  0.70361  1.0000
  H   H232      1.0  0.26126  0.27961  0.76661  1.0000
  C   C129      1.0  0.42969  0.09145  0.49394  1.0000
  H   H233      1.0  0.10000  0.12434  0.97749  1.0000
  H   H234      1.0  0.29119  0.30300  0.55960  1.0000
  H   H235      1.0  0.07539  0.16565  0.94815  1.0000
  C   C130      1.0  0.21866  0.22396  0.75516  1.0000
  H   H236      1.0  0.23378  0.25806  0.80118  1.0000
  H   H237      1.0  0.28303  0.23939  0.76058  1.0000
  H   H238      1.0  0.45538  0.30081  0.87815  1.0000
  H   H239      1.0  0.43482  0.09736  0.51995  1.0000
  H   H240      1.0  0.12540  0.08330  0.55392  1.0000
  H   H241      1.0  0.20021  0.20977  0.70953  1.0000
  H   H242      1.0  0.03626  0.02656  0.56409  1.0000
  C   C131      1.0  0.26357  0.24026  0.74935  1.0000
  H   H243      1.0  0.23380  0.21130  0.70424  1.0000
  H   H244      1.0  0.41980  0.28493  0.84245  1.0000
  C   C132      1.0  0.21740  0.22100  0.71611  1.0000
  C   C133      1.0  0.44383  0.05258  0.54299  1.0000
  H   H245      1.0  0.31157  0.33341  0.96572  1.0000
  H   H246      1.0  0.48120  0.07825  0.72697  1.0000
  H   H247      1.0  0.08312  0.32026  0.98121  1.0000
  C   C134      1.0  0.25697  0.26829  0.74370  1.0000
  C   C135      1.0  0.28393  0.29661  0.53468  1.0000
  S   S44       1.0  0.12999  0.29480  0.53061  1.0000
  Fe  Fe23      1.0  0.21759  0.27508  0.98932  1.0000
  H   H248      1.0  0.06912  0.04264  0.62550  1.0000
  C   C136      1.0  0.44427  0.04768  0.50444  1.0000
  C   C137      1.0  0.35053  0.33228  0.94599  1.0000
  H   H249      1.0  0.04327  0.02094  0.62463  1.0000
  H   H250      1.0  0.04443  0.04186  0.50936  1.0000
  H   H251      1.0  0.33375  0.26866  0.56694  1.0000
  N   N9        1.0  0.06459  0.05522  0.55358  1.0000
  N   N10       1.0  0.30765  0.25376  0.52954  1.0000
  H   H252      1.0  0.42929  0.06385  0.71573  1.0000
  C   C138      1.0  0.44469  0.31380  0.86247  1.0000
  H   H253      1.0  0.08442  0.32507  0.52569  1.0000
  H   H254      1.0  0.30524  0.22066  0.58950  1.0000
  C   C139      1.0  0.03455  0.03690  0.78735  1.0000
  C   C140      1.0  0.09723  0.33100  0.50567  1.0000
  H   H255      1.0  0.26917  0.27590  0.72299  1.0000
  H   H256      1.0  0.12205  0.09244  0.94345  1.0000
  H   H257      1.0  0.33781  0.23899  0.94527  1.0000
  C   C141      1.0  0.32867  0.24181  0.50873  1.0000
  C   C142      1.0  0.09141  0.23619  0.51204  1.0000
  H   H258      1.0  0.01558  0.07027  0.52488  1.0000
  H   H259      1.0  0.42882  0.03061  0.72237  1.0000
  N   N11       1.0  0.07956  0.27982  0.97634  1.0000
  H   H260      1.0  0.05054  0.08615  0.58450  1.0000
  C   C143      1.0  0.31125  0.24716  0.98647  1.0000
  C   C144      1.0  0.11052  0.14884  0.49475  1.0000
  C   C145      1.0  0.37201  0.30189  0.90724  1.0000
  C   C146      1.0  0.32718  0.22844  0.96514  1.0000
  C   C147      1.0  0.12134  0.31943  0.50246  1.0000
  C   C148      1.0  0.03053  0.27626  0.96477  1.0000
  H   H261      1.0  0.32194  0.29063  0.51486  1.0000
  C   C149      1.0  0.30358  0.28002  0.51568  1.0000
  S   S45       1.0  0.03618  0.10733  0.87245  1.0000
  C   C150      1.0  0.10282  0.18976  0.97279  1.0000
  S   S46       1.0  0.03435  0.02859  0.85753  1.0000
  H   H262      1.0  0.10346  0.04372  0.56495  1.0000
  H   H263      1.0  0.09649  0.10008  0.54639  1.0000
  C   C151      1.0  0.01940  0.07505  0.55173  1.0000
  C   C152      1.0  0.28266  0.23964  0.52766  1.0000
  C   C153      1.0  0.06389  0.04804  0.51663  1.0000
  C   C154      1.0  0.03424  0.02857  0.75332  1.0000
  H   H264      1.0  0.46012  0.03413  0.49952  1.0000
  C   C155      1.0  0.12979  0.09764  0.96866  1.0000
  H   H265      1.0  0.10914  0.24117  0.91541  1.0000
  C   C156      1.0  0.42456  0.30476  0.84228  1.0000
  H   H266      1.0  0.38887  0.30044  0.89013  1.0000
  H   H267      1.0  0.49660  0.07412  0.52345  1.0000
  H   H268      1.0  0.42566  0.06167  0.55101  1.0000
  H   H269      1.0  0.06786  0.06459  0.50016  1.0000
  C   C157      1.0  0.48491  0.07538  0.75445  1.0000
  H   H270      1.0  0.40949  0.08497  0.49607  1.0000
  C   C158      1.0  0.35159  0.28503  0.89079  1.0000
  H   H271      1.0  0.07148  0.22923  0.51173  1.0000
  H   H272      1.0  0.03494  0.05683  0.79298  1.0000
  C   C159      1.0  0.12843  0.19746  0.97466  1.0000
  H   H273      1.0  0.50508  0.02311  0.83370  1.0000
  C   C160      1.0  0.08272  0.25898  0.95065  1.0000
  C   C161      1.0  0.28397  0.21049  0.52797  1.0000
  H   H274      1.0  0.14045  0.17446  0.51008  1.0000
  C   C162      1.0  0.48753  0.08927  0.50818  1.0000
  H   H275      1.0  0.34667  0.25287  0.51115  1.0000
  C   C163      1.0  0.03429  0.01943  0.81393  1.0000
  H   H276      1.0  0.36306  0.33817  0.85993  1.0000
  H   H277      1.0  0.28026  0.31385  0.51943  1.0000
  H   H278      1.0  0.49233  0.01835  0.99023  1.0000
  H   H279      1.0  0.27240  0.24488  0.50395  1.0000
  H   H280      1.0  0.50291  0.10217  0.49948  1.0000
  H   H281      1.0  0.26968  0.21866  0.99025  1.0000
  C   C164      1.0  0.08219  0.02670  0.50569  1.0000
  H   H282      1.0  0.28002  0.20288  0.50229  1.0000
  C   C165      1.0  0.40969  0.33349  0.94163  1.0000
  N   N12       1.0  0.36517  0.32920  0.91325  1.0000
  H   H283      1.0  0.41735  0.31490  0.93367  1.0000
  H   H284      1.0  0.15992  0.33301  0.96738  1.0000
  H   H285      1.0  0.05603  0.32529  0.93576  1.0000
  H   H286      1.0  0.36068  0.32260  0.96703  1.0000
  H   H287      1.0  0.03003  0.25660  0.95523  1.0000
  H   H288      1.0  0.40213  0.33241  0.96783  1.0000
  H   H289      1.0  0.08886  0.19767  0.99006  1.0000
  C   C166      1.0  0.05257  0.28010  0.99016  1.0000
  H   H290      1.0  0.35754  0.38377  0.24246  1.0000
  H   H291      1.0  0.39769  0.40752  0.17208  1.0000
  S   S47       1.0  0.05662  0.44507  0.42542  1.0000
  C   C167      1.0  0.03863  0.49255  0.30511  1.0000
  H   H292      1.0  0.38303  0.36577  0.25996  1.0000
  S   S48       1.0  0.05136  0.47151  0.33603  1.0000
  Fe  Fe24      1.0  0.05993  0.40276  0.42285  1.0000
  S   S49       1.0  0.09822  0.38284  0.42890  1.0000
  H   H293      1.0  0.41305  0.64127  0.16705  1.0000
  Fe  Fe25      1.0  0.05000  0.62051  0.15114  1.0000
  C   C168      1.0  0.44403  0.60692  0.29996  1.0000
  S   S50       1.0  0.07405  0.65561  0.16027  1.0000
  Fe  Fe26      1.0  0.04350  0.57277  0.11050  1.0000
  H   H294      1.0  0.08029  0.50403  0.13670  1.0000
  H   H295      1.0  0.46337  0.61408  0.30571  1.0000
  H   H296      1.0  0.04216  0.62555  0.01704  1.0000
  S   S51       1.0  0.03446  0.61330  0.09913  1.0000
  S   S52       1.0  0.06191  0.58025  0.16095  1.0000
  C   C169      1.0  0.44220  0.57823  0.30492  1.0000
  H   H297      1.0  0.01825  0.52112  0.35834  1.0000
  S   S53       1.0  0.45879  0.61151  0.16187  1.0000
  S   S54       1.0  0.49963  0.43609  0.40081  1.0000
  H   H298      1.0  0.49262  0.48863  0.24434  1.0000
  S   S55       1.0  0.49563  0.35974  0.39718  1.0000
  H   H299      1.0  0.34444  0.37079  0.13944  1.0000
  H   H300      1.0  0.44157  0.39320  0.43363  1.0000
  C   C170      1.0  0.45963  0.36534  0.34646  1.0000
  H   H301      1.0  0.40908  0.37010  0.20993  1.0000
  H   H302      1.0  0.46701  0.38421  0.34311  1.0000
  C   C171      1.0  0.45957  0.55037  0.21717  1.0000
  H   H303      1.0  0.03971  0.49013  0.21377  1.0000
  H   H304      1.0  0.14809  0.66135  0.19743  1.0000
  H   H305      1.0  0.36808  0.34596  0.14034  1.0000
  C   C172      1.0  0.44886  0.63407  0.19219  1.0000
  S   S56       1.0  0.06378  0.54793  0.07245  1.0000
  C   C173      1.0  0.45355  0.52523  0.32357  1.0000
  C   C174      1.0  0.46404  0.64015  0.22007  1.0000
  C   C175      1.0  0.03849  0.57807  0.46004  1.0000
  H   H306      1.0  0.48239  0.63112  0.22322  1.0000
  C   C176      1.0  0.36528  0.36433  0.24444  1.0000
  Fe  Fe27      1.0  0.01830  0.43810  0.44931  1.0000
  C   C177      1.0  0.18779  0.67230  0.18925  1.0000
  C   C178      1.0  0.10614  0.65078  0.10443  1.0000
  C   C179      1.0  0.19118  0.64996  0.46084  1.0000
  H   H307      1.0  0.13277  0.64712  0.06279  1.0000
  H   H308      1.0  0.09982  0.63142  0.10307  1.0000
  H   H309      1.0  0.20413  0.65996  0.12588  1.0000
  C   C180      1.0  0.05526  0.50959  0.28885  1.0000
  C   C181      1.0  0.04613  0.52705  0.26469  1.0000
  H   H310      1.0  0.49917  0.66418  0.18337  1.0000
  C   C182      1.0  0.44788  0.40472  0.45559  1.0000
  H   H311      1.0  0.45675  0.58769  0.23757  1.0000
  H   H312      1.0  0.07536  0.50943  0.29524  1.0000
  H   H313      1.0  0.05910  0.54026  0.25287  1.0000
  H   H314      1.0  0.47988  0.54528  0.22066  1.0000
  H   H315      1.0  0.06031  0.43653  0.20062  1.0000
  H   H316      1.0  0.05565  0.50578  0.43521  1.0000
  H   H317      1.0  0.50143  0.51846  0.06888  1.0000
  C   C183      1.0  0.04648  0.52643  0.04756  1.0000
  C   C184      1.0  0.05864  0.51464  0.02007  1.0000
  C   C185      1.0  0.05044  0.51599  0.41152  1.0000
  H   H318      1.0  0.46077  0.52192  0.27065  1.0000
  C   C186      1.0  0.07611  0.49490  0.16158  1.0000
  H   H319      1.0  0.46744  0.66266  0.26535  1.0000
  H   H320      1.0  0.38459  0.40869  0.21375  1.0000
  H   H321      1.0  0.02358  0.57199  0.47836  1.0000
  Fe  Fe28      1.0  0.51480  0.39756  0.38771  1.0000
  C   C187      1.0  0.44966  0.53501  0.28706  1.0000
  C   C188      1.0  0.04536  0.49728  0.99984  1.0000
  S   S57       1.0  0.49778  0.47004  0.31235  1.0000
  H   H322      1.0  0.08197  0.50665  0.21455  1.0000
  H   H323      1.0  0.47336  0.52824  0.33263  1.0000
  C   C189      1.0  0.43190  0.67029  0.23980  1.0000
  H   H324      1.0  0.48953  0.56820  0.31458  1.0000
  N   N13       1.0  0.03528  0.53940  0.41993  1.0000
  C   C190      1.0  0.10627  0.35832  0.45750  1.0000
  H   H325      1.0  0.43062  0.36953  0.30815  1.0000
  C   C191      1.0  0.08036  0.51513  0.18895  1.0000
  C   C192      1.0  0.09614  0.66670  0.12942  1.0000
  H   H326      1.0  0.44788  0.53296  0.21657  1.0000
  H   H327      1.0  0.22012  0.65329  0.42265  1.0000
  S   S58       1.0  0.02327  0.39599  0.45120  1.0000
  H   H328      1.0  0.07115  0.35919  0.48599  1.0000
  C   C193      1.0  0.05181  0.55548  0.44265  1.0000
  C   C194      1.0  0.07521  0.52015  0.39101  1.0000
  Fe  Fe29      1.0  0.02244  0.57455  0.18291  1.0000
  H   H329      1.0  0.43226  0.40441  0.47443  1.0000
  H   H330      1.0  0.04634  0.56328  0.37741  1.0000
  C   C195      1.0  0.51163  0.51148  0.04693  1.0000
  H   H331      1.0  0.05398  0.45201  0.23984  1.0000
  H   H332      1.0  0.33458  0.36919  0.19553  1.0000
  H   H333      1.0  0.06830  0.56345  0.42840  1.0000
  C   C196      1.0  0.01988  0.49157  0.00717  1.0000
  C   C197      1.0  0.48280  0.66924  0.10948  1.0000
  H   H334      1.0  0.18030  0.66206  0.47847  1.0000
  C   C198      1.0  0.42502  0.64598  0.18844  1.0000
  H   H335      1.0  0.02323  0.46475  0.19546  1.0000
  H   H336      1.0  0.43093  0.61629  0.31827  1.0000
  H   H337      1.0  0.06497  0.52945  0.18917  1.0000
  H   H338      1.0  0.43766  0.61300  0.27449  1.0000
  C   C199      1.0  0.50227  0.49048  0.02888  1.0000
  C   C200      1.0  0.48578  0.56449  0.28727  1.0000
  S   S59       1.0  0.04192  0.40094  0.37122  1.0000
  N   N14       1.0  0.37125  0.35369  0.20976  1.0000
  C   C201      1.0  0.12486  0.65972  0.08164  1.0000
  C   C202      1.0  0.47316  0.39367  0.46910  1.0000
  H   H339      1.0  0.06033  0.54393  0.46333  1.0000
  S   S60       1.0  0.51235  0.55819  0.15153  1.0000
  C   C203      1.0  0.50854  0.49826  0.25598  1.0000
  H   H340      1.0  0.21250  0.67423  0.36294  1.0000
  C   C204      1.0  0.45552  0.65802  0.24390  1.0000
  H   H341      1.0  0.07785  0.46287  0.09506  1.0000
  H   H342      1.0  0.43966  0.53370  0.34155  1.0000
  H   H343      1.0  0.08941  0.53156  0.40495  1.0000
  H   H344      1.0  0.48710  0.39622  0.44804  1.0000
  C   C205      1.0  0.39141  0.37042  0.19415  1.0000
  H   H345      1.0  0.49586  0.54648  0.28208  1.0000
  Fe  Fe30      1.0  0.03613  0.44296  0.37522  1.0000
  C   C206      1.0  0.34938  0.35212  0.15034  1.0000
  H   H346      1.0  0.45766  0.55945  0.19191  1.0000
  H   H347      1.0  0.09133  0.48039  0.16453  1.0000
  C   C207      1.0  0.04225  0.47402  0.19613  1.0000
  H   H348      1.0  0.34096  0.36085  0.28899  1.0000
  C   C208      1.0  0.15985  0.67010  0.17710  1.0000
  C   C209      1.0  0.05053  0.46091  0.13752  1.0000
  H   H349      1.0  0.14327  0.35271  0.43449  1.0000
  C   C210      1.0  0.50061  0.58448  0.26683  1.0000
  H   H350      1.0  0.09861  0.52511  0.18374  1.0000
  C   C211      1.0  0.11287  0.36343  0.01069  1.0000
  H   H351      1.0  0.18865  0.65897  0.40744  1.0000
  H   H352      1.0  0.17791  0.63476  0.45295  1.0000
  H   H353      1.0  0.24324  0.66688  0.47112  1.0000
  H   H354      1.0  0.45059  0.42415  0.44581  1.0000
  H   H355      1.0  0.03828  0.51457  0.12918  1.0000
  H   H356      1.0  0.45019  0.50456  0.32399  1.0000
  C   C212      1.0  0.20187  0.66320  0.42875  1.0000
  C   C213      1.0  0.06057  0.45514  0.21333  1.0000
  H   H357      1.0  0.06433  0.60541  0.99584  1.0000
  H   H358      1.0  0.07837  0.51902  0.01431  1.0000
  N   N15       1.0  0.45740  0.56202  0.28070  1.0000
  H   H359      1.0  0.44800  0.57468  0.33161  1.0000
  H   H360      1.0  0.39784  0.36357  0.16909  1.0000
  H   H361      1.0  0.42919  0.53204  0.28036  1.0000
  N   N16       1.0  0.04993  0.48308  0.16130  1.0000
  H   H362      1.0  0.48612  0.65122  0.12299  1.0000
  C   C214      1.0  0.02891  0.55473  0.38887  1.0000
  H   H363      1.0  0.49252  0.60358  0.26929  1.0000
  H   H364      1.0  0.42877  0.56964  0.24237  1.0000
  H   H365      1.0  0.08428  0.50153  0.38623  1.0000
  H   H366      1.0  0.42148  0.57338  0.30349  1.0000
  H   H367      1.0  0.03027  0.59155  0.44159  1.0000
  H   H368      1.0  0.48481  0.48148  0.03721  1.0000
  C   C215      1.0  0.44998  0.56864  0.24482  1.0000
  H   H369      1.0  0.08044  0.46216  0.21491  1.0000
  Fe  Fe31      1.0  0.50017  0.59900  0.15535  1.0000
  C   C216      1.0  0.13426  0.34786  0.00512  1.0000
  H   H370      1.0  0.20671  0.64030  0.47496  1.0000
  H   H371      1.0  0.23581  0.65831  0.16843  1.0000
  C   C217      1.0  0.04537  0.60588  0.00859  1.0000
  C   C218      1.0  0.08965  0.35030  0.48320  1.0000
  C   C219      1.0  0.47033  0.34946  0.37088  1.0000
  H   H372      1.0  0.07125  0.52854  0.36580  1.0000
  C   C220      1.0  0.43900  0.35696  0.32664  1.0000
  C   C221      1.0  0.02109  0.52048  0.05510  1.0000
  H   H373      1.0  0.36453  0.40048  0.17809  1.0000
  H   H374      1.0  0.06498  0.44686  0.14594  1.0000
  H   H375      1.0  0.04675  0.59318  0.03080  1.0000
  H   H376      1.0  0.19454  0.65251  0.19248  1.0000
  C   C222      1.0  0.41666  0.66421  0.21194  1.0000
  H   H377      1.0  0.50186  0.57942  0.23966  1.0000
  C   C223      1.0  0.02019  0.52752  0.25616  1.0000
  H   H378      1.0  0.10582  0.36612  0.03625  1.0000
  H   H379      1.0  0.03919  0.50216  0.39686  1.0000
  C   C224      1.0  0.38376  0.39828  0.18938  1.0000
  C   C225      1.0  0.05736  0.46699  0.10022  1.0000
  C   C226      1.0  0.34542  0.34981  0.26579  1.0000
  H   H380      1.0  0.15823  0.65757  0.15466  1.0000
  C   C227      1.0  0.51514  0.48117  0.00008  1.0000
  H   H381      1.0  0.05290  0.58853  0.47511  1.0000
  H   H382      1.0  0.05240  0.47522  0.48916  1.0000
  C   C228      1.0  0.03071  0.50266  0.15015  1.0000
  H   H383      1.0  0.32720  0.34670  0.25222  1.0000
  C   C229      1.0  0.34684  0.35259  0.18947  1.0000
  H   H384      1.0  0.46722  0.66563  0.09106  1.0000
  H   H385      1.0  0.02681  0.51631  0.17093  1.0000
  H   H386      1.0  0.05387  0.48680  0.09317  1.0000
  C   C230      1.0  0.13028  0.34662  0.45425  1.0000
  H   H387      1.0  0.01979  0.54939  0.33545  1.0000
  H   H388      1.0  0.47041  0.37293  0.47136  1.0000
  H   H389      1.0  0.49125  0.44140  0.48035  1.0000
  H   H390      1.0  0.51398  0.36349  0.47256  1.0000
  H   H391      1.0  0.22878  0.67072  0.23045  1.0000
  H   H392      1.0  0.03223  0.45024  0.13827  1.0000
  H   H393      1.0  0.51455  0.50217  0.46550  1.0000
  H   H394      1.0  0.26089  0.67392  0.21557  1.0000
  H   H395      1.0  0.04546  0.45546  0.08289  1.0000
  H   H396      1.0  0.01708  0.57135  0.39587  1.0000
  H   H397      1.0  0.01599  0.52910  0.46653  1.0000
  H   H398      1.0  0.50005  0.67430  0.09482  1.0000
  H   H399      1.0  0.39840  0.67349  0.20857  1.0000
  C   C231      1.0  0.51538  0.49253  0.28950  1.0000
  H   H400      1.0  0.11896  0.39396  0.84794  1.0000
  S   S61       1.0  0.47369  0.35045  0.89240  1.0000
  S   S62       1.0  0.05917  0.45325  0.91329  1.0000
  H   H401      1.0  0.39354  0.61285  0.64931  1.0000
  S   S63       1.0  0.49097  0.46180  0.80882  1.0000
  H   H402      1.0  0.46061  0.43869  0.49824  1.0000
  Fe  Fe32      1.0  0.05902  0.41081  0.91222  1.0000
  S   S64       1.0  0.09483  0.38644  0.91474  1.0000
  H   H403      1.0  0.42634  0.34648  0.94210  1.0000
  Fe  Fe33      1.0  0.06667  0.61625  0.64233  1.0000
  C   C232      1.0  0.02480  0.59697  0.98346  1.0000
  S   S65       1.0  0.09958  0.64184  0.65692  1.0000
  Fe  Fe34      1.0  0.04318  0.57891  0.59351  1.0000
  C   C233      1.0  0.04170  0.48880  0.50390  1.0000
  C   C234      1.0  0.51361  0.51815  0.74633  1.0000
  H   H404      1.0  0.13824  0.35413  0.91933  1.0000
  S   S66       1.0  0.04734  0.62112  0.59231  1.0000
  S   S67       1.0  0.06555  0.57378  0.64175  1.0000
  H   H405      1.0  0.45068  0.65166  0.78529  1.0000
  S   S68       1.0  0.05549  0.47460  0.81975  1.0000
  S   S69       1.0  0.47623  0.64352  0.66552  1.0000
  S   S70       1.0  0.47906  0.42711  0.89389  1.0000
  Fe  Fe35      1.0  0.49455  0.38790  0.88801  1.0000
  H   H406      1.0  0.48230  0.49189  0.74983  1.0000
  H   H407      1.0  0.44697  0.51896  0.92695  1.0000
  N   N17       1.0  0.37372  0.65275  0.69011  1.0000
  H   H408      1.0  0.34955  0.63335  0.74788  1.0000
  H   H409      1.0  0.47014  0.54666  0.83249  1.0000
  H   H410      1.0  0.43757  0.47997  0.89658  1.0000
  C   C235      1.0  0.39604  0.63525  0.69650  1.0000
  C   C236      1.0  0.45309  0.49260  0.88762  1.0000
  C   C237      1.0  0.48122  0.54380  0.88559  1.0000
  C   C238      1.0  0.13103  0.35676  0.94481  1.0000
  C   C239      1.0  0.46342  0.65931  0.70115  1.0000
  S   S71       1.0  0.05580  0.55604  0.54787  1.0000
  H   H411      1.0  0.31534  0.64033  0.70570  1.0000
  C   C240      1.0  0.46421  0.64881  0.73365  1.0000
  Fe  Fe36      1.0  0.03796  0.45147  0.86346  1.0000
  H   H412      1.0  0.47457  0.63144  0.73788  1.0000
  C   C241      1.0  0.11907  0.65544  0.62511  1.0000
  H   H413      1.0  0.46146  0.55130  0.88884  1.0000
  H   H414      1.0  0.15091  0.43701  0.93796  1.0000
  C   C242      1.0  0.11971  0.64580  0.59214  1.0000
  S   S72       1.0  0.03998  0.40911  0.86121  1.0000
  H   H415      1.0  0.45667  0.54132  0.97240  1.0000
  H   H416      1.0  0.10796  0.62978  0.58567  1.0000
  H   H417      1.0  0.46743  0.49362  0.93874  1.0000
  H   H418      1.0  0.05625  0.44656  0.68100  1.0000
  H   H419      1.0  0.03123  0.57811  0.97442  1.0000
  Fe  Fe37      1.0  0.50595  0.43756  0.85165  1.0000
  C   C243      1.0  0.04966  0.52607  0.74284  1.0000
  C   C244      1.0  0.05906  0.50897  0.76733  1.0000
  C   C245      1.0  0.10040  0.37539  0.98337  1.0000
  H   H420      1.0  0.38528  0.66247  0.63879  1.0000
  H   H421      1.0  0.06275  0.53590  0.72620  1.0000
  S   S73       1.0  0.02220  0.40732  0.94124  1.0000
  H   H422      1.0  0.46413  0.56684  0.94315  1.0000
  H   H423      1.0  0.40498  0.36041  0.80856  1.0000
  C   C246      1.0  0.04021  0.52823  0.53541  1.0000
  C   C247      1.0  0.05389  0.51035  0.51649  1.0000
  H   H424      1.0  0.08030  0.48266  0.65652  1.0000
  H   H425      1.0  0.51031  0.44393  0.53917  1.0000
  H   H426      1.0  0.43744  0.41677  0.53233  1.0000
  C   C248      1.0  0.10949  0.37209  0.95028  1.0000
  H   H427      1.0  0.49426  0.56012  0.88951  1.0000
  H   H428      1.0  0.08397  0.49377  0.59451  1.0000
  H   H429      1.0  0.06195  0.47375  0.70771  1.0000
  C   C249      1.0  0.46343  0.50748  0.91808  1.0000
  H   H430      1.0  0.35391  0.63294  0.64997  1.0000
  H   H431      1.0  0.07360  0.52540  0.60467  1.0000
  H   H432      1.0  0.50334  0.54253  0.83793  1.0000
  H   H433      1.0  0.35123  0.61865  0.69053  1.0000
  H   H434      1.0  0.43988  0.39608  0.56689  1.0000
  N   N18       1.0  0.48660  0.52373  0.91180  1.0000
  H   H435      1.0  0.50559  0.49663  0.87855  1.0000
  H   H436      1.0  0.08387  0.38720  0.98792  1.0000
  H   H437      1.0  0.51141  0.49198  0.92182  1.0000
  H   H438      1.0  0.39965  0.34498  0.89133  1.0000
  C   C250      1.0  0.01574  0.48492  0.51034  1.0000
  H   H439      1.0  0.44447  0.50530  0.86846  1.0000
  H   H440      1.0  0.06857  0.51288  0.66621  1.0000
  H   H441      1.0  0.32322  0.66901  0.68343  1.0000
  C   C251      1.0  0.05545  0.44711  0.61339  1.0000
  H   H442      1.0  0.35010  0.35232  0.95434  1.0000
  N   N19       1.0  0.48380  0.40449  0.50155  1.0000
  H   H443      1.0  0.13710  0.64836  0.54260  1.0000
  H   H444      1.0  0.47867  0.43975  0.55729  1.0000
  H   H445      1.0  0.02289  0.49400  0.68974  1.0000
  H   H446      1.0  0.10220  0.51320  0.62227  1.0000
  C   C252      1.0  0.08242  0.50806  0.61488  1.0000
  N   N20       1.0  0.04097  0.48945  0.64048  1.0000
  H   H447      1.0  0.33129  0.37249  0.86315  1.0000
  C   C253      1.0  0.38981  0.34385  0.91630  1.0000
  H   H448      1.0  0.51010  0.54886  0.94207  1.0000
  H   H449      1.0  0.42220  0.60836  0.67336  1.0000
  H   H450      1.0  0.39057  0.61962  0.71386  1.0000
  H   H451      1.0  0.38130  0.64077  0.76347  1.0000
  N   N21       1.0  0.12965  0.44808  0.85459  1.0000
  C   C254      1.0  0.10883  0.43380  0.83626  1.0000
  C   C255      1.0  0.12018  0.47483  0.85850  1.0000
  C   C256      1.0  0.13230  0.43612  0.88914  1.0000
  C   C257      1.0  0.15406  0.44612  0.83442  1.0000
  C   C258      1.0  0.11485  0.40632  0.82603  1.0000
  C   C259      1.0  0.12076  0.49124  0.82612  1.0000
  C   C260      1.0  0.15293  0.44661  0.91302  1.0000
  C   C261      1.0  0.17590  0.46450  0.84372  1.0000
  H   H452      1.0  0.09099  0.43341  0.85178  1.0000
  H   H453      1.0  0.10331  0.44332  0.81234  1.0000
  H   H454      1.0  0.13082  0.48541  0.87799  1.0000
  H   H455      1.0  0.10014  0.47495  0.86820  1.0000
  H   H456      1.0  0.11379  0.43723  0.90311  1.0000
  H   H457      1.0  0.13688  0.41578  0.88696  1.0000
  H   H458      1.0  0.16203  0.42670  0.83646  1.0000
  H   H459      1.0  0.15000  0.44884  0.80691  1.0000
  C   C262      1.0  0.44350  0.39750  0.53918  1.0000
  H   H460      1.0  0.09766  0.39827  0.81362  1.0000
  H   H461      1.0  0.13065  0.40518  0.80730  1.0000
  H   H462      1.0  0.04241  0.48037  0.58659  1.0000
  H   H463      1.0  0.11159  0.48220  0.80407  1.0000
  H   H464      1.0  0.31209  0.64229  0.66116  1.0000
  H   H465      1.0  0.17242  0.44204  0.90389  1.0000
  C   C263      1.0  0.47216  0.55292  0.96116  1.0000
  H   H466      1.0  0.15096  0.46700  0.91815  1.0000
  H   H467      1.0  0.19291  0.45380  0.85253  1.0000
  H   H468      1.0  0.17097  0.47840  0.86351  1.0000
  H   H469      1.0  0.18200  0.47521  0.82088  1.0000
  S   S74       1.0  0.50355  0.57164  0.66626  1.0000
  C   C264      1.0  0.35152  0.63725  0.67743  1.0000
  H   H470      1.0  0.44139  0.37610  0.84292  1.0000
  C   C265      1.0  0.49319  0.53637  0.94497  1.0000
  S   S75       1.0  0.50122  0.45585  0.97702  1.0000
  H   H471      1.0  0.38613  0.36370  0.92389  1.0000
  H   H472      1.0  0.14045  0.49677  0.81906  1.0000
  H   H473      1.0  0.35477  0.65994  0.77486  1.0000
  H   H474      1.0  0.07443  0.45014  0.62480  1.0000
  H   H475      1.0  0.10995  0.50892  0.83106  1.0000
  H   H476      1.0  0.46764  0.48030  0.87572  1.0000
  H   H477      1.0  0.41166  0.64534  0.70977  1.0000
  C   C266      1.0  0.36307  0.64874  0.75378  1.0000
  Fe  Fe38      1.0  0.50777  0.61398  0.66658  1.0000
  H   H478      1.0  0.48296  0.39610  0.55558  1.0000
  C   C267      1.0  0.50890  0.50704  0.90241  1.0000
  C   C268      1.0  0.48070  0.43278  0.50205  1.0000
  H   H479      1.0  0.43110  0.38363  0.52608  1.0000
  C   C269      1.0  0.49981  0.49838  0.76143  1.0000
  H   H480      1.0  0.48604  0.46668  0.53201  1.0000
  H   H481      1.0  0.41878  0.63639  0.64930  1.0000
  H   H482      1.0  0.47334  0.37114  0.52982  1.0000
  H   H483      1.0  0.07398  0.51333  0.51120  1.0000
  C   C270      1.0  0.13627  0.65635  0.56779  1.0000
  C   C271      1.0  0.06812  0.49795  0.64634  1.0000
  C   C272      1.0  0.40798  0.62263  0.66497  1.0000
  S   S76       1.0  0.03033  0.61904  0.67266  1.0000
  H   H484      1.0  0.33005  0.37074  0.90832  1.0000
  C   C273      1.0  0.38214  0.67168  0.66379  1.0000
  H   H485      1.0  0.02875  0.52776  0.65031  1.0000
  C   C274      1.0  0.32439  0.64831  0.68256  1.0000
  C   C275      1.0  0.47197  0.39198  0.53209  1.0000
  C   C276      1.0  0.04240  0.49612  0.78954  1.0000
  H   H486      1.0  0.05956  0.44048  0.58720  1.0000
  C   C277      1.0  0.41630  0.34728  0.82320  1.0000
  Fe  Fe39      1.0  0.02054  0.44964  0.93802  1.0000
  C   C278      1.0  0.50861  0.48685  0.79121  1.0000
  C   C279      1.0  0.34256  0.36747  0.88603  1.0000
  C   C280      1.0  0.36795  0.66608  0.72304  1.0000
  H   H487      1.0  0.07941  0.50582  0.76915  1.0000
  H   H488      1.0  0.01887  0.46421  0.60908  1.0000
  C   C281      1.0  0.48449  0.53631  0.84787  1.0000
  C   C282      1.0  0.43693  0.35622  0.84261  1.0000
  H   H489      1.0  0.03208  0.52069  0.60691  1.0000
  H   H490      1.0  0.50673  0.52682  0.72326  1.0000
  H   H491      1.0  0.50393  0.53943  0.50109  1.0000
  H   H492      1.0  0.04533  0.43187  0.62726  1.0000
  H   H493      1.0  0.35913  0.38046  0.88652  1.0000
  H   H494      1.0  0.48065  0.56365  0.98253  1.0000
  Fe  Fe40      1.0  0.02732  0.57692  0.66783  1.0000
  C   C283      1.0  0.51217  0.39905  0.50198  1.0000
  C   C284      1.0  0.03884  0.47107  0.61152  1.0000
  C   C285      1.0  0.04714  0.46218  0.69505  1.0000
  H   H495      1.0  0.02599  0.60915  0.96057  1.0000
  H   H496      1.0  0.03548  0.45370  0.71572  1.0000
  H   H497      1.0  0.49859  0.52212  0.96431  1.0000
  C   C286      1.0  0.02964  0.47863  0.67269  1.0000
  C   C287      1.0  0.45056  0.66023  0.76040  1.0000
  H   H498      1.0  0.48175  0.51617  0.84217  1.0000
  C   C288      1.0  0.02337  0.53050  0.74011  1.0000
  Fe  Fe41      1.0  0.51250  0.43495  0.92827  1.0000
  C   C289      1.0  0.01612  0.50049  0.78671  1.0000
  C   C290      1.0  0.02563  0.51260  0.63137  1.0000
  H   H499      1.0  0.51306  0.35908  0.51824  1.0000
  C   C291      1.0  0.48954  0.44612  0.53471  1.0000
  H   H500      1.0  0.05482  0.48838  0.97857  1.0000
  C   C292      1.0  0.14330  0.34464  0.97202  1.0000
  Fe  Fe42      1.0  0.20532  0.77534  0.07995  1.0000
  S   S77       1.0  0.19707  0.80323  0.03846  1.0000
  S   S78       1.0  0.22793  0.78721  0.12606  1.0000
  Fe  Fe43      1.0  0.17223  0.73498  0.04929  1.0000
  H   H501      1.0  0.17557  0.70226  0.39753  1.0000
  S   S79       1.0  0.15802  0.69464  0.05489  1.0000
  C   C293      1.0  0.47412  0.68984  0.13453  1.0000
  S   S80       1.0  0.22525  0.77134  0.44159  1.0000
  Fe  Fe44      1.0  0.15647  0.79021  0.04306  1.0000
  S   S81       1.0  0.12157  0.81521  0.03548  1.0000
  S   S82       1.0  0.21446  0.74364  0.04411  1.0000
  S   S83       1.0  0.16396  0.76504  0.08762  1.0000
  H   H502      1.0  0.24206  0.70152  0.22041  1.0000
  S   S84       1.0  0.03157  0.95438  0.14491  1.0000
  H   H503      1.0  0.51031  0.84385  0.26877  1.0000
  H   H504      1.0  0.23659  0.69651  0.35149  1.0000
  Fe  Fe45      1.0  0.04090  0.91286  0.14081  1.0000
  S   S85       1.0  0.08125  0.89679  0.14106  1.0000
  H   H505      1.0  0.03870  0.85113  0.19338  1.0000
  C   C294      1.0  0.04407  0.83318  0.18078  1.0000
  C   C295      1.0  0.15919  0.70074  0.44645  1.0000
  Fe  Fe46      1.0  0.49928  0.88535  0.17119  1.0000
  S   S86       1.0  0.48248  0.84556  0.17093  1.0000
  S   S87       1.0  0.48092  0.92357  0.16761  1.0000
  Fe  Fe47      1.0  0.38614  0.71670  0.26616  1.0000
  S   S88       1.0  0.37491  0.73942  0.22049  1.0000
  H   H506      1.0  0.04310  0.98885  0.23658  1.0000
  Fe  Fe48      1.0  0.34184  0.73820  0.31029  1.0000
  S   S89       1.0  0.32760  0.76263  0.26760  1.0000
  S   S90       1.0  0.32749  0.73593  0.36536  1.0000
  Fe  Fe49      1.0  0.33461  0.72869  0.23475  1.0000
  S   S91       1.0  0.30843  0.71375  0.19392  1.0000
  Fe  Fe50      1.0  0.36912  0.77131  0.25693  1.0000
  S   S92       1.0  0.38064  0.81200  0.24753  1.0000
  S   S93       1.0  0.34629  0.70344  0.27795  1.0000
  S   S94       1.0  0.38295  0.74953  0.30204  1.0000
  C   C296      1.0  0.51180  0.98136  0.05697  1.0000
  H   H507      1.0  0.16322  0.70352  0.47367  1.0000
  N   N22       1.0  0.49394  0.70010  0.15864  1.0000
  H   H508      1.0  0.49873  0.76792  0.21347  1.0000
  H   H509      1.0  0.21241  0.68959  0.07841  1.0000
  C   C297      1.0  0.02543  0.78781  0.13938  1.0000
  C   C298      1.0  0.45494  0.83647  0.19417  1.0000
  C   C299      1.0  0.44824  0.81083  0.19554  1.0000
  C   C300      1.0  0.42598  0.80293  0.21272  1.0000
  C   C301      1.0  0.41006  0.82068  0.22838  1.0000
  C   C302      1.0  0.41693  0.84625  0.22735  1.0000
  C   C303      1.0  0.43932  0.85411  0.21049  1.0000
  H   H510      1.0  0.46019  0.79709  0.18293  1.0000
  H   H511      1.0  0.42090  0.78320  0.21329  1.0000
  H   H512      1.0  0.40472  0.86013  0.23928  1.0000
  H   H513      1.0  0.44427  0.87389  0.20958  1.0000
  C   C304      1.0  0.25416  0.76193  0.42118  1.0000
  C   C305      1.0  0.27360  0.74913  0.43834  1.0000
  C   C306      1.0  0.29564  0.74100  0.42069  1.0000
  C   C307      1.0  0.29859  0.74552  0.38570  1.0000
  C   C308      1.0  0.27906  0.75816  0.36847  1.0000
  C   C309      1.0  0.25704  0.76632  0.38614  1.0000
  H   H514      1.0  0.04919  0.00894  0.15020  1.0000
  H   H515      1.0  0.31063  0.73129  0.43431  1.0000
  H   H516      1.0  0.28094  0.76173  0.34158  1.0000
  H   H517      1.0  0.24201  0.77600  0.37253  1.0000
  C   C310      1.0  0.25050  0.76670  0.14424  1.0000
  C   C311      1.0  0.25817  0.77075  0.17782  1.0000
  C   C312      1.0  0.27604  0.75468  0.19327  1.0000
  C   C313      1.0  0.28628  0.73442  0.17518  1.0000
  C   C314      1.0  0.27859  0.73031  0.14160  1.0000
  C   C315      1.0  0.26087  0.74652  0.12606  1.0000
  H   H518      1.0  0.25009  0.78630  0.19201  1.0000
  H   H519      1.0  0.28167  0.75782  0.21927  1.0000
  H   H520      1.0  0.28658  0.71471  0.12743  1.0000
  H   H521      1.0  0.25535  0.74349  0.10000  1.0000
  C   C316      1.0  0.11152  0.83868  0.06438  1.0000
  C   C317      1.0  0.08898  0.85217  0.05755  1.0000
  C   C318      1.0  0.07955  0.87015  0.08067  1.0000
  C   C319      1.0  0.09282  0.87503  0.11067  1.0000
  C   C320      1.0  0.11573  0.86199  0.11705  1.0000
  C   C321      1.0  0.12501  0.84379  0.09410  1.0000
  H   H522      1.0  0.07851  0.84842  0.03451  1.0000
  H   H523      1.0  0.06203  0.88019  0.07532  1.0000
  H   H524      1.0  0.12617  0.86574  0.14014  1.0000
  H   H525      1.0  0.14244  0.83359  0.09959  1.0000
  H   H526      1.0  0.36767  0.82004  0.07956  1.0000
  H   H527      1.0  0.20490  0.70751  0.35806  1.0000
  H   H528      1.0  0.12933  0.72021  0.10897  1.0000
  H   H529      1.0  0.46570  0.74711  0.16845  1.0000
  H   H530      1.0  0.20317  0.69550  0.48582  1.0000
  C   C322      1.0  0.13345  0.68477  0.08310  1.0000
  H   H531      1.0  0.20563  0.71847  0.20169  1.0000
  N   N23       1.0  0.20650  0.69121  0.43103  1.0000
  C   C323      1.0  0.12306  0.70086  0.10765  1.0000
  H   H532      1.0  0.33949  0.81206  0.05684  1.0000
  H   H533      1.0  0.03765  0.98651  0.08225  1.0000
  H   H534      1.0  0.22105  0.72503  0.16358  1.0000
  C   C324      1.0  0.48684  0.99716  0.17362  1.0000
  C   C325      1.0  0.03012  0.81403  0.08739  1.0000
  H   H535      1.0  0.45004  0.73633  0.20597  1.0000
  C   C326      1.0  0.20429  0.71478  0.17402  1.0000
  H   H536      1.0  0.49589  0.73564  0.13198  1.0000
  H   H537      1.0  0.09274  0.90317  0.45209  1.0000
  C   C327      1.0  0.49720  0.99948  0.29080  1.0000
  C   C328      1.0  0.47999  0.71082  0.18899  1.0000
  H   H538      1.0  0.13294  0.88158  0.01590  1.0000
  C   C329      1.0  0.49597  0.99162  0.03159  1.0000
  H   H539      1.0  0.17198  0.72151  0.13838  1.0000
  H   H540      1.0  0.49336  0.72036  0.20656  1.0000
  H   H541      1.0  0.47109  0.69546  0.20401  1.0000
  H   H542      1.0  0.15107  0.68849  0.17129  1.0000
  H   H543      1.0  0.35646  0.78801  0.07882  1.0000
  H   H544      1.0  0.47669  0.98460  0.02883  1.0000
  H   H545      1.0  0.18646  0.72664  0.42480  1.0000
  H   H546      1.0  0.03485  0.81780  0.19532  1.0000
  H   H547      1.0  0.47871  0.00344  0.10923  1.0000
  C   C330      1.0  0.21922  0.69372  0.36737  1.0000
  C   C331      1.0  0.50932  0.98268  0.26849  1.0000
  H   H548      1.0  0.16526  0.85007  0.00695  1.0000
  H   H549      1.0  0.14371  0.71423  0.43988  1.0000
  H   H550      1.0  0.21679  0.71516  0.10707  1.0000
  H   H551      1.0  0.07298  0.78899  0.07159  1.0000
  H   H552      1.0  0.50025  0.81568  0.24882  1.0000
  H   H553      1.0  0.51459  0.97631  0.37417  1.0000
  N   N24       1.0  0.35138  0.81489  0.36388  1.0000
  C   C332      1.0  0.36790  0.81819  0.33271  1.0000
  C   C333      1.0  0.32577  0.80538  0.35196  1.0000
  C   C334      1.0  0.36378  0.79502  0.38575  1.0000
  C   C335      1.0  0.34966  0.83980  0.38219  1.0000
  C   C336      1.0  0.39620  0.82498  0.33879  1.0000
  C   C337      1.0  0.31169  0.82241  0.32637  1.0000
  C   C338      1.0  0.35028  0.78857  0.41935  1.0000
  C   C339      1.0  0.32626  0.84389  0.40575  1.0000
  H   H554      1.0  0.36770  0.80077  0.31706  1.0000
  H   H555      1.0  0.36024  0.83333  0.31601  1.0000
  H   H556      1.0  0.31237  0.80188  0.37316  1.0000
  H   H557      1.0  0.32803  0.78664  0.33965  1.0000
  H   H558      1.0  0.36602  0.77712  0.37122  1.0000
  H   H559      1.0  0.38337  0.80071  0.39328  1.0000
  H   H560      1.0  0.36720  0.84298  0.39753  1.0000
  H   H561      1.0  0.34905  0.85552  0.36344  1.0000
  H   H562      1.0  0.40496  0.83078  0.31428  1.0000
  H   H563      1.0  0.39848  0.84092  0.35662  1.0000
  H   H564      1.0  0.40730  0.80841  0.34762  1.0000
  H   H565      1.0  0.32043  0.82100  0.30074  1.0000
  H   H566      1.0  0.29161  0.81584  0.32393  1.0000
  H   H567      1.0  0.31117  0.84237  0.33442  1.0000
  H   H568      1.0  0.33014  0.78290  0.41595  1.0000
  H   H569      1.0  0.35166  0.80431  0.43770  1.0000
  H   H570      1.0  0.36010  0.77215  0.43102  1.0000
  H   H571      1.0  0.33230  0.85521  0.42799  1.0000
  H   H572      1.0  0.31741  0.82663  0.41601  1.0000
  H   H573      1.0  0.31145  0.85542  0.39284  1.0000
  C   C340      1.0  0.02931  0.99994  0.06488  1.0000
  H   H574      1.0  0.16503  0.72841  0.18235  1.0000
  H   H575      1.0  0.18493  0.74864  0.15689  1.0000
  H   H576      1.0  0.44585  0.99234  0.16298  1.0000
  C   C341      1.0  0.06704  0.80457  0.12316  1.0000
  C   C342      1.0  0.03492  0.83404  0.14369  1.0000
  H   H577      1.0  0.49851  0.99399  0.19652  1.0000
  H   H578      1.0  0.47751  0.99632  0.29809  1.0000
  C   C343      1.0  0.07615  0.78377  0.09849  1.0000
  H   H579      1.0  0.27167  0.74549  0.46522  1.0000
  H   H580      1.0  0.23081  0.71892  0.40688  1.0000
  H   H581      1.0  0.44264  0.72160  0.16681  1.0000
  H   H582      1.0  0.07801  0.82181  0.11675  1.0000
  H   H583      1.0  0.07389  0.79882  0.14871  1.0000
  H   H584      1.0  0.24734  0.68918  0.16052  1.0000
  H   H585      1.0  0.04498  0.97745  0.47990  1.0000
  H   H586      1.0  0.06518  0.83181  0.18248  1.0000
  Fe  Fe51      1.0  0.20332  0.77067  0.00259  1.0000
  H   H587      1.0  0.02790  0.79562  0.07421  1.0000
  C   C344      1.0  0.18249  0.70599  0.42361  1.0000
  H   H588      1.0  0.09715  0.78133  0.10133  1.0000
  H   H589      1.0  0.06728  0.76528  0.10396  1.0000
  H   H590      1.0  0.12342  0.91880  0.45032  1.0000
  S   S95       1.0  0.16184  0.75931  0.00468  1.0000
  H   H591      1.0  0.03479  0.78193  0.16344  1.0000
  S   S96       1.0  0.49205  0.95701  0.25231  1.0000
  H   H592      1.0  0.21930  0.72009  0.46564  1.0000
  S   S97       1.0  0.42279  0.69361  0.26946  1.0000
  H   H593      1.0  0.04498  0.85000  0.13110  1.0000
  C   C345      1.0  0.10470  0.69177  0.13089  1.0000
  H   H594      1.0  0.06612  0.86993  0.47878  1.0000
  C   C346      1.0  0.10422  0.91877  0.46243  1.0000
  N   N25       1.0  0.34338  0.80600  0.14577  1.0000
  C   C347      1.0  0.33224  0.82340  0.17230  1.0000
  C   C348      1.0  0.37211  0.80752  0.14839  1.0000
  C   C349      1.0  0.33497  0.77960  0.15451  1.0000
  C   C350      1.0  0.33340  0.81379  0.11137  1.0000
  C   C351      1.0  0.30302  0.82198  0.17739  1.0000
  C   C352      1.0  0.38344  0.83432  0.14667  1.0000
  C   C353      1.0  0.34541  0.75820  0.13206  1.0000
  C   C354      1.0  0.35045  0.80792  0.08029  1.0000
  H   H595      1.0  0.34114  0.81981  0.19749  1.0000
  H   H596      1.0  0.33650  0.84343  0.16617  1.0000
  H   H597      1.0  0.38178  0.79632  0.12841  1.0000
  H   H598      1.0  0.37866  0.79899  0.17269  1.0000
  H   H599      1.0  0.34001  0.77504  0.18127  1.0000
  H   H600      1.0  0.31385  0.77791  0.15291  1.0000
  H   H601      1.0  0.31439  0.80506  0.10652  1.0000
  H   H602      1.0  0.32977  0.83447  0.11031  1.0000
  H   H603      1.0  0.29786  0.80524  0.19276  1.0000
  H   H604      1.0  0.29645  0.83871  0.19192  1.0000
  H   H605      1.0  0.29240  0.82171  0.15310  1.0000
  H   H606      1.0  0.38057  0.84441  0.17102  1.0000
  H   H607      1.0  0.40445  0.83309  0.14256  1.0000
  H   H608      1.0  0.37514  0.84569  0.12586  1.0000
  H   H609      1.0  0.33612  0.75828  0.10685  1.0000
  H   H610      1.0  0.34025  0.73990  0.14386  1.0000
  H   H611      1.0  0.36648  0.75817  0.12972  1.0000
  Fe  Fe52      1.0  0.51238  0.93467  0.13100  1.0000
  C   C355      1.0  0.21677  0.69928  0.46501  1.0000
  C   C356      1.0  0.45851  0.73004  0.18149  1.0000
  C   C357      1.0  0.17999  0.72867  0.16233  1.0000
  C   C358      1.0  0.22623  0.69857  0.40477  1.0000
  H   H612      1.0  0.09707  0.70422  0.15012  1.0000
  H   H613      1.0  0.25872  0.69660  0.46187  1.0000
  N   N26       1.0  0.03869  0.81014  0.12358  1.0000
  H   H614      1.0  0.04494  0.82452  0.07283  1.0000
  H   H615      1.0  0.18709  0.68049  0.21521  1.0000
  H   H616      1.0  0.49033  0.98005  0.15789  1.0000
  Fe  Fe53      1.0  0.50856  0.93499  0.20829  1.0000
  H   H617      1.0  0.15134  0.89304  0.48659  1.0000
  S   S98       1.0  0.49908  0.95764  0.08458  1.0000
  C   C359      1.0  0.21870  0.69449  0.10446  1.0000
  H   H618      1.0  0.46547  0.70529  0.11926  1.0000
  H   H619      1.0  0.02766  0.77094  0.12294  1.0000
  C   C360      1.0  0.45857  0.99627  0.18479  1.0000
  C   C361      1.0  0.24256  0.68746  0.47540  1.0000
  H   H620      1.0  0.45593  0.98046  0.20294  1.0000
  H   H621      1.0  0.24457  0.68841  0.40900  1.0000
  H   H622      1.0  0.18170  0.68440  0.12228  1.0000
  C   C362      1.0  0.03104  0.99741  0.25565  1.0000
  N   N27       1.0  0.20609  0.68691  0.16696  1.0000
  H   H623      1.0  0.09483  0.93645  0.45382  1.0000
  C   C363      1.0  0.24115  0.68144  0.21276  1.0000
  H   H624      1.0  0.50389  0.00803  0.37537  1.0000
  H   H625      1.0  0.02681  0.00436  0.18375  1.0000
  C   C364      1.0  0.20162  0.68056  0.13018  1.0000
  H   H626      1.0  0.23905  0.68886  0.10621  1.0000
  C   C365      1.0  0.23294  0.67846  0.17541  1.0000
  H   H627      1.0  0.15148  0.85981  0.47829  1.0000
  H   H628      1.0  0.15146  0.68158  0.44210  1.0000
  H   H629      1.0  0.45798  0.68113  0.14891  1.0000
  H   H630      1.0  0.10775  0.86977  0.47636  1.0000
  H   H631      1.0  0.51002  0.99247  0.41431  1.0000
  C   C366      1.0  0.51092  0.67912  0.17132  1.0000
  C   C367      1.0  0.50901  0.72112  0.14247  1.0000
  H   H632      1.0  0.03991  0.94632  0.01479  1.0000
  H   H633      1.0  0.05567  0.90273  0.48238  1.0000
  Fe  Fe54      1.0  0.21842  0.77286  0.57310  1.0000
  S   S99       1.0  0.20488  0.79954  0.53238  1.0000
  S   S100      1.0  0.24419  0.78981  0.61287  1.0000
  Fe  Fe55      1.0  0.18692  0.72944  0.54665  1.0000
  H   H634      1.0  0.50538  0.81400  0.67565  1.0000
  H   H635      1.0  0.06641  0.99643  0.96542  1.0000
  H   H636      1.0  0.12573  0.92788  0.50665  1.0000
  C   C368      1.0  0.44978  0.68181  0.69598  1.0000
  Fe  Fe56      1.0  0.16615  0.78319  0.54354  1.0000
  S   S101      1.0  0.12740  0.80277  0.54418  1.0000
  S   S102      1.0  0.22778  0.74126  0.53692  1.0000
  S   S103      1.0  0.17910  0.75862  0.58648  1.0000
  S   S104      1.0  0.22140  0.78063  0.95106  1.0000
  S   S105      1.0  0.06505  0.94658  0.63876  1.0000
  H   H637      1.0  0.50875  0.82377  0.73724  1.0000
  C   C369      1.0  0.25366  0.70374  0.76456  1.0000
  Fe  Fe57      1.0  0.05819  0.90569  0.65075  1.0000
  S   S106      1.0  0.09267  0.88009  0.65860  1.0000
  S   S107      1.0  0.04385  0.95362  0.54477  1.0000
  H   H638      1.0  0.24856  0.69688  0.84572  1.0000
  H   H639      1.0  0.06967  0.69412  0.64536  1.0000
  Fe  Fe58      1.0  0.49159  0.89484  0.65936  1.0000
  S   S108      1.0  0.47352  0.85577  0.65891  1.0000
  S   S109      1.0  0.47459  0.93345  0.65247  1.0000
  Fe  Fe59      1.0  0.38714  0.72512  0.78167  1.0000
  S   S110      1.0  0.37872  0.74686  0.73410  1.0000
  H   H640      1.0  0.20798  0.87541  0.93145  1.0000
  Fe  Fe60      1.0  0.34153  0.74881  0.82157  1.0000
  S   S111      1.0  0.32986  0.77241  0.77671  1.0000
  S   S112      1.0  0.32116  0.74138  0.87228  1.0000
  Fe  Fe61      1.0  0.33754  0.73804  0.74522  1.0000
  S   S113      1.0  0.31173  0.71988  0.70663  1.0000
  Fe  Fe62      1.0  0.37224  0.77959  0.76933  1.0000
  S   S114      1.0  0.38471  0.81983  0.75841  1.0000
  S   S115      1.0  0.34636  0.71386  0.79006  1.0000
  S   S116      1.0  0.38343  0.75847  0.81667  1.0000
  H   H641      1.0  0.23115  0.85274  0.94473  1.0000
  S   S117      1.0  0.48650  0.96658  0.73923  1.0000
  S   S118      1.0  0.03332  0.99348  0.70169  1.0000
  N   N28       1.0  0.07529  0.73143  0.59202  1.0000
  H   H642      1.0  0.19714  0.82669  0.97227  1.0000
  C   C370      1.0  0.19225  0.83929  0.95069  1.0000
  C   C371      1.0  0.45052  0.84589  0.68922  1.0000
  C   C372      1.0  0.44511  0.82006  0.69260  1.0000
  C   C373      1.0  0.42589  0.81162  0.71501  1.0000
  C   C374      1.0  0.41150  0.82903  0.73368  1.0000
  C   C375      1.0  0.41719  0.85480  0.73064  1.0000
  C   C376      1.0  0.43673  0.86320  0.70875  1.0000
  H   H643      1.0  0.45562  0.80652  0.67755  1.0000
  H   H644      1.0  0.42171  0.79174  0.71710  1.0000
  H   H645      1.0  0.40619  0.86841  0.74499  1.0000
  H   H646      1.0  0.44069  0.88312  0.70638  1.0000
  C   C377      1.0  0.24982  0.76996  0.93048  1.0000
  C   C378      1.0  0.25831  0.78262  0.90113  1.0000
  C   C379      1.0  0.28037  0.77457  0.88342  1.0000
  C   C380      1.0  0.29401  0.75343  0.89451  1.0000
  C   C381      1.0  0.28556  0.74086  0.92393  1.0000
  C   C382      1.0  0.26369  0.74908  0.94188  1.0000
  H   H647      1.0  0.24787  0.79890  0.89218  1.0000
  H   H648      1.0  0.28691  0.78479  0.86136  1.0000
  H   H649      1.0  0.29599  0.72454  0.93286  1.0000
  H   H650      1.0  0.25743  0.73911  0.96433  1.0000
  C   C383      1.0  0.26155  0.76971  0.63969  1.0000
  C   C384      1.0  0.27396  0.78000  0.66787  1.0000
  C   C385      1.0  0.28962  0.76491  0.68841  1.0000
  C   C386      1.0  0.29247  0.73931  0.68121  1.0000
  C   C387      1.0  0.27944  0.72881  0.65363  1.0000
  C   C388      1.0  0.26405  0.74400  0.63280  1.0000
  H   H651      1.0  0.27163  0.79981  0.67348  1.0000
  H   H652      1.0  0.29940  0.77306  0.70982  1.0000
  H   H653      1.0  0.28143  0.70895  0.64812  1.0000
  H   H654      1.0  0.25439  0.73593  0.61118  1.0000
  C   C389      1.0  0.11764  0.82227  0.57821  1.0000
  C   C390      1.0  0.09215  0.83056  0.57962  1.0000
  C   C391      1.0  0.08411  0.84781  0.60458  1.0000
  C   C392      1.0  0.10150  0.85688  0.62848  1.0000
  C   C393      1.0  0.12676  0.84778  0.62789  1.0000
  C   C394      1.0  0.13485  0.83060  0.60280  1.0000
  H   H655      1.0  0.07864  0.82395  0.56095  1.0000
  H   H656      1.0  0.06449  0.85421  0.60524  1.0000
  H   H657      1.0  0.14029  0.85451  0.64646  1.0000
  H   H658      1.0  0.15451  0.82426  0.60210  1.0000
  C   C395      1.0  0.14532  0.87449  0.49665  1.0000
  H   H659      1.0  0.05862  0.74332  0.52471  1.0000
  H   H660      1.0  0.44925  0.69011  0.67094  1.0000
  H   H661      1.0  0.21976  0.73096  0.85596  1.0000
  C   C396      1.0  0.05839  0.69121  0.62195  1.0000
  C   C397      1.0  0.27145  0.72346  0.81467  1.0000
  H   H662      1.0  0.23562  0.75846  0.83920  1.0000
  H   H663      1.0  0.19635  0.82820  0.92737  1.0000
  N   N29       1.0  0.25188  0.72673  0.78703  1.0000
  H   H664      1.0  0.20243  0.75384  0.83302  1.0000
  H   H665      1.0  0.12927  0.88813  0.97188  1.0000
  C   C398      1.0  0.12978  0.86398  0.91054  1.0000
  H   H666      1.0  0.24567  0.69073  0.50290  1.0000
  C   C399      1.0  0.05899  0.88477  0.49610  1.0000
  H   H667      1.0  0.13020  0.72831  0.56400  1.0000
  H   H668      1.0  0.05946  0.95110  0.97831  1.0000
  C   C400      1.0  0.03369  0.00271  0.74527  1.0000
  H   H669      1.0  0.12511  0.88377  0.90372  1.0000
  H   H670      1.0  0.27518  0.68264  0.82321  1.0000
  S   S119      1.0  0.17153  0.75306  0.50429  1.0000
  C   C401      1.0  0.10883  0.76006  0.62201  1.0000
  H   H671      1.0  0.08087  0.76898  0.57053  1.0000
  C   C402      1.0  0.10663  0.91947  0.50152  1.0000
  C   C403      1.0  0.21204  0.86082  0.95079  1.0000
  H   H672      1.0  0.09750  0.77770  0.62427  1.0000
  H   H673      1.0  0.10872  0.74886  0.54104  1.0000
  H   H674      1.0  0.04010  0.68226  0.62982  1.0000
  H   H675      1.0  0.09241  0.93338  0.51125  1.0000
  H   H676      1.0  0.27222  0.77569  0.80521  1.0000
  S   S120      1.0  0.17301  0.68904  0.54490  1.0000
  H   H677      1.0  0.02998  0.74413  0.55096  1.0000
  C   C404      1.0  0.09136  0.73665  0.62304  1.0000
  C   C405      1.0  0.09012  0.71612  0.56645  1.0000
  H   H678      1.0  0.21695  0.70989  0.80557  1.0000
  H   H679      1.0  0.27383  0.70040  0.75641  1.0000
  H   H680      1.0  0.23730  0.68504  0.72061  1.0000
  H   H681      1.0  0.42541  0.71032  0.71829  1.0000
  C   C406      1.0  0.36419  0.69404  0.65681  1.0000
  H   H682      1.0  0.48093  0.98945  0.80429  1.0000
  H   H683      1.0  0.13422  0.68364  0.65870  1.0000
  N   N30       1.0  0.10400  0.89473  0.52015  1.0000
  C   C407      1.0  0.11738  0.89700  0.55392  1.0000
  H   H684      1.0  0.28068  0.70157  0.85969  1.0000
  C   C408      1.0  0.07627  0.88882  0.52708  1.0000
  H   H685      1.0  0.04398  0.77253  0.53590  1.0000
  C   C409      1.0  0.10557  0.91565  0.57948  1.0000
  C   C410      1.0  0.25908  0.77505  0.78333  1.0000
  H   H686      1.0  0.15555  0.87043  0.52068  1.0000
  H   H687      1.0  0.04001  0.87830  0.50516  1.0000
  H   H688      1.0  0.11848  0.87838  0.56674  1.0000
  H   H689      1.0  0.13758  0.90304  0.55051  1.0000
  C   C411      1.0  0.02970  0.98595  0.49451  1.0000
  C   C412      1.0  0.06077  0.00065  0.93896  1.0000
  H   H690      1.0  0.07466  0.87173  0.54319  1.0000
  C   C413      1.0  0.04854  0.75334  0.54546  1.0000
  H   H691      1.0  0.21695  0.70908  0.73742  1.0000
  Fe  Fe63      1.0  0.50173  0.94522  0.69375  1.0000
  H   H692      1.0  0.11894  0.91824  0.60103  1.0000
  H   H693      1.0  0.10184  0.93443  0.56823  1.0000
  H   H694      1.0  0.08773  0.90798  0.59061  1.0000
  H   H695      1.0  0.27181  0.73966  0.83210  1.0000
  C   C414      1.0  0.02489  0.97776  0.52767  1.0000
  H   H696      1.0  0.16527  0.88199  0.92448  1.0000
  H   H697      1.0  0.03968  0.72737  0.61995  1.0000
  C   C415      1.0  0.25897  0.74924  0.76567  1.0000
  C   C416      1.0  0.43609  0.68219  0.75489  1.0000
  H   H698      1.0  0.17335  0.87834  0.98525  1.0000
  C   C417      1.0  0.26845  0.69969  0.83684  1.0000
  C   C418      1.0  0.05243  0.71605  0.60310  1.0000
  H   H699      1.0  0.03252  0.92948  0.97713  1.0000
  H   H700      1.0  0.24566  0.75156  0.74398  1.0000
  H   H701      1.0  0.23952  0.78096  0.79076  1.0000
  H   H702      1.0  0.07743  0.70780  0.54683  1.0000
  N   N31       1.0  0.34539  0.82358  0.65767  1.0000
  C   C419      1.0  0.33306  0.82257  0.69230  1.0000
  C   C420      1.0  0.33900  0.79962  0.63898  1.0000
  C   C421      1.0  0.33575  0.84568  0.63744  1.0000
  C   C422      1.0  0.37380  0.82631  0.66229  1.0000
  C   C423      1.0  0.33310  0.84733  0.71284  1.0000
  C   C424      1.0  0.35162  0.77540  0.65261  1.0000
  C   C425      1.0  0.30655  0.84645  0.63173  1.0000
  C   C426      1.0  0.39013  0.82728  0.62960  1.0000
  H   H703      1.0  0.31287  0.81633  0.69063  1.0000
  H   H704      1.0  0.34265  0.80824  0.70851  1.0000
  H   H705      1.0  0.34358  0.80110  0.61152  1.0000
  H   H706      1.0  0.31807  0.79620  0.63947  1.0000
  H   H707      1.0  0.34165  0.86378  0.64927  1.0000
  H   H708      1.0  0.34469  0.84593  0.61179  1.0000
  H   H709      1.0  0.37832  0.84397  0.67610  1.0000
  H   H710      1.0  0.38152  0.81136  0.67915  1.0000
  H   H711      1.0  0.35259  0.85481  0.71693  1.0000
  H   H712      1.0  0.32095  0.86206  0.70114  1.0000
  H   H713      1.0  0.32505  0.84350  0.73843  1.0000
  H   H714      1.0  0.37263  0.77548  0.64868  1.0000
  H   H715      1.0  0.34718  0.77226  0.67975  1.0000
  H   H716      1.0  0.34392  0.75894  0.63860  1.0000
  H   H717      1.0  0.29554  0.84637  0.65576  1.0000
  H   H718      1.0  0.30001  0.83064  0.61555  1.0000
  H   H719      1.0  0.30155  0.86412  0.61818  1.0000
  H   H720      1.0  0.39303  0.84709  0.62133  1.0000
  H   H721      1.0  0.38200  0.81651  0.60830  1.0000
  H   H722      1.0  0.40914  0.81871  0.63463  1.0000
  C   C427      1.0  0.50390  0.99081  0.75888  1.0000
  C   C428      1.0  0.22113  0.74392  0.83391  1.0000
  H   H723      1.0  0.16260  0.70295  0.61520  1.0000
  C   C429      1.0  0.11612  0.87283  0.50171  1.0000
  H   H724      1.0  0.21221  0.73761  0.78102  1.0000
  C   C430      1.0  0.50028  0.99150  0.50931  1.0000
  H   H725      1.0  0.16876  0.85480  0.89878  1.0000
  C   C431      1.0  0.14919  0.82279  0.95456  1.0000
  C   C432      1.0  0.04445  0.97951  0.92326  1.0000
  H   H726      1.0  0.13685  0.78984  0.92640  1.0000
  H   H727      1.0  0.24517  0.71700  0.71269  1.0000
  C   C433      1.0  0.15824  0.86236  0.92121  1.0000
  H   H728      1.0  0.06694  0.90421  0.54163  1.0000
  H   H729      1.0  0.04051  0.71053  0.58102  1.0000
  C   C434      1.0  0.06526  0.75580  0.57740  1.0000
  C   C435      1.0  0.15163  0.80476  0.92407  1.0000
  H   H730      1.0  0.29110  0.72299  0.80371  1.0000
  S   S121      1.0  0.41696  0.69425  0.78822  1.0000
  H   H731      1.0  0.15508  0.81188  0.97737  1.0000
  C   C436      1.0  0.22490  0.72900  0.80049  1.0000
  H   H732      1.0  0.07862  0.00274  0.92390  1.0000
  Fe  Fe64      1.0  0.03558  0.94121  0.59848  1.0000
  H   H733      1.0  0.27832  0.74644  0.75452  1.0000
  H   H734      1.0  0.34608  0.68800  0.64492  1.0000
  H   H735      1.0  0.26610  0.78938  0.76500  1.0000
  H   H736      1.0  0.07898  0.73936  0.64582  1.0000
  H   H737      1.0  0.12645  0.85281  0.88716  1.0000
  S   S122      1.0  0.03101  0.89983  0.60774  1.0000
  Fe  Fe65      1.0  0.03222  0.95535  0.67404  1.0000
  H   H738      1.0  0.12856  0.82623  0.95872  1.0000
  H   H739      1.0  0.24784  0.68650  0.77864  1.0000
  C   C437      1.0  0.16043  0.86181  0.98435  1.0000
  H   H740      1.0  0.12078  0.76106  0.59895  1.0000
  Fe  Fe66      1.0  0.21175  0.76693  0.49681  1.0000
  H   H741      1.0  0.12201  0.75953  0.64403  1.0000
  H   H742      1.0  0.14876  0.81433  0.89945  1.0000
  S   S123      1.0  0.02753  0.91458  0.68961  1.0000
  C   C438      1.0  0.15062  0.68714  0.60860  1.0000
  H   H743      1.0  0.11229  0.85490  0.51559  1.0000
  H   H744      1.0  0.10375  0.72019  0.62908  1.0000
  H   H745      1.0  0.05386  0.76613  0.59689  1.0000
  H   H746      1.0  0.05604  0.96194  0.92304  1.0000
  Fe  Fe67      1.0  0.50744  0.94200  0.61674  1.0000
  C   C439      1.0  0.43619  0.69324  0.72272  1.0000
  H   H747      1.0  0.09860  0.69924  0.57878  1.0000
  N   N32       1.0  0.16441  0.84686  0.95223  1.0000
  H   H748      1.0  0.11574  0.85823  0.92996  1.0000
  C   C440      1.0  0.51051  0.98590  0.54150  1.0000
  C   C441      1.0  0.13457  0.67615  0.63321  1.0000
  H   H749      1.0  0.11655  0.71933  0.52405  1.0000
  S   S124      1.0  0.49835  0.95945  0.56446  1.0000
  H   H750      1.0  0.17035  0.79492  0.92401  1.0000
  C   C442      1.0  0.23716  0.70412  0.73215  1.0000
  C   C443      1.0  0.11264  0.72916  0.54836  1.0000
  H   H751      1.0  0.51034  0.76826  0.65216  1.0000
  H   H752      1.0  0.21384  0.86949  0.97624  1.0000
  H   H753      1.0  0.37359  0.70679  0.63827  1.0000
  C   C444      1.0  0.03950  0.94783  0.98667  1.0000
  C   C445      1.0  0.49680  0.99854  0.79159  1.0000
  H   H754      1.0  0.04212  0.98436  0.89601  1.0000
  H   H755      1.0  0.36066  0.70553  0.67974  1.0000
  H   H756      1.0  0.48536  0.97964  0.49919  1.0000
  H   H757      1.0  0.02859  0.98665  0.99067  1.0000
  H   H758      1.0  0.38400  0.67880  0.72992  1.0000
  H   H759      1.0  0.40086  0.67994  0.67101  1.0000
  H   H760      1.0  0.35125  0.67882  0.72111  1.0000
  C   C446      1.0  0.15180  0.67701  0.57591  1.0000
  H   H761      1.0  0.06826  0.67741  0.60538  1.0000
  C   C447      1.0  0.03346  0.98524  0.77187  1.0000
  H   H762      1.0  0.03308  0.96532  0.76619  1.0000
  C   C448      1.0  0.02157  0.96977  0.97700  1.0000
  C   C449      1.0  0.03377  0.99357  0.80589  1.0000
  N   N33       1.0  0.01879  0.97526  0.93968  1.0000
  H   H763      1.0  0.03371  0.97984  0.82609  1.0000
  H   H764      1.0  0.01680  0.94743  0.86929  1.0000
  H   H765      1.0  0.01853  0.93601  0.92517  1.0000
  C   C450      1.0  0.13357  0.87291  0.99026  1.0000
  H   H766      1.0  0.11832  0.85853  0.98995  1.0000
  H   H767      1.0  0.07858  0.00894  0.51967  1.0000
  C   C451      1.0  0.99371  0.01403  0.03070  1.0000
  S   S125      1.0  0.88950  0.26465  0.04446  1.0000
  H   H768      1.0  0.94486  0.11400  0.45543  1.0000
  H   H769      1.0  0.56833  0.10728  0.06933  1.0000
  S   S126      1.0  0.84411  0.22959  0.01455  1.0000
  S   S127      1.0  0.80871  0.23279  0.43807  1.0000
  Fe  Fe68      1.0  0.84663  0.26726  0.04032  1.0000
  S   S128      1.0  0.82169  0.28478  0.08230  1.0000
  C   C452      1.0  0.81341  0.25576  0.21932  1.0000
  H   H770      1.0  0.97046  0.26376  0.38959  1.0000
  C   C453      1.0  0.77558  0.31015  0.01730  1.0000
  S   S129      1.0  0.87742  0.25400  0.46689  1.0000
  Fe  Fe69      1.0  0.99269  0.11518  0.40732  1.0000
  S   S130      1.0  0.96481  0.14765  0.39900  1.0000
  S   S131      1.0  0.98333  0.07522  0.39231  1.0000
  Fe  Fe70      1.0  0.67504  0.23493  0.28117  1.0000
  S   S132      1.0  0.66720  0.25337  0.23106  1.0000
  S   S133      1.0  0.65681  0.19634  0.28774  1.0000
  Fe  Fe71      1.0  0.71216  0.27673  0.30084  1.0000
  S   S134      1.0  0.70658  0.29802  0.25193  1.0000
  S   S135      1.0  0.73881  0.29563  0.33799  1.0000
  Fe  Fe72      1.0  0.66490  0.28947  0.26084  1.0000
  S   S136      1.0  0.63047  0.31515  0.25337  1.0000
  Fe  Fe73      1.0  0.70966  0.26001  0.22680  1.0000
  S   S137      1.0  0.73203  0.24593  0.18008  1.0000
  S   S138      1.0  0.67026  0.27060  0.31125  1.0000
  S   S139      1.0  0.71766  0.23927  0.27554  1.0000
  Fe  Fe74      1.0  0.55242  0.12219  0.38990  1.0000
  C   C454      1.0  0.52225  0.01741  0.14321  1.0000
  S   S140      1.0  0.57396  0.15918  0.39513  1.0000
  H   H771      1.0  0.60234  0.28527  0.31957  1.0000
  H   H772      1.0  0.62381  0.29783  0.35119  1.0000
  Fe  Fe75      1.0  0.53799  0.07411  0.35272  1.0000
  S   S141      1.0  0.55281  0.05091  0.30888  1.0000
  S   S142      1.0  0.56630  0.08222  0.39415  1.0000
  H   H773      1.0  0.90543  0.08402  0.41381  1.0000
  C   C455      1.0  0.63391  0.18658  0.31811  1.0000
  C   C456      1.0  0.62106  0.16368  0.31297  1.0000
  C   C457      1.0  0.60279  0.15497  0.33646  1.0000
  C   C458      1.0  0.59740  0.16901  0.36555  1.0000
  C   C459      1.0  0.61031  0.19189  0.37084  1.0000
  C   C460      1.0  0.62845  0.20072  0.34715  1.0000
  H   H774      1.0  0.62532  0.15256  0.29068  1.0000
  H   H775      1.0  0.59303  0.13732  0.33214  1.0000
  H   H776      1.0  0.60630  0.20278  0.39339  1.0000
  H   H777      1.0  0.63843  0.21823  0.35150  1.0000
  C   C461      1.0  0.64132  0.12036  0.02602  1.0000
  N   N34       1.0  0.80288  0.25829  0.25485  1.0000
  C   C462      1.0  0.55823  0.31399  0.33406  1.0000
  H   H778      1.0  0.00054  0.29222  0.39979  1.0000
  H   H779      1.0  0.59258  0.28534  0.39729  1.0000
  C   C463      1.0  0.55232  0.31497  0.39682  1.0000
  C   C464      1.0  0.58959  0.33480  0.37017  1.0000
  H   H780      1.0  0.94632  0.28380  0.40644  1.0000
  H   H781      1.0  0.57263  0.31460  0.31323  1.0000
  H   H782      1.0  0.58377  0.23238  0.33339  1.0000
  H   H783      1.0  0.93289  0.10046  0.39908  1.0000
  H   H784      1.0  0.75735  0.23703  0.46325  1.0000
  C   C465      1.0  0.53565  0.02486  0.29362  1.0000
  S   S143      1.0  0.52656  0.11466  0.34584  1.0000
  H   H785      1.0  0.61344  0.16766  0.01435  1.0000
  H   H786      1.0  0.99217  0.28414  0.47604  1.0000
  H   H787      1.0  0.56569  0.23562  0.29571  1.0000
  H   H788      1.0  0.92709  0.25046  0.37402  1.0000
  H   H789      1.0  0.56172  0.31074  0.42146  1.0000
  C   C466      1.0  0.79740  0.27328  0.10999  1.0000
  C   C467      1.0  0.79002  0.24798  0.11063  1.0000
  C   C468      1.0  0.76999  0.24006  0.13221  1.0000
  C   C469      1.0  0.75734  0.25716  0.15383  1.0000
  C   C470      1.0  0.76492  0.28240  0.15349  1.0000
  C   C471      1.0  0.78471  0.29039  0.13155  1.0000
  H   H790      1.0  0.79965  0.23455  0.09441  1.0000
  H   H791      1.0  0.76430  0.22048  0.13227  1.0000
  H   H792      1.0  0.75530  0.29583  0.16974  1.0000
  H   H793      1.0  0.79019  0.31003  0.13121  1.0000
  C   C472      1.0  0.78976  0.25064  0.41011  1.0000
  C   C473      1.0  0.79051  0.27694  0.40994  1.0000
  C   C474      1.0  0.77447  0.29053  0.38800  1.0000
  C   C475      1.0  0.75770  0.27791  0.36611  1.0000
  C   C476      1.0  0.75700  0.25162  0.36625  1.0000
  C   C477      1.0  0.77299  0.23804  0.38824  1.0000
  H   H794      1.0  0.80346  0.28678  0.42661  1.0000
  H   H795      1.0  0.77518  0.31089  0.38775  1.0000
  H   H796      1.0  0.74416  0.24176  0.34942  1.0000
  H   H797      1.0  0.77229  0.21767  0.38839  1.0000
  C   C478      1.0  0.93514  0.24512  0.39905  1.0000
  C   C479      1.0  0.91709  0.19114  0.45581  1.0000
  C   C480      1.0  0.92869  0.17817  0.42867  1.0000
  C   C481      1.0  0.95144  0.16455  0.43344  1.0000
  H   H798      1.0  0.57964  0.07768  0.01936  1.0000
  C   C482      1.0  0.77905  0.21640  0.24385  1.0000
  H   H799      1.0  0.89925  0.20105  0.45197  1.0000
  H   H800      1.0  0.91974  0.17833  0.40398  1.0000
  H   H801      1.0  0.71396  0.24026  0.43625  1.0000
  N   N35       1.0  0.59401  0.11492  0.00681  1.0000
  S   S144      1.0  0.90946  0.19298  0.02585  1.0000
  C   C483      1.0  0.60806  0.28432  0.34658  1.0000
  H   H802      1.0  0.77162  0.19984  0.25800  1.0000
  H   H803      1.0  0.76560  0.26810  0.27585  1.0000
  H   H804      1.0  0.83262  0.27456  0.17772  1.0000
  Fe  Fe76      1.0  0.88724  0.22893  0.01408  1.0000
  H   H805      1.0  0.79848  0.24880  0.20161  1.0000
  H   H806      1.0  0.75512  0.22565  0.04337  1.0000
  C   C484      1.0  0.00682  0.28650  0.42552  1.0000
  H   H807      1.0  0.99625  0.05758  0.09120  1.0000
  H   H808      1.0  0.78735  0.30748  0.28658  1.0000
  H   H809      1.0  0.59519  0.01298  0.41742  1.0000
  H   H810      1.0  0.95691  0.05827  0.15032  1.0000
  Fe  Fe77      1.0  0.99855  0.06482  0.44365  1.0000
  H   H811      1.0  0.94370  0.22613  0.39593  1.0000
  H   H812      1.0  0.52823  0.03300  0.12622  1.0000
  H   H813      1.0  0.53408  0.16688  0.25448  1.0000
  H   H814      1.0  0.78640  0.23288  0.29226  1.0000
  C   C485      1.0  0.82342  0.26853  0.27772  1.0000
  H   H815      1.0  0.96632  0.22128  0.44339  1.0000
  C   C486      1.0  0.54544  0.01007  0.03830  1.0000
  H   H816      1.0  0.81409  0.22084  0.27154  1.0000
  H   H817      1.0  0.57998  0.20552  0.30758  1.0000
  C   C487      1.0  0.62496  0.34130  0.28006  1.0000
  C   C488      1.0  0.73321  0.27705  0.06121  1.0000
  C   C489      1.0  0.97709  0.05701  0.14144  1.0000
  H   H818      1.0  0.93020  0.33668  0.37900  1.0000
  C   C490      1.0  0.99525  0.23095  0.47838  1.0000
  C   C491      1.0  0.78188  0.30282  0.26019  1.0000
  C   C492      1.0  0.98610  0.03692  0.19599  1.0000
  H   H819      1.0  0.93614  0.14547  0.02480  1.0000
  S   S145      1.0  0.84825  0.28927  0.99124  1.0000
  H   H820      1.0  0.54726  0.29637  0.32953  1.0000
  C   C493      1.0  0.53988  0.33655  0.32825  1.0000
  H   H821      1.0  0.79541  0.30275  0.01609  1.0000
  H   H822      1.0  0.01007  0.21661  0.47244  1.0000
  C   C494      1.0  0.77879  0.27413  0.25518  1.0000
  C   C495      1.0  0.59575  0.01579  0.36395  1.0000
  C   C496      1.0  0.00058  0.01943  0.30644  1.0000
  H   H823      1.0  0.82900  0.24141  0.21871  1.0000
  C   C497      1.0  0.75801  0.29624  0.99217  1.0000
  C   C498      1.0  0.93112  0.09815  0.45411  1.0000
  H   H824      1.0  0.53069  0.22243  0.27182  1.0000
  H   H825      1.0  0.85646  0.17588  0.99575  1.0000
  H   H826      1.0  0.61623  0.26524  0.35075  1.0000
  H   H827      1.0  0.72887  0.29743  0.06391  1.0000
  H   H828      1.0  0.74186  0.29268  0.48369  1.0000
  H   H829      1.0  0.83064  0.28013  0.32997  1.0000
  H   H830      1.0  0.54442  0.03552  0.18379  1.0000
  H   H831      1.0  0.98066  0.15460  0.46932  1.0000
  H   H832      1.0  0.76877  0.30946  0.04379  1.0000
  C   C499      1.0  0.54621  0.21565  0.33813  1.0000
  H   H833      1.0  0.99408  0.07733  0.20453  1.0000
  H   H834      1.0  0.79758  0.27442  0.32134  1.0000
  C   C500      1.0  0.82408  0.27975  0.20261  1.0000
  H   H835      1.0  0.78979  0.20904  0.22164  1.0000
  H   H836      1.0  0.53459  0.27724  0.39350  1.0000
  H   H837      1.0  0.54506  0.33455  0.39972  1.0000
  C   C501      1.0  0.92247  0.33152  0.46455  1.0000
  H   H838      1.0  0.78266  0.26439  0.03584  1.0000
  H   H839      1.0  0.80867  0.29334  0.19678  1.0000
  H   H840      1.0  0.91888  0.24417  0.41701  1.0000
  H   H841      1.0  0.55638  0.19150  0.26516  1.0000
  H   H842      1.0  0.84161  0.25789  0.27401  1.0000
  S   S146      1.0  0.52191  0.11572  0.42906  1.0000
  H   H843      1.0  0.96664  0.03997  0.09205  1.0000
  S   S147      1.0  0.97691  0.04096  0.48151  1.0000
  N   N36       1.0  0.91353  0.09829  0.48446  1.0000
  H   H844      1.0  0.94325  0.08093  0.45382  1.0000
  C   C502      1.0  0.54265  0.01693  0.17122  1.0000
  H   H845      1.0  0.54437  0.16745  0.32833  1.0000
  C   C503      1.0  0.97677  0.05662  0.10227  1.0000
  H   H846      1.0  0.00014  0.04751  0.00077  1.0000
  C   C504      1.0  0.94145  0.15560  0.00205  1.0000
  H   H847      1.0  0.54328  0.11966  0.04203  1.0000
  C   C505      1.0  0.95531  0.26486  0.40937  1.0000
  C   C506      1.0  0.91801  0.10028  0.41920  1.0000
  C   C507      1.0  0.81721  0.26777  0.31599  1.0000
  H   H848      1.0  0.52107  0.19646  0.39481  1.0000
  H   H849      1.0  0.62418  0.07266  0.99351  1.0000
  H   H850      1.0  0.65029  0.10526  0.01062  1.0000
  C   C508      1.0  0.56992  0.22254  0.31685  1.0000
  N   N37       1.0  0.75109  0.26927  0.00033  1.0000
  H   H851      1.0  0.76239  0.22732  0.23487  1.0000
  H   H852      1.0  0.54492  0.02330  0.39803  1.0000
  H   H853      1.0  0.90041  0.31873  0.42199  1.0000
  H   H854      1.0  0.75263  0.27334  0.07062  1.0000
  H   H855      1.0  0.56230  0.15992  0.27731  1.0000
  H   H856      1.0  0.83947  0.28873  0.21749  1.0000
  H   H857      1.0  0.81946  0.24846  0.32644  1.0000
  H   H858      1.0  0.55351  0.20364  0.35909  1.0000
  C   C509      1.0  0.57238  0.09714  0.01512  1.0000
  H   H859      1.0  0.76768  0.27131  0.23144  1.0000
  C   C510      1.0  0.79637  0.23211  0.26725  1.0000
  H   H860      1.0  0.58554  0.03406  0.36582  1.0000
  H   H861      1.0  0.88690  0.03815  0.47340  1.0000
  H   H862      1.0  0.60751  0.12702  0.05607  1.0000
  C   C511      1.0  0.72873  0.26811  0.02453  1.0000
  C   C512      1.0  0.77425  0.25529  0.01327  1.0000
  C   C513      1.0  0.91769  0.32813  0.43000  1.0000
  S   S148      1.0  0.92297  0.31352  0.99266  1.0000
  N   N38       1.0  0.52461  0.20277  0.31986  1.0000
  H   H863      1.0  0.72052  0.26640  0.07873  1.0000
  H   H864      1.0  0.71264  0.27981  0.01496  1.0000
  H   H865      1.0  0.82818  0.28834  0.27140  1.0000
  H   H866      1.0  0.76311  0.31208  0.25587  1.0000
  H   H867      1.0  0.56152  0.01276  0.15949  1.0000
  N   N39       1.0  0.57129  0.31303  0.36807  1.0000
  H   H868      1.0  0.79562  0.31158  0.24254  1.0000
  H   H869      1.0  0.99334  0.05826  0.24190  1.0000
  C   C514      1.0  0.90344  0.05115  0.47525  1.0000
  H   H870      1.0  0.54389  0.08715  0.05290  1.0000
  H   H871      1.0  0.61393  0.09503  0.04714  1.0000
  H   H872      1.0  0.93527  0.24389  0.47154  1.0000
  C   C515      1.0  0.52898  0.29735  0.39465  1.0000
  C   C516      1.0  0.92823  0.19064  0.48800  1.0000
  C   C517      1.0  0.98130  0.01043  0.14560  1.0000
  H   H873      1.0  0.72041  0.24884  0.02571  1.0000
  H   H874      1.0  0.00590  0.24716  0.48864  1.0000
  H   H875      1.0  0.61642  0.02025  0.36179  1.0000
  C   C518      1.0  0.74029  0.24202  0.47876  1.0000
  C   C519      1.0  0.61331  0.11406  0.03521  1.0000
  H   H876      1.0  0.94071  0.02033  0.13614  1.0000
  H   H877      1.0  0.78987  0.25575  0.99395  1.0000
  C   C520      1.0  0.72092  0.25456  0.45457  1.0000
  H   H878      1.0  0.77666  0.33032  0.01000  1.0000
  H   H879      1.0  0.87961  0.08276  0.46089  1.0000
  H   H880      1.0  0.70405  0.26220  0.46816  1.0000
  C   C521      1.0  0.00835  0.03425  0.01851  1.0000
  H   H881      1.0  0.55890  0.09588  0.99336  1.0000
  H   H882      1.0  0.56473  0.01704  0.04101  1.0000
  C   C522      1.0  0.60588  0.33625  0.40258  1.0000
  N   N40       1.0  0.99090  0.03543  0.15832  1.0000
  H   H883      1.0  0.96530  0.03880  0.20145  1.0000
  H   H884      1.0  0.65262  0.12176  0.04974  1.0000
  C   C523      1.0  0.96287  0.16455  0.46545  1.0000
  C   C524      1.0  0.52965  0.02021  0.01277  1.0000
  C   C525      1.0  0.98022  0.23700  0.44588  1.0000
  S   S149      1.0  0.00462  0.10470  0.45963  1.0000
  N   N41       1.0  0.96647  0.26197  0.44444  1.0000
  C   C526      1.0  0.99941  0.05865  0.21485  1.0000
  H   H885      1.0  0.73011  0.26953  0.43909  1.0000
  H   H886      1.0  0.57205  0.27226  0.36665  1.0000
  Fe  Fe78      1.0  0.89109  0.28435  0.99390  1.0000
  H   H887      1.0  0.53928  0.23334  0.35027  1.0000
  C   C527      1.0  0.93183  0.18003  0.99668  1.0000
  Fe  Fe79      1.0  0.53328  0.07477  0.42962  1.0000
  C   C528      1.0  0.76983  0.22755  0.02324  1.0000
  C   C529      1.0  0.58529  0.28825  0.37109  1.0000
  H   H888      1.0  0.90714  0.11808  0.41639  1.0000
  Fe  Fe80      1.0  0.83519  0.25030  0.47652  1.0000
  H   H889      1.0  0.98865  0.02779  0.32585  1.0000
  C   C530      1.0  0.55631  0.10353  0.04683  1.0000
  H   H890      1.0  0.98577  0.07531  0.14879  1.0000
  H   H891      1.0  0.99306  0.23418  0.42364  1.0000
  H   H892      1.0  0.60289  0.33458  0.34829  1.0000
  C   C531      1.0  0.54694  0.17427  0.27447  1.0000
  H   H893      1.0  0.91467  0.13904  0.48464  1.0000
  H   H894      1.0  0.96628  0.07348  0.09301  1.0000
  H   H895      1.0  0.97294  0.30195  0.44853  1.0000
  S   S150      1.0  0.54102  0.05386  0.47964  1.0000
  C   C532      1.0  0.94464  0.26264  0.46967  1.0000
  H   H896      1.0  0.66181  0.34032  0.30414  1.0000
  C   C533      1.0  0.98402  0.28407  0.45017  1.0000
  H   H897      1.0  0.64348  0.13844  0.01248  1.0000
  H   H898      1.0  0.77323  0.28007  0.47924  1.0000
  H   H899      1.0  0.57374  0.14725  0.02739  1.0000
  H   H900      1.0  0.91426  0.04942  0.45115  1.0000
  H   H901      1.0  0.99169  0.01916  0.20876  1.0000
  H   H902      1.0  0.92946  0.27592  0.46107  1.0000
  C   C534      1.0  0.58258  0.14090  0.00320  1.0000
  H   H903      1.0  0.78786  0.21979  0.03380  1.0000
  H   H904      1.0  0.61825  0.31947  0.40588  1.0000
  H   H905      1.0  0.88763  0.12651  0.46435  1.0000
  C   C535      1.0  0.89340  0.07816  0.48143  1.0000
  H   H906      1.0  0.59393  0.33927  0.42547  1.0000
  C   C536      1.0  0.93449  0.33848  0.40570  1.0000
  C   C537      1.0  0.53238  0.17666  0.30857  1.0000
  H   H907      1.0  0.73167  0.22369  0.48626  1.0000
  H   H908      1.0  0.76496  0.21571  0.00108  1.0000
  H   H909      1.0  0.97424  0.01168  0.02215  1.0000
  C   C538      1.0  0.60088  0.16230  0.99299  1.0000
  C   C539      1.0  0.51565  0.21932  0.29112  1.0000
  C   C540      1.0  0.90049  0.12359  0.48639  1.0000
  H   H910      1.0  0.51996  0.32983  0.32483  1.0000
  H   H911      1.0  0.56749  0.01113  0.26411  1.0000
  H   H912      1.0  0.51621  0.16689  0.37289  1.0000
  H   H913      1.0  0.51710  0.29990  0.41780  1.0000
  H   H914      1.0  0.51650  0.30209  0.37291  1.0000
  H   H915      1.0  0.62174  0.11840  0.96565  1.0000
  S   S151      1.0  0.88082  0.26883  0.54784  1.0000
  H   H916      1.0  0.77739  0.25312  0.54853  1.0000
  H   H917      1.0  0.85480  0.28015  0.77929  1.0000
  S   S152      1.0  0.83915  0.22745  0.52444  1.0000
  S   S153      1.0  0.82534  0.23497  0.92260  1.0000
  Fe  Fe81      1.0  0.83804  0.26496  0.55116  1.0000
  S   S154      1.0  0.81662  0.27956  0.59825  1.0000
  C   C541      1.0  0.87885  0.20775  0.87941  1.0000
  H   H918      1.0  0.91078  0.18901  0.90267  1.0000
  H   H919      1.0  0.59086  0.10990  0.95261  1.0000
  H   H920      1.0  0.76765  0.32985  0.79263  1.0000
  H   H921      1.0  0.52409  0.20745  0.83155  1.0000
  S   S155      1.0  0.97777  0.14066  0.91279  1.0000
  H   H922      1.0  0.56508  0.21509  0.86215  1.0000
  Fe  Fe82      1.0  0.67194  0.22902  0.79852  1.0000
  S   S156      1.0  0.66203  0.24650  0.74848  1.0000
  S   S157      1.0  0.65542  0.18989  0.80653  1.0000
  Fe  Fe83      1.0  0.70753  0.27267  0.81555  1.0000
  S   S158      1.0  0.69955  0.29321  0.76667  1.0000
  S   S159      1.0  0.73404  0.29262  0.85192  1.0000
  Fe  Fe84      1.0  0.65860  0.28276  0.77768  1.0000
  S   S160      1.0  0.62257  0.30628  0.77057  1.0000
  Fe  Fe85      1.0  0.70398  0.25508  0.74224  1.0000
  S   S161      1.0  0.72557  0.24177  0.69457  1.0000
  S   S162      1.0  0.66624  0.26474  0.82811  1.0000
  S   S163      1.0  0.71411  0.23517  0.79082  1.0000
  Fe  Fe86      1.0  0.54905  0.11660  0.90437  1.0000
  N   N42       1.0  0.56995  0.23709  0.81592  1.0000
  S   S164      1.0  0.57316  0.15153  0.91377  1.0000
  C   C542      1.0  0.52857  0.02766  0.50283  1.0000
  H   H923      1.0  0.93845  0.13189  0.53285  1.0000
  Fe  Fe87      1.0  0.53552  0.07091  0.86123  1.0000
  S   S165      1.0  0.54869  0.05319  0.81199  1.0000
  S   S166      1.0  0.56310  0.07666  0.90405  1.0000
  S   S167      1.0  0.51765  0.10811  0.94178  1.0000
  C   C543      1.0  0.63291  0.17966  0.83708  1.0000
  C   C544      1.0  0.61942  0.15726  0.83102  1.0000
  C   C545      1.0  0.60107  0.14844  0.85430  1.0000
  C   C546      1.0  0.59631  0.16181  0.88414  1.0000
  C   C547      1.0  0.61008  0.18402  0.89056  1.0000
  C   C548      1.0  0.62825  0.19300  0.86704  1.0000
  H   H924      1.0  0.62305  0.14674  0.80801  1.0000
  H   H925      1.0  0.59065  0.13129  0.84914  1.0000
  H   H926      1.0  0.60655  0.19439  0.91368  1.0000
  H   H927      1.0  0.63877  0.21009  0.87212  1.0000
  C   C549      1.0  0.77216  0.31440  0.77458  1.0000
  H   H928      1.0  0.87530  0.14961  0.98365  1.0000
  H   H929      1.0  0.00977  0.01382  0.95329  1.0000
  H   H930      1.0  0.54096  0.28468  0.78839  1.0000
  H   H931      1.0  0.58338  0.27000  0.87114  1.0000
  H   H932      1.0  0.89092  0.21820  0.86097  1.0000
  H   H933      1.0  0.79443  0.22414  0.74495  1.0000
  H   H934      1.0  0.56953  0.28946  0.81309  1.0000
  C   C550      1.0  0.76995  0.24326  0.52595  1.0000
  C   C551      1.0  0.76442  0.21589  0.53679  1.0000
  S   S168      1.0  0.52417  0.11173  0.85886  1.0000
  H   H935      1.0  0.71823  0.25894  0.92373  1.0000
  H   H936      1.0  0.01046  0.06080  0.56850  1.0000
  H   H937      1.0  0.86696  0.11575  0.51887  1.0000
  H   H938      1.0  0.78213  0.22183  0.78758  1.0000
  H   H939      1.0  0.80560  0.24938  0.70424  1.0000
  H   H940      1.0  0.97458  0.01626  0.54618  1.0000
  H   H941      1.0  0.83656  0.24961  0.72529  1.0000
  H   H942      1.0  0.85745  0.19460  0.94022  1.0000
  C   C552      1.0  0.79145  0.26850  0.62488  1.0000
  C   C553      1.0  0.78028  0.28524  0.64835  1.0000
  C   C554      1.0  0.76023  0.27746  0.67001  1.0000
  C   C555      1.0  0.75111  0.25274  0.66849  1.0000
  C   C556      1.0  0.76233  0.23600  0.64507  1.0000
  C   C557      1.0  0.78243  0.24376  0.62351  1.0000
  H   H943      1.0  0.78709  0.30444  0.64963  1.0000
  H   H944      1.0  0.75163  0.29066  0.68755  1.0000
  H   H945      1.0  0.75546  0.21682  0.64371  1.0000
  H   H946      1.0  0.79107  0.23054  0.60609  1.0000
  C   C558      1.0  0.80048  0.25152  0.90275  1.0000
  C   C559      1.0  0.78410  0.23841  0.88093  1.0000
  C   C560      1.0  0.76357  0.25080  0.86525  1.0000
  C   C561      1.0  0.75946  0.27641  0.87117  1.0000
  C   C562      1.0  0.77607  0.28961  0.89261  1.0000
  C   C563      1.0  0.79654  0.27719  0.90848  1.0000
  H   H947      1.0  0.78707  0.21851  0.87650  1.0000
  H   H948      1.0  0.75082  0.24047  0.84886  1.0000
  H   H949      1.0  0.77302  0.30951  0.89703  1.0000
  H   H950      1.0  0.80922  0.28743  0.92509  1.0000
  H   H951      1.0  0.76581  0.26593  0.74218  1.0000
  H   H952      1.0  0.81041  0.31058  0.79236  1.0000
  C   C564      1.0  0.95427  0.18107  0.94257  1.0000
  C   C565      1.0  0.96310  0.15635  0.94733  1.0000
  C   C566      1.0  0.91049  0.13124  0.89257  1.0000
  Fe  Fe88      1.0  0.01045  0.11270  0.91810  1.0000
  C   C567      1.0  0.61349  0.32938  0.80069  1.0000
  H   H953      1.0  0.95890  0.19093  0.91934  1.0000
  C   C568      1.0  0.63077  0.33870  0.82453  1.0000
  H   H954      1.0  0.96007  0.17708  0.51737  1.0000
  H   H955      1.0  0.84031  0.28876  0.81970  1.0000
  H   H956      1.0  0.60132  0.26410  0.81214  1.0000
  H   H957      1.0  0.86901  0.15318  0.84438  1.0000
  H   H958      1.0  0.84308  0.14361  0.91294  1.0000
  H   H959      1.0  0.55387  0.03377  0.54505  1.0000
  H   H960      1.0  0.57506  0.33218  0.78151  1.0000
  H   H961      1.0  0.92602  0.14414  0.88447  1.0000
  H   H962      1.0  0.54428  0.25412  0.85298  1.0000
  H   H963      1.0  0.71198  0.27467  0.52322  1.0000
  S   S169      1.0  0.83185  0.28750  0.50338  1.0000
  H   H964      1.0  0.92019  0.11417  0.90263  1.0000
  Fe  Fe89      1.0  0.52993  0.06735  0.93878  1.0000
  H   H965      1.0  0.88166  0.07720  0.50495  1.0000
  H   H966      1.0  0.72854  0.28899  0.93775  1.0000
  H   H967      1.0  0.61221  0.15811  0.96992  1.0000
  H   H968      1.0  0.60428  0.25056  0.75785  1.0000
  H   H969      1.0  0.74681  0.21430  0.55230  1.0000
  C   C569      1.0  0.53096  0.02936  0.79201  1.0000
  H   H970      1.0  0.70399  0.27197  0.96090  1.0000
  C   C570      1.0  0.53882  0.02204  0.53492  1.0000
  C   C571      1.0  0.60505  0.10681  0.97315  1.0000
  H   H971      1.0  0.76318  0.20323  0.51448  1.0000
  S   S170      1.0  0.89937  0.32425  0.49576  1.0000
  H   H972      1.0  0.71354  0.24193  0.53222  1.0000
  H   H973      1.0  0.61668  0.26333  0.86899  1.0000
  H   H974      1.0  0.77804  0.32336  0.75040  1.0000
  H   H975      1.0  0.54168  0.19187  0.79766  1.0000
  Fe  Fe90      1.0  0.87481  0.28902  0.49856  1.0000
  C   C572      1.0  0.82152  0.26129  0.71333  1.0000
  C   C573      1.0  0.58853  0.33920  0.79995  1.0000
  C   C574      1.0  0.74311  0.25662  0.96771  1.0000
  Fe  Fe91      1.0  0.84830  0.25126  0.96592  1.0000
  H   H976      1.0  0.87608  0.22043  0.90138  1.0000
  C   C575      1.0  0.54803  0.25429  0.82515  1.0000
  H   H977      1.0  0.73568  0.23733  0.97259  1.0000
  C   C576      1.0  0.88382  0.12834  0.51810  1.0000
  H   H978      1.0  0.96496  0.01483  0.94315  1.0000
  H   H979      1.0  0.61094  0.23328  0.82165  1.0000
  H   H980      1.0  0.74047  0.30797  0.98927  1.0000
  H   H981      1.0  0.80974  0.25334  0.81552  1.0000
  S   S171      1.0  0.00829  0.07113  0.92965  1.0000
  H   H982      1.0  0.75418  0.30386  0.77086  1.0000
  C   C577      1.0  0.81916  0.25952  0.79150  1.0000
  C   C578      1.0  0.73018  0.26489  0.57070  1.0000
  H   H983      1.0  0.93235  0.21196  0.96311  1.0000
  H   H984      1.0  0.75985  0.25402  0.95058  1.0000
  H   H985      1.0  0.93399  0.26721  0.52256  1.0000
  Fe  Fe92      1.0  0.88132  0.23364  0.51627  1.0000
  C   C579      1.0  0.59746  0.25517  0.86448  1.0000
  H   H986      1.0  0.95868  0.10771  0.54905  1.0000
  H   H987      1.0  0.86027  0.20404  0.86700  1.0000
  C   C580      1.0  0.54192  0.19728  0.82479  1.0000
  H   H988      1.0  0.59657  0.06644  0.96757  1.0000
  C   C581      1.0  0.72498  0.25961  0.53270  1.0000
  C   C582      1.0  0.72227  0.27021  0.94684  1.0000
  H   H989      1.0  0.58263  0.19963  0.82959  1.0000
  H   H990      1.0  0.58043  0.21344  0.77319  1.0000
  H   H991      1.0  0.82795  0.29568  0.74075  1.0000
  H   H992      1.0  0.84305  0.15352  0.96730  1.0000
  H   H993      1.0  0.85562  0.12493  0.86276  1.0000
  C   C583      1.0  0.99511  0.01628  0.49874  1.0000
  C   C584      1.0  0.58320  0.25099  0.75488  1.0000
  S   S172      1.0  0.91362  0.20541  0.52325  1.0000
  N   N43       1.0  0.74795  0.25707  0.50965  1.0000
  C   C585      1.0  0.53788  0.02183  0.75915  1.0000
  N   N44       1.0  0.87782  0.16556  0.91215  1.0000
  H   H994      1.0  0.89467  0.12667  0.54206  1.0000
  C   C586      1.0  0.89276  0.18337  0.88982  1.0000
  C   C587      1.0  0.89406  0.14294  0.92105  1.0000
  C   C588      1.0  0.85281  0.15770  0.89654  1.0000
  C   C589      1.0  0.54986  0.28201  0.81365  1.0000
  H   H995      1.0  0.54186  0.17944  0.83961  1.0000
  H   H996      1.0  0.89927  0.12531  0.87036  1.0000
  H   H997      1.0  0.85663  0.25964  0.81503  1.0000
  H   H998      1.0  0.78059  0.20884  0.55235  1.0000
  H   H999      1.0  0.74971  0.30778  0.54066  1.0000
  H   H1000     1.0  0.89923  0.17436  0.86600  1.0000
  C   C590      1.0  0.77901  0.23034  0.76220  1.0000
  S   S173      1.0  0.89120  0.24834  0.96402  1.0000
  C   C591      1.0  0.79362  0.29791  0.78979  1.0000
  C   C592      1.0  0.77628  0.25928  0.76503  1.0000
  H   H1001     1.0  0.78768  0.29302  0.81611  1.0000
  H   H1002     1.0  0.76278  0.26221  0.78661  1.0000
  H   H1003     1.0  0.79758  0.29304  0.72156  1.0000
  H   H1004     1.0  0.62574  0.07628  0.94822  1.0000
  H   H1005     1.0  0.87645  0.14799  0.51706  1.0000
  H   H1006     1.0  0.72821  0.24738  0.58592  1.0000
  N   N45       1.0  0.80048  0.27437  0.77026  1.0000
  C   C593      1.0  0.81183  0.28240  0.73676  1.0000
  C   C594      1.0  0.56608  0.21237  0.83424  1.0000
  C   C595      1.0  0.84400  0.27319  0.80160  1.0000
  H   H1007     1.0  0.96258  0.11752  0.50623  1.0000
  H   H1008     1.0  0.91661  0.08929  0.53805  1.0000
  H   H1009     1.0  0.76096  0.22235  0.75212  1.0000
  C   C596      1.0  0.93903  0.19297  0.96727  1.0000
  H   H1010     1.0  0.82523  0.24193  0.77863  1.0000
  H   H1011     1.0  0.83017  0.26993  0.69031  1.0000
  C   C597      1.0  0.92915  0.09317  0.51581  1.0000
  H   H1012     1.0  0.65008  0.33136  0.82529  1.0000
  C   C598      1.0  0.87166  0.17941  0.94464  1.0000
  H   H1013     1.0  0.77405  0.31805  0.51229  1.0000
  H   H1014     1.0  0.55375  0.03092  0.74645  1.0000
  C   C599      1.0  0.85376  0.14573  0.86095  1.0000
  C   C600      1.0  0.75715  0.28247  0.49759  1.0000
  H   H1015     1.0  0.83569  0.15015  0.84743  1.0000
  C   C601      1.0  0.94812  0.11398  0.52616  1.0000
  C   C602      1.0  0.57023  0.23154  0.77833  1.0000
  H   H1016     1.0  0.71522  0.27782  0.58063  1.0000
  C   C603      1.0  0.95714  0.14382  0.97757  1.0000
  H   H1017     1.0  0.74869  0.27379  0.57648  1.0000
  H   H1018     1.0  0.52985  0.24715  0.81425  1.0000
  H   H1019     1.0  0.91547  0.04433  0.49645  1.0000
  H   H1020     1.0  0.94082  0.07581  0.51257  1.0000
  C   C604      1.0  0.95126  0.17746  0.49260  1.0000
  C   C605      1.0  0.76599  0.30113  0.52497  1.0000
  H   H1021     1.0  0.59555  0.23898  0.88199  1.0000
  C   C606      1.0  0.95086  0.27094  0.50619  1.0000
  C   C607      1.0  0.59553  0.24731  0.82692  1.0000
  C   C608      1.0  0.61339  0.07894  0.97091  1.0000
  H   H1022     1.0  0.83887  0.17361  0.89585  1.0000
  H   H1023     1.0  0.88207  0.12754  0.93175  1.0000
  H   H1024     1.0  0.88882  0.18918  0.95450  1.0000
  H   H1025     1.0  0.53959  0.29415  0.83218  1.0000
  H   H1026     1.0  0.90792  0.14791  0.94134  1.0000
  H   H1027     1.0  0.78654  0.24262  0.50820  1.0000
  H   H1028     1.0  0.52172  0.09391  0.74917  1.0000
  H   H1029     1.0  0.98243  0.22308  0.49823  1.0000
  H   H1030     1.0  0.78136  0.29352  0.54125  1.0000
  H   H1031     1.0  0.96363  0.12468  0.98138  1.0000
  H   H1032     1.0  0.90297  0.32856  0.92623  1.0000
  C   C609      1.0  0.92237  0.33531  0.92862  1.0000
  H   H1033     1.0  0.58929  0.17926  0.98684  1.0000
  H   H1034     1.0  0.96707  0.26063  0.51746  1.0000
  H   H1035     1.0  0.95444  0.29153  0.50742  1.0000
  S   S174      1.0  0.54193  0.04489  0.98642  1.0000
  C   C610      1.0  0.96171  0.33826  0.96032  1.0000
  H   H1036     1.0  0.56674  0.14061  0.98436  1.0000
  H   H1037     1.0  0.57620  0.27040  0.75873  1.0000
  H   H1038     1.0  0.97286  0.33354  0.98249  1.0000
  H   H1039     1.0  0.57931  0.24595  0.72808  1.0000
  C   C611      1.0  0.93664  0.32910  0.95739  1.0000
  C   C612      1.0  0.86098  0.16330  0.97408  1.0000
  H   H1040     1.0  0.55043  0.22892  0.76872  1.0000
  H   H1041     1.0  0.00954  0.09322  0.55671  1.0000
  H   H1042     1.0  0.76816  0.29729  0.96731  1.0000
  H   H1043     1.0  0.01204  0.27944  0.97810  1.0000
  C   C613      1.0  0.90557  0.38733  0.01664  1.0000
  S   S175      1.0  0.97514  0.36749  0.38485  1.0000
  C   C614      1.0  0.97109  0.39160  0.01434  1.0000
  H   H1044     1.0  0.51781  0.51981  0.21105  1.0000
  S   S176      1.0  0.99733  0.43868  0.39958  1.0000
  S   S177      1.0  0.95745  0.61578  0.10628  1.0000
  Fe  Fe93      1.0  0.55419  0.61926  0.14461  1.0000
  S   S178      1.0  0.52211  0.61042  0.10869  1.0000
  S   S179      1.0  0.57455  0.65692  0.13838  1.0000
  Fe  Fe94      1.0  0.54524  0.57062  0.18405  1.0000
  S   S180      1.0  0.55138  0.40398  0.41593  1.0000
  Fe  Fe95      1.0  0.53696  0.57052  0.10741  1.0000
  H   H1045     1.0  0.56257  0.45284  0.28556  1.0000
  S   S181      1.0  0.57088  0.58040  0.14012  1.0000
  H   H1046     1.0  0.52062  0.58523  0.27616  1.0000
  Fe  Fe96      1.0  0.56715  0.41792  0.36660  1.0000
  H   H1047     1.0  0.97137  0.55111  0.05325  1.0000
  S   S182      1.0  0.60764  0.40685  0.35241  1.0000
  C   C615      1.0  0.59531  0.66798  0.17042  1.0000
  C   C616      1.0  0.95609  0.35226  0.41578  1.0000
  C   C617      1.0  0.53393  0.52363  0.03617  1.0000
  S   S183      1.0  0.53119  0.61039  0.19111  1.0000
  H   H1048     1.0  0.97038  0.61826  0.02482  1.0000
  S   S184      1.0  0.55630  0.45822  0.37734  1.0000
  C   C618      1.0  0.61412  0.38216  0.32367  1.0000
  Fe  Fe97      1.0  0.99719  0.60606  0.12564  1.0000
  H   H1049     1.0  0.58442  0.47646  0.16344  1.0000
  H   H1050     1.0  0.92988  0.40955  0.40033  1.0000
  H   H1051     1.0  0.62373  0.64991  0.24408  1.0000
  C   C619      1.0  0.99053  0.61934  0.01591  1.0000
  H   H1052     1.0  0.90391  0.36644  0.01694  1.0000
  Fe  Fe98      1.0  0.00484  0.39675  0.39996  1.0000
  H   H1053     1.0  0.97891  0.50729  0.44373  1.0000
  H   H1054     1.0  0.55522  0.47283  0.25104  1.0000
  H   H1055     1.0  0.64046  0.43099  0.22934  1.0000
  C   C620      1.0  0.54340  0.52824  0.25204  1.0000
  H   H1056     1.0  0.55553  0.41456  0.24958  1.0000
  C   C621      1.0  0.61855  0.66193  0.22300  1.0000
  C   C622      1.0  0.57996  0.55125  0.48213  1.0000
  H   H1057     1.0  0.60832  0.60292  0.48882  1.0000
  C   C623      1.0  0.99652  0.50899  0.42808  1.0000
  C   C624      1.0  0.91522  0.40664  0.45178  1.0000
  C   C625      1.0  0.00356  0.51053  0.27251  1.0000
  H   H1058     1.0  0.60064  0.42902  0.28760  1.0000
  H   H1059     1.0  0.57933  0.35311  0.36828  1.0000
  C   C626      1.0  0.60193  0.65277  0.19794  1.0000
  H   H1060     1.0  0.56736  0.54884  0.45974  1.0000
  C   C627      1.0  0.56464  0.45479  0.25760  1.0000
  Fe  Fe99      1.0  0.53780  0.44375  0.42525  1.0000
  H   H1061     1.0  0.59442  0.63384  0.19981  1.0000
  H   H1062     1.0  0.89617  0.41216  0.44162  1.0000
  H   H1063     1.0  0.52859  0.43515  0.25184  1.0000
  C   C628      1.0  0.94912  0.64318  0.08335  1.0000
  C   C629      1.0  0.00781  0.50315  0.03491  1.0000
  C   C630      1.0  0.54849  0.43345  0.24210  1.0000
  C   C631      1.0  0.53622  0.50470  0.30422  1.0000
  C   C632      1.0  0.92381  0.64599  0.07213  1.0000
  C   C633      1.0  0.54685  0.51427  0.00739  1.0000
  S   S185      1.0  0.56176  0.55029  0.22946  1.0000
  H   H1064     1.0  0.90998  0.63139  0.07749  1.0000
  Fe  Fe100     1.0  0.51916  0.44788  0.35224  1.0000
  H   H1065     1.0  0.61537  0.49761  0.30881  1.0000
  H   H1066     1.0  0.57726  0.38305  0.29967  1.0000
  S   S186      1.0  0.01177  0.61568  0.17750  1.0000
  H   H1067     1.0  0.59982  0.55320  0.47265  1.0000
  H   H1068     1.0  0.94145  0.46114  0.47532  1.0000
  H   H1069     1.0  0.86460  0.65487  0.11185  1.0000
  H   H1070     1.0  0.95963  0.58218  0.04728  1.0000
  C   C634      1.0  0.63455  0.43084  0.25633  1.0000
  H   H1071     1.0  0.58678  0.47987  0.31329  1.0000
  C   C635      1.0  0.60523  0.43200  0.26038  1.0000
  C   C636      1.0  0.93536  0.41597  0.42610  1.0000
  S   S187      1.0  0.54613  0.45735  0.47943  1.0000
  H   H1072     1.0  0.58660  0.49666  0.19928  1.0000
  S   S188      1.0  0.00504  0.56476  0.13250  1.0000
  H   H1073     1.0  0.61748  0.46417  0.31200  1.0000
  H   H1074     1.0  0.59780  0.41501  0.24724  1.0000
  S   S189      1.0  0.54592  0.55110  0.05661  1.0000
  H   H1075     1.0  0.01164  0.52928  0.07637  1.0000
  H   H1076     1.0  0.95436  0.40751  0.43113  1.0000
  H   H1077     1.0  0.64439  0.44610  0.27023  1.0000
  H   H1078     1.0  0.91587  0.38572  0.45004  1.0000
  H   H1079     1.0  0.97831  0.36449  0.45840  1.0000
  H   H1080     1.0  0.99045  0.50970  0.40133  1.0000
  H   H1081     1.0  0.95825  0.42491  0.48224  1.0000
  C   C637      1.0  0.96152  0.35438  0.45031  1.0000
  H   H1082     1.0  0.72026  0.65347  0.13323  1.0000
  H   H1083     1.0  0.94705  0.46787  0.01458  1.0000
  H   H1084     1.0  0.61570  0.45898  0.20217  1.0000
  C   C638      1.0  0.60126  0.35375  0.27861  1.0000
  C   C639      1.0  0.60429  0.47886  0.26220  1.0000
  H   H1085     1.0  0.64149  0.41279  0.26730  1.0000
  H   H1086     1.0  0.58699  0.34747  0.26073  1.0000
  H   H1087     1.0  0.94763  0.41918  0.03977  1.0000
  C   C640      1.0  0.01407  0.54139  0.36040  1.0000
  C   C641      1.0  0.95592  0.41652  0.01403  1.0000
  H   H1088     1.0  0.66211  0.66283  0.12780  1.0000
  H   H1089     1.0  0.98810  0.49875  0.04072  1.0000
  H   H1090     1.0  0.65252  0.37664  0.34201  1.0000
  H   H1091     1.0  0.90559  0.66128  0.13565  1.0000
  C   C642      1.0  0.63813  0.37028  0.32435  1.0000
  C   C643      1.0  0.55018  0.52250  0.28552  1.0000
  N   N46       1.0  0.59239  0.45549  0.24737  1.0000
  C   C644      1.0  0.92049  0.46331  0.47699  1.0000
  C   C645      1.0  0.52268  0.51594  0.23716  1.0000
  N   N47       1.0  0.99787  0.59564  0.99725  1.0000
  C   C646      1.0  0.59529  0.45641  0.20935  1.0000
  C   C647      1.0  0.67919  0.65327  0.13849  1.0000
  H   H1092     1.0  0.93912  0.66079  0.17019  1.0000
  C   C648      1.0  0.96695  0.66198  0.07590  1.0000
  H   H1093     1.0  0.97035  0.43178  0.01166  1.0000
  H   H1094     1.0  0.95882  0.37522  0.02067  1.0000
  H   H1095     1.0  0.98343  0.51078  0.26627  1.0000
  H   H1096     1.0  0.87457  0.38118  0.47504  1.0000
  H   H1097     1.0  0.95738  0.55915  0.01359  1.0000
  H   H1098     1.0  0.59336  0.49595  0.25462  1.0000
  H   H1099     1.0  0.67688  0.65163  0.16624  1.0000
  C   C649      1.0  0.59571  0.37390  0.30061  1.0000
  H   H1100     1.0  0.90988  0.43795  0.02111  1.0000
  C   C650      1.0  0.91618  0.66766  0.05424  1.0000
  C   C651      1.0  0.64343  0.34968  0.30297  1.0000
  C   C652      1.0  0.96954  0.56648  0.03429  1.0000
  H   H1101     1.0  0.98651  0.65999  0.08433  1.0000
  H   H1102     1.0  0.54147  0.50056  0.33011  1.0000
  H   H1103     1.0  0.56416  0.52347  0.99889  1.0000
  H   H1104     1.0  0.52088  0.66917  0.15046  1.0000
  C   C653      1.0  0.01267  0.49313  0.29677  1.0000
  H   H1105     1.0  0.54340  0.66987  0.20310  1.0000
  H   H1106     1.0  0.52203  0.40979  0.48155  1.0000
  H   H1107     1.0  0.99133  0.50867  0.13457  1.0000
  H   H1108     1.0  0.58960  0.43819  0.19766  1.0000
  H   H1109     1.0  0.62388  0.48189  0.25187  1.0000
  C   C654      1.0  0.60593  0.47976  0.30127  1.0000
  H   H1110     1.0  0.56627  0.53194  0.29707  1.0000
  H   H1111     1.0  0.55947  0.47592  0.19418  1.0000
  C   C655      1.0  0.91850  0.44072  0.99553  1.0000
  C   C656      1.0  0.58046  0.47765  0.19108  1.0000
  H   H1112     1.0  0.00803  0.57774  0.04474  1.0000
  H   H1113     1.0  0.74814  0.67485  0.09478  1.0000
  H   H1114     1.0  0.88322  0.66457  0.16892  1.0000
  H   H1115     1.0  0.91567  0.39227  0.04026  1.0000
  H   H1116     1.0  0.54746  0.43476  0.21411  1.0000
  H   H1117     1.0  0.99961  0.48023  0.30904  1.0000
  H   H1118     1.0  0.00588  0.48218  0.11453  1.0000
  H   H1119     1.0  0.00004  0.65930  0.01207  1.0000
  H   H1120     1.0  0.88671  0.44141  0.48341  1.0000
  H   H1121     1.0  0.00148  0.62144  0.03985  1.0000
  S   S190      1.0  0.00745  0.54864  0.22535  1.0000
  C   C657      1.0  0.99649  0.57382  0.02168  1.0000
  S   S191      1.0  0.53165  0.40876  0.33758  1.0000
  H   H1122     1.0  0.93703  0.43666  0.42508  1.0000
  H   H1123     1.0  0.99549  0.48045  0.15846  1.0000
  H   H1124     1.0  0.99313  0.54403  0.36361  1.0000
  H   H1125     1.0  0.98610  0.39264  0.03414  1.0000
  C   C658      1.0  0.00447  0.49253  0.13888  1.0000
  H   H1126     1.0  0.67921  0.63381  0.12817  1.0000
  H   H1127     1.0  0.71093  0.65622  0.20379  1.0000
  C   C659      1.0  0.89070  0.67421  0.14587  1.0000
  H   H1128     1.0  0.61879  0.35281  0.40045  1.0000
  H   H1129     1.0  0.88609  0.39566  0.01756  1.0000
  H   H1130     1.0  0.89664  0.66965  0.04571  1.0000
  C   C660      1.0  0.99236  0.64419  0.99553  1.0000
  H   H1131     1.0  0.99754  0.54860  0.43948  1.0000
  C   C661      1.0  0.70418  0.66661  0.12763  1.0000
  H   H1132     1.0  0.00769  0.49156  0.43274  1.0000
  H   H1133     1.0  0.00522  0.55665  0.01038  1.0000
  H   H1134     1.0  0.91276  0.46728  0.45134  1.0000
  C   C662      1.0  0.01134  0.53260  0.43944  1.0000
  C   C663      1.0  0.86889  0.67453  0.11953  1.0000
  H   H1135     1.0  0.70308  0.66774  0.09944  1.0000
  H   H1136     1.0  0.54513  0.34647  0.30444  1.0000
  C   C664      1.0  0.93131  0.46688  0.99588  1.0000
  H   H1137     1.0  0.53984  0.35079  0.34863  1.0000
  H   H1138     1.0  0.56731  0.58951  0.48334  1.0000
  C   C665      1.0  0.94476  0.34410  0.47454  1.0000
  N   N48       1.0  0.91800  0.41499  0.48822  1.0000
  H   H1139     1.0  0.91691  0.48125  0.00334  1.0000
  C   C666      1.0  0.52259  0.50393  0.49061  1.0000
  H   H1140     1.0  0.64220  0.55394  0.81067  1.0000
  S   S192      1.0  0.96918  0.38358  0.87761  1.0000
  H   H1141     1.0  0.65065  0.65782  0.64309  1.0000
  S   S193      1.0  0.51861  0.39759  0.84268  1.0000
  C   C667      1.0  0.58086  0.35809  0.82288  1.0000
  S   S194      1.0  0.98394  0.65568  0.61960  1.0000
  Fe  Fe101     1.0  0.56529  0.61157  0.65138  1.0000
  H   H1142     1.0  0.96315  0.43892  0.95505  1.0000
  S   S195      1.0  0.60201  0.63273  0.63959  1.0000
  Fe  Fe102     1.0  0.54062  0.57184  0.69572  1.0000
  H   H1143     1.0  0.00300  0.49075  0.80341  1.0000
  H   H1144     1.0  0.93865  0.47237  0.97053  1.0000
  C   C668      1.0  0.97963  0.59224  0.96817  1.0000
  S   S196      1.0  0.56544  0.56923  0.64906  1.0000
  S   S197      1.0  0.54269  0.61417  0.69950  1.0000
  Fe  Fe103     1.0  0.54921  0.40638  0.88043  1.0000
  H   H1145     1.0  0.64961  0.60877  0.52951  1.0000
  S   S198      1.0  0.59033  0.39354  0.87300  1.0000
  H   H1146     1.0  0.90396  0.44506  0.52088  1.0000
  C   C669      1.0  0.95127  0.42251  0.53543  1.0000
  C   C670      1.0  0.57449  0.60384  0.54928  1.0000
  H   H1147     1.0  0.55188  0.56984  0.51322  1.0000
  H   H1148     1.0  0.53366  0.53758  0.88268  1.0000
  S   S199      1.0  0.53853  0.44752  0.88592  1.0000
  C   C671      1.0  0.59834  0.36789  0.84618  1.0000
  Fe  Fe104     1.0  0.00309  0.40855  0.89052  1.0000
  H   H1149     1.0  0.55086  0.51060  0.58132  1.0000
  Fe  Fe105     1.0  0.52884  0.57207  0.61957  1.0000
  H   H1150     1.0  0.59097  0.44599  0.84409  1.0000
  H   H1151     1.0  0.58089  0.63469  0.51231  1.0000
  H   H1152     1.0  0.94873  0.34654  0.50124  1.0000
  C   C672      1.0  0.90340  0.39662  0.51029  1.0000
  H   H1153     1.0  0.56137  0.47326  0.54580  1.0000
  C   C673      1.0  0.61276  0.56714  0.58281  1.0000
  H   H1154     1.0  0.85982  0.66109  0.66269  1.0000
  C   C674      1.0  0.53629  0.52655  0.76106  1.0000
  H   H1155     1.0  0.92018  0.41187  0.91583  1.0000
  H   H1156     1.0  0.90188  0.44160  0.97803  1.0000
  H   H1157     1.0  0.99144  0.36111  0.93807  1.0000
  H   H1158     1.0  0.65294  0.56618  0.77114  1.0000
  C   C675      1.0  0.54499  0.51518  0.79107  1.0000
  C   C676      1.0  0.52773  0.41787  0.74918  1.0000
  H   H1159     1.0  0.93100  0.67112  0.64033  1.0000
  H   H1160     1.0  0.55539  0.62861  0.79392  1.0000
  H   H1161     1.0  0.56249  0.52167  0.80264  1.0000
  H   H1162     1.0  0.98762  0.50311  0.65281  1.0000
  C   C677      1.0  0.00671  0.51748  0.76210  1.0000
  C   C678      1.0  0.93185  0.42852  0.92263  1.0000
  C   C679      1.0  0.62897  0.61278  0.53360  1.0000
  H   H1163     1.0  0.58878  0.45708  0.69727  1.0000
  H   H1164     1.0  0.86690  0.37813  0.51870  1.0000
  C   C680      1.0  0.56897  0.45949  0.70682  1.0000
  H   H1165     1.0  0.90930  0.62969  0.64117  1.0000
  C   C681      1.0  0.95614  0.65008  0.56012  1.0000
  S   S200      1.0  0.99921  0.45086  0.88857  1.0000
  C   C682      1.0  0.97219  0.35413  0.93536  1.0000
  H   H1166     1.0  0.89353  0.63751  0.68106  1.0000
  H   H1167     1.0  0.96119  0.63032  0.56085  1.0000
  H   H1168     1.0  0.62593  0.61285  0.56131  1.0000
  H   H1169     1.0  0.63251  0.57044  0.57357  1.0000
  C   C683      1.0  0.54297  0.50891  0.55612  1.0000
  C   C684      1.0  0.91377  0.66934  0.65681  1.0000
  C   C685      1.0  0.94563  0.41373  0.49898  1.0000
  S   S201      1.0  0.51852  0.55503  0.56778  1.0000
  S   S202      1.0  0.55449  0.55089  0.74253  1.0000
  C   C686      1.0  0.95759  0.36129  0.90735  1.0000
  H   H1170     1.0  0.90445  0.66703  0.59250  1.0000
  H   H1171     1.0  0.57621  0.55463  0.56429  1.0000
  N   N49       1.0  0.57416  0.43239  0.76071  1.0000
  C   C687      1.0  0.55664  0.41211  0.74752  1.0000
  C   C688      1.0  0.60123  0.42558  0.75104  1.0000
  C   C689      1.0  0.56774  0.45774  0.74580  1.0000
  C   C690      1.0  0.57086  0.43402  0.79860  1.0000
  C   C691      1.0  0.61441  0.65485  0.66891  1.0000
  C   C692      1.0  0.61280  0.40283  0.76992  1.0000
  H   H1172     1.0  0.58064  0.65667  0.69999  1.0000
  C   C693      1.0  0.58894  0.45227  0.81735  1.0000
  H   H1173     1.0  0.56124  0.40731  0.72073  1.0000
  H   H1174     1.0  0.55953  0.39425  0.76188  1.0000
  H   H1175     1.0  0.61437  0.44184  0.75428  1.0000
  H   H1176     1.0  0.60251  0.42099  0.72356  1.0000
  H   H1177     1.0  0.54837  0.46396  0.75385  1.0000
  H   H1178     1.0  0.58086  0.47247  0.75569  1.0000
  H   H1179     1.0  0.55121  0.44044  0.80512  1.0000
  H   H1180     1.0  0.57205  0.41517  0.81085  1.0000
  H   H1181     1.0  0.56161  0.36538  0.82205  1.0000
  S   S203      1.0  0.00234  0.47029  0.98227  1.0000
  H   H1182     1.0  0.60646  0.58286  0.59925  1.0000
  H   H1183     1.0  0.63242  0.39923  0.76020  1.0000
  C   C694      1.0  0.61296  0.59346  0.51329  1.0000
  H   H1184     1.0  0.60168  0.38543  0.76552  1.0000
  H   H1185     1.0  0.57251  0.60549  0.81741  1.0000
  H   H1186     1.0  0.91335  0.37807  0.51128  1.0000
  C   C695      1.0  0.57098  0.57450  0.50243  1.0000
  H   H1187     1.0  0.58140  0.47179  0.81700  1.0000
  C   C696      1.0  0.94923  0.42321  0.95338  1.0000
  C   C697      1.0  0.93872  0.65909  0.53568  1.0000
  H   H1188     1.0  0.54872  0.50739  0.88626  1.0000
  H   H1189     1.0  0.58551  0.61128  0.57093  1.0000
  H   H1190     1.0  0.92751  0.63431  0.67853  1.0000
  H   H1191     1.0  0.93052  0.64619  0.51753  1.0000
  H   H1192     1.0  0.60320  0.54606  0.53929  1.0000
  H   H1193     1.0  0.61353  0.55013  0.59921  1.0000
  H   H1194     1.0  0.97312  0.65013  0.98665  1.0000
  H   H1195     1.0  0.65779  0.58365  0.81033  1.0000
  C   C698      1.0  0.63956  0.66363  0.66493  1.0000
  H   H1196     1.0  0.87920  0.64968  0.61136  1.0000
  H   H1197     1.0  0.94411  0.43247  0.90022  1.0000
  H   H1198     1.0  0.55616  0.44577  0.69434  1.0000
  H   H1199     1.0  0.98205  0.49952  0.53512  1.0000
  C   C699      1.0  0.59435  0.56202  0.55325  1.0000
  H   H1200     1.0  0.93113  0.37942  0.97439  1.0000
  H   H1201     1.0  0.98128  0.60821  0.94997  1.0000
  Fe  Fe106     1.0  0.01075  0.62188  0.62212  1.0000
  H   H1202     1.0  0.61459  0.40627  0.79753  1.0000
  N   N50       1.0  0.93584  0.41898  0.98681  1.0000
  C   C700      1.0  0.99641  0.50892  0.62842  1.0000
  H   H1203     1.0  0.54307  0.52524  0.92367  1.0000
  H   H1204     1.0  0.94193  0.41046  0.55475  1.0000
  C   C701      1.0  0.91036  0.64111  0.66465  1.0000
  H   H1205     1.0  0.52114  0.42188  0.77528  1.0000
  H   H1206     1.0  0.57801  0.53369  0.49724  1.0000
  H   H1207     1.0  0.96835  0.56709  0.92740  1.0000
  C   C702      1.0  0.56550  0.62674  0.52837  1.0000
  H   H1208     1.0  0.86356  0.40831  0.49913  1.0000
  H   H1209     1.0  0.00205  0.56767  0.93399  1.0000
  C   C703      1.0  0.00217  0.50241  0.53012  1.0000
  H   H1210     1.0  0.60864  0.45233  0.80722  1.0000
  C   C704      1.0  0.53115  0.49542  0.80616  1.0000
  C   C705      1.0  0.90654  0.44078  0.49344  1.0000
  H   H1211     1.0  0.62591  0.63214  0.52367  1.0000
  H   H1212     1.0  0.98633  0.52062  0.76015  1.0000
  H   H1213     1.0  0.86531  0.67047  0.55970  1.0000
  S   S204      1.0  0.52600  0.39460  0.92580  1.0000
  H   H1214     1.0  0.52215  0.43367  0.73236  1.0000
  C   C706      1.0  0.96593  0.66648  0.58457  1.0000
  S   S205      1.0  0.53070  0.61443  0.61843  1.0000
  H   H1215     1.0  0.66147  0.64192  0.75582  1.0000
  H   H1216     1.0  0.58402  0.63771  0.81496  1.0000
  H   H1217     1.0  0.55714  0.59552  0.56116  1.0000
  H   H1218     1.0  0.96103  0.40658  0.94652  1.0000
  H   H1219     1.0  0.53790  0.48678  0.82925  1.0000
  N   N51       1.0  0.58879  0.58382  0.52980  1.0000
  C   C707      1.0  0.91980  0.39556  0.98409  1.0000
  C   C708      1.0  0.53490  0.52042  0.89856  1.0000
  H   H1220     1.0  0.91952  0.44527  0.92625  1.0000
  H   H1221     1.0  0.95302  0.39419  0.49648  1.0000
  N   N52       1.0  0.61722  0.60821  0.77176  1.0000
  C   C709      1.0  0.58945  0.61543  0.76778  1.0000
  C   C710      1.0  0.62843  0.60489  0.73673  1.0000
  C   C711      1.0  0.63065  0.62947  0.79011  1.0000
  C   C712      1.0  0.61813  0.58414  0.79203  1.0000
  C   C713      1.0  0.57494  0.62215  0.80073  1.0000
  C   C714      1.0  0.61521  0.58548  0.71370  1.0000
  C   C715      1.0  0.65917  0.63397  0.78171  1.0000
  C   C716      1.0  0.64449  0.57162  0.79587  1.0000
  H   H1222     1.0  0.58755  0.63180  0.75041  1.0000
  H   H1223     1.0  0.57835  0.59990  0.75608  1.0000
  H   H1224     1.0  0.64888  0.59943  0.73773  1.0000
  H   H1225     1.0  0.62819  0.62315  0.72294  1.0000
  H   H1226     1.0  0.62138  0.64794  0.78439  1.0000
  H   H1227     1.0  0.62900  0.62717  0.81809  1.0000
  H   H1228     1.0  0.61100  0.58733  0.81826  1.0000
  H   H1229     1.0  0.60503  0.56982  0.78097  1.0000
  H   H1230     1.0  0.54793  0.48605  0.96771  1.0000
  C   C717      1.0  0.52662  0.52766  0.54382  1.0000
  H   H1231     1.0  0.98136  0.55064  0.96284  1.0000
  H   H1232     1.0  0.61394  0.56657  0.72548  1.0000
  H   H1233     1.0  0.59597  0.59199  0.70597  1.0000
  H   H1234     1.0  0.62645  0.58351  0.68990  1.0000
  H   H1235     1.0  0.01232  0.46725  0.66699  1.0000
  H   H1236     1.0  0.67116  0.61694  0.78400  1.0000
  H   H1237     1.0  0.66689  0.64833  0.79941  1.0000
  C   C718      1.0  0.53875  0.48507  0.50302  1.0000
  C   C719      1.0  0.52011  0.37120  0.49736  1.0000
  H   H1238     1.0  0.00356  0.53804  0.55661  1.0000
  C   C720      1.0  0.54890  0.48775  0.53587  1.0000
  S   S206      1.0  0.00469  0.57989  0.61909  1.0000
  H   H1239     1.0  0.99125  0.49553  0.60807  1.0000
  H   H1240     1.0  0.98748  0.52720  0.62162  1.0000
  H   H1241     1.0  0.52105  0.40533  0.52609  1.0000
  H   H1242     1.0  0.55905  0.64179  0.54603  1.0000
  H   H1243     1.0  0.62577  0.57744  0.50653  1.0000
  H   H1244     1.0  0.97220  0.42107  0.53987  1.0000
  C   C721      1.0  0.60024  0.66269  0.69712  1.0000
  H   H1245     1.0  0.54132  0.37003  0.49770  1.0000
  H   H1246     1.0  0.56253  0.47859  0.69899  1.0000
  H   H1247     1.0  0.94602  0.44255  0.53929  1.0000
  H   H1248     1.0  0.00519  0.64329  0.97329  1.0000
  S   S207      1.0  0.01012  0.55103  0.70886  1.0000
  H   H1249     1.0  0.90472  0.39791  0.96456  1.0000
  H   H1250     1.0  0.90244  0.40324  0.53700  1.0000
  H   H1251     1.0  0.51699  0.40105  0.74053  1.0000
  C   C722      1.0  0.93284  0.35139  0.90370  1.0000
  C   C723      1.0  0.98333  0.56792  0.94727  1.0000
  C   C724      1.0  0.01432  0.52416  0.54240  1.0000
  C   C725      1.0  0.87555  0.39111  0.49974  1.0000
  H   H1252     1.0  0.92147  0.35671  0.88198  1.0000
  C   C726      1.0  0.88635  0.66915  0.60714  1.0000
  H   H1253     1.0  0.54878  0.62188  0.51242  1.0000
  H   H1254     1.0  0.63697  0.36555  0.86473  1.0000
  C   C727      1.0  0.62330  0.35807  0.84687  1.0000
  H   H1255     1.0  0.95943  0.59293  0.97711  1.0000
  H   H1256     1.0  0.98098  0.38823  0.98995  1.0000
  S   S208      1.0  0.99961  0.45891  0.49310  1.0000
  C   C728      1.0  0.51656  0.52503  0.51092  1.0000
  H   H1257     1.0  0.91758  0.48032  0.49294  1.0000
  C   C729      1.0  0.53769  0.49305  0.98962  1.0000
  Fe  Fe107     1.0  0.88502  0.73176  0.02708  1.0000
  H   H1258     1.0  0.69908  0.76354  0.45437  1.0000
  S   S209      1.0  0.92495  0.71449  0.02575  1.0000
  Fe  Fe108     1.0  0.83614  0.74036  0.06842  1.0000
  S   S210      1.0  0.82226  0.77158  0.03467  1.0000
  S   S211      1.0  0.81835  0.72578  0.11702  1.0000
  C   C730      1.0  0.95232  0.00593  0.14938  1.0000
  H   H1259     1.0  0.90461  0.71172  0.10226  1.0000
  Fe  Fe109     1.0  0.86341  0.78462  0.03559  1.0000
  S   S212      1.0  0.87453  0.82564  0.04357  1.0000
  S   S213      1.0  0.84604  0.71417  0.02566  1.0000
  S   S214      1.0  0.87597  0.75536  0.07267  1.0000
  Fe  Fe110     1.0  0.98521  0.89645  0.14339  1.0000
  S   S215      1.0  0.96326  0.85932  0.14429  1.0000
  S   S216      1.0  0.97115  0.93624  0.14829  1.0000
  H   H1260     1.0  0.51677  0.71447  0.08837  1.0000
  S   S217      1.0  0.53897  0.94811  0.17192  1.0000
  C   C731      1.0  0.00431  0.99658  0.05339  1.0000
  H   H1261     1.0  0.00746  0.84909  0.08852  1.0000
  H   H1262     1.0  0.85100  0.68243  0.13019  1.0000
  C   C732      1.0  0.51688  0.99437  0.38788  1.0000
  Fe  Fe111     1.0  0.55276  0.90778  0.17480  1.0000
  S   S218      1.0  0.59427  0.89521  0.17515  1.0000
  H   H1263     1.0  0.76608  0.79773  0.46874  1.0000
  Fe  Fe112     1.0  0.66417  0.79007  0.27769  1.0000
  S   S219      1.0  0.66643  0.75457  0.30891  1.0000
  S   S220      1.0  0.63286  0.81878  0.28851  1.0000
  Fe  Fe113     1.0  0.70701  0.77324  0.23167  1.0000
  S   S221      1.0  0.71256  0.73642  0.25860  1.0000
  S   S222      1.0  0.72664  0.78620  0.18350  1.0000
  Fe  Fe114     1.0  0.66961  0.73435  0.25912  1.0000
  S   S223      1.0  0.64970  0.69652  0.25321  1.0000
  Fe  Fe115     1.0  0.70931  0.75903  0.30693  1.0000
  S   S224      1.0  0.73257  0.74457  0.35255  1.0000
  S   S225      1.0  0.66421  0.76939  0.22829  1.0000
  S   S226      1.0  0.70679  0.79644  0.27955  1.0000
  C   C733      1.0  0.93198  0.73356  0.12920  1.0000
  H   H1264     1.0  0.54796  0.00816  0.35843  1.0000
  H   H1265     1.0  0.54433  0.97377  0.24229  1.0000
  H   H1266     1.0  0.54296  0.72791  0.11180  1.0000
  H   H1267     1.0  0.91890  0.74982  0.13261  1.0000
  H   H1268     1.0  0.54506  0.70090  0.18615  1.0000
  C   C734      1.0  0.57028  0.81626  0.19181  1.0000
  C   C735      1.0  0.68474  0.70708  0.14536  1.0000
  H   H1269     1.0  0.95376  0.67785  0.20379  1.0000
  H   H1270     1.0  0.54255  0.82513  0.15099  1.0000
  H   H1271     1.0  0.93120  0.69419  0.11611  1.0000
  C   C736      1.0  0.60589  0.87524  0.20762  1.0000
  C   C737      1.0  0.59382  0.87393  0.23925  1.0000
  C   C738      1.0  0.60275  0.85703  0.26408  1.0000
  C   C739      1.0  0.62364  0.84109  0.25744  1.0000
  C   C740      1.0  0.63601  0.84268  0.22601  1.0000
  C   C741      1.0  0.62731  0.85989  0.20134  1.0000
  H   H1272     1.0  0.57765  0.88599  0.24461  1.0000
  H   H1273     1.0  0.59324  0.85608  0.28844  1.0000
  H   H1274     1.0  0.65224  0.83064  0.22068  1.0000
  H   H1275     1.0  0.63691  0.86094  0.17705  1.0000
  C   C742      1.0  0.79707  0.77421  0.42192  1.0000
  C   C743      1.0  0.78493  0.79049  0.39877  1.0000
  C   C744      1.0  0.76551  0.78175  0.37697  1.0000
  C   C745      1.0  0.75782  0.75655  0.37817  1.0000
  C   C746      1.0  0.76998  0.74025  0.40133  1.0000
  C   C747      1.0  0.78954  0.74895  0.42298  1.0000
  H   H1276     1.0  0.79051  0.81008  0.39778  1.0000
  H   H1277     1.0  0.75633  0.79456  0.35945  1.0000
  H   H1278     1.0  0.76422  0.72071  0.40247  1.0000
  H   H1279     1.0  0.79864  0.73617  0.44058  1.0000
  C   C748      1.0  0.79288  0.74268  0.13533  1.0000
  C   C749      1.0  0.78070  0.76209  0.11770  1.0000
  C   C750      1.0  0.76025  0.77512  0.13274  1.0000
  C   C751      1.0  0.75192  0.76891  0.16551  1.0000
  C   C752      1.0  0.76410  0.74952  0.18322  1.0000
  C   C753      1.0  0.78448  0.73635  0.16806  1.0000
  H   H1280     1.0  0.78683  0.76691  0.09235  1.0000
  H   H1281     1.0  0.75082  0.79010  0.11895  1.0000
  H   H1282     1.0  0.75801  0.74488  0.20870  1.0000
  H   H1283     1.0  0.79387  0.72135  0.18186  1.0000
  C   C754      1.0  0.90058  0.83449  0.06975  1.0000
  C   C755      1.0  0.90771  0.85997  0.07165  1.0000
  C   C756      1.0  0.92741  0.86783  0.09356  1.0000
  C   C757      1.0  0.93983  0.85029  0.11428  1.0000
  C   C758      1.0  0.93278  0.82481  0.11225  1.0000
  C   C759      1.0  0.91350  0.81690  0.08986  1.0000
  H   H1284     1.0  0.89788  0.87374  0.05620  1.0000
  H   H1285     1.0  0.93259  0.88752  0.09494  1.0000
  H   H1286     1.0  0.94216  0.81112  0.12827  1.0000
  H   H1287     1.0  0.90840  0.79726  0.08860  1.0000
  S   S227      1.0  0.98625  0.97016  0.06536  1.0000
  H   H1288     1.0  0.98864  0.82108  0.09538  1.0000
  H   H1289     1.0  0.87379  0.68500  0.09617  1.0000
  H   H1290     1.0  0.58061  0.95008  0.39551  1.0000
  N   N53       1.0  0.83248  0.82930  0.14317  1.0000
  C   C760      1.0  0.83148  0.84748  0.11366  1.0000
  C   C761      1.0  0.84889  0.84139  0.17002  1.0000
  C   C762      1.0  0.80557  0.82639  0.15645  1.0000
  C   C763      1.0  0.84295  0.80446  0.13061  1.0000
  C   C764      1.0  0.81370  0.84022  0.08408  1.0000
  C   C765      1.0  0.87693  0.84633  0.15985  1.0000
  C   C766      1.0  0.80189  0.80981  0.18813  1.0000
  C   C767      1.0  0.85425  0.78622  0.15733  1.0000
  H   H1291     1.0  0.82558  0.86662  0.12229  1.0000
  H   H1292     1.0  0.85074  0.84988  0.10209  1.0000
  H   H1293     1.0  0.84953  0.83026  0.19367  1.0000
  H   H1294     1.0  0.84048  0.85979  0.17793  1.0000
  H   H1295     1.0  0.79714  0.84520  0.16234  1.0000
  H   H1296     1.0  0.79301  0.81787  0.13692  1.0000
  H   H1297     1.0  0.82798  0.79393  0.11651  1.0000
  H   H1298     1.0  0.85844  0.80779  0.11169  1.0000
  H   H1299     1.0  0.79323  0.84228  0.09097  1.0000
  H   H1300     1.0  0.81729  0.85323  0.06250  1.0000
  H   H1301     1.0  0.81752  0.82096  0.07455  1.0000
  H   H1302     1.0  0.87866  0.86171  0.14094  1.0000
  H   H1303     1.0  0.88782  0.85251  0.18250  1.0000
  H   H1304     1.0  0.88642  0.82918  0.15011  1.0000
  H   H1305     1.0  0.81263  0.81657  0.21044  1.0000
  H   H1306     1.0  0.80628  0.78979  0.18276  1.0000
  H   H1307     1.0  0.78137  0.81040  0.19554  1.0000
  H   H1308     1.0  0.84655  0.76704  0.15285  1.0000
  H   H1309     1.0  0.85001  0.79078  0.18402  1.0000
  H   H1310     1.0  0.87530  0.78468  0.15402  1.0000
  C   C768      1.0  0.62852  0.68643  0.22107  1.0000
  C   C769      1.0  0.53759  0.82990  0.23198  1.0000
  C   C770      1.0  0.56458  0.96166  0.38551  1.0000
  H   H1311     1.0  0.53926  0.00201  0.19022  1.0000
  C   C771      1.0  0.54451  0.00444  0.38566  1.0000
  C   C772      1.0  0.70857  0.67698  0.20512  1.0000
  S   S228      1.0  0.88845  0.76673  0.48479  1.0000
  H   H1312     1.0  0.84875  0.72649  0.19473  1.0000
  H   H1313     1.0  0.69640  0.73520  0.18341  1.0000
  H   H1314     1.0  0.58590  0.82686  0.20425  1.0000
  H   H1315     1.0  0.87297  0.70889  0.21621  1.0000
  C   C773      1.0  0.94704  0.96457  0.47773  1.0000
  C   C774      1.0  0.88175  0.71849  0.16285  1.0000
  H   H1316     1.0  0.74566  0.75858  0.46226  1.0000
  S   S229      1.0  0.01202  0.90495  0.10035  1.0000
  N   N54       1.0  0.90219  0.69942  0.15461  1.0000
  H   H1317     1.0  0.89039  0.73667  0.17068  1.0000
  H   H1318     1.0  0.52444  0.99975  0.12825  1.0000
  H   H1319     1.0  0.85225  0.69382  0.18591  1.0000
  H   H1320     1.0  0.57464  0.83563  0.14346  1.0000
  H   H1321     1.0  0.67509  0.70795  0.12023  1.0000
  C   C775      1.0  0.99647  0.79006  0.14620  1.0000
  H   H1322     1.0  0.54685  0.95162  0.39329  1.0000
  H   H1323     1.0  0.58062  0.95093  0.45223  1.0000
  C   C776      1.0  0.91724  0.70867  0.12445  1.0000
  H   H1324     1.0  0.98532  0.78371  0.12388  1.0000
  H   H1325     1.0  0.54929  0.98292  0.07908  1.0000
  H   H1326     1.0  0.73275  0.72476  0.12950  1.0000
  H   H1327     1.0  0.54278  0.77822  0.18107  1.0000
  H   H1328     1.0  0.60120  0.77997  0.22165  1.0000
  H   H1329     1.0  0.52774  0.75166  0.22186  1.0000
  H   H1330     1.0  0.92532  0.71468  0.19532  1.0000
  C   C777      1.0  0.53473  0.98684  0.25908  1.0000
  H   H1331     1.0  0.69748  0.74665  0.14006  1.0000
  H   H1332     1.0  0.92921  0.95630  0.46760  1.0000
  H   H1333     1.0  0.94585  0.73268  0.15031  1.0000
  H   H1334     1.0  0.57858  0.80861  0.25884  1.0000
  H   H1335     1.0  0.87027  0.72286  0.13989  1.0000
  S   S230      1.0  0.52461  0.89603  0.21467  1.0000
  C   C778      1.0  0.73358  0.76300  0.48479  1.0000
  Fe  Fe116     1.0  0.83428  0.74645  0.99123  1.0000
  H   H1336     1.0  0.67077  0.69778  0.16237  1.0000
  S   S231      1.0  0.82013  0.78694  0.45034  1.0000
  H   H1337     1.0  0.94753  0.98755  0.13759  1.0000
  C   C779      1.0  0.86309  0.71118  0.19160  1.0000
  H   H1338     1.0  0.52359  0.69345  0.22125  1.0000
  C   C780      1.0  0.55973  0.98561  0.43805  1.0000
  H   H1339     1.0  0.59068  0.76245  0.25744  1.0000
  H   H1340     1.0  0.55383  0.78723  0.26632  1.0000
  H   H1341     1.0  0.53671  0.69575  0.11600  1.0000
  C   C781      1.0  0.00584  0.98908  0.25978  1.0000
  S   S232      1.0  0.01484  0.90228  0.18399  1.0000
  H   H1342     1.0  0.95786  0.97234  0.45579  1.0000
  H   H1343     1.0  0.56442  0.93992  0.33890  1.0000
  C   C782      1.0  0.93391  0.68657  0.04702  1.0000
  S   S233      1.0  0.99156  0.96620  0.23247  1.0000
  C   C783      1.0  0.72296  0.69016  0.17603  1.0000
  H   H1344     1.0  0.74125  0.81432  0.48971  1.0000
  H   H1345     1.0  0.66774  0.74249  0.16109  1.0000
  C   C784      1.0  0.75164  0.69300  0.10777  1.0000
  C   C785      1.0  0.60524  0.69255  0.16839  1.0000
  H   H1346     1.0  0.60650  0.98528  0.39716  1.0000
  C   C786      1.0  0.53670  0.99071  0.06007  1.0000
  H   H1347     1.0  0.55108  0.97050  0.33357  1.0000
  H   H1348     1.0  0.97326  0.69799  0.05179  1.0000
  C   C787      1.0  0.70945  0.77650  0.47164  1.0000
  H   H1349     1.0  0.76208  0.70519  0.08946  1.0000
  C   C788      1.0  0.62168  0.70183  0.19373  1.0000
  H   H1350     1.0  0.57986  0.80017  0.17891  1.0000
  H   H1351     1.0  0.57395  0.75905  0.21808  1.0000
  H   H1352     1.0  0.62913  0.72077  0.19211  1.0000
  N   N55       1.0  0.56503  0.98778  0.40049  1.0000
  C   C789      1.0  0.56621  0.79457  0.24584  1.0000
  H   H1353     1.0  0.95722  0.68909  0.16151  1.0000
  H   H1354     1.0  0.99013  0.80911  0.15365  1.0000
  H   H1355     1.0  0.76475  0.69013  0.12945  1.0000
  H   H1356     1.0  0.60014  0.70444  0.14719  1.0000
  H   H1357     1.0  0.71626  0.71134  0.09460  1.0000
  H   H1358     1.0  0.97030  0.93137  0.47593  1.0000
  Fe  Fe117     1.0  0.00324  0.94324  0.18530  1.0000
  C   C790      1.0  0.51841  0.77043  0.22338  1.0000
  C   C791      1.0  0.53260  0.78964  0.20060  1.0000
  H   H1359     1.0  0.52483  0.81510  0.28179  1.0000
  H   H1360     1.0  0.51623  0.77585  0.25022  1.0000
  H   H1361     1.0  0.94310  0.73735  0.10567  1.0000
  C   C792      1.0  0.55970  0.83320  0.16327  1.0000
  H   H1362     1.0  0.93996  0.90199  0.49012  1.0000
  H   H1363     1.0  0.55165  0.84346  0.24251  1.0000
  C   C793      1.0  0.94358  0.68004  0.17929  1.0000
  N   N56       1.0  0.55118  0.80712  0.21788  1.0000
  C   C794      1.0  0.56648  0.95993  0.34661  1.0000
  S   S234      1.0  0.52843  0.89514  0.13106  1.0000
  H   H1364     1.0  0.58999  0.00651  0.34014  1.0000
  C   C795      1.0  0.72665  0.70650  0.11838  1.0000
  Fe  Fe118     1.0  0.00021  0.94532  0.10810  1.0000
  C   C796      1.0  0.51723  0.82528  0.25948  1.0000
  C   C797      1.0  0.68718  0.73433  0.15823  1.0000
  C   C798      1.0  0.52705  0.71411  0.11295  1.0000
  H   H1365     1.0  0.55535  0.85240  0.17275  1.0000
  H   H1366     1.0  0.58541  0.96616  0.33729  1.0000
  H   H1367     1.0  0.71426  0.79336  0.45629  1.0000
  H   H1368     1.0  0.52033  0.73169  0.16155  1.0000
  H   H1369     1.0  0.99069  0.99455  0.15910  1.0000
  H   H1370     1.0  0.99132  0.77796  0.16816  1.0000
  H   H1371     1.0  0.54130  0.97589  0.44308  1.0000
  H   H1372     1.0  0.51791  0.80072  0.18656  1.0000
  C   C799      1.0  0.91927  0.69612  0.18502  1.0000
  C   C800      1.0  0.58382  0.77273  0.23463  1.0000
  H   H1373     1.0  0.94657  0.00470  0.17643  1.0000
  H   H1374     1.0  0.72970  0.70875  0.18530  1.0000
  H   H1375     1.0  0.01470  0.84010  0.14446  1.0000
  H   H1376     1.0  0.71621  0.68363  0.22977  1.0000
  H   H1377     1.0  0.98652  0.00761  0.11860  1.0000
  H   H1378     1.0  0.59918  0.97956  0.45707  1.0000
  H   H1379     1.0  0.52727  0.84017  0.21170  1.0000
  N   N57       1.0  0.70935  0.69235  0.14252  1.0000
  H   H1380     1.0  0.00034  0.82855  0.05429  1.0000
  C   C801      1.0  0.57985  0.97116  0.45906  1.0000
  C   C802      1.0  0.95941  0.68346  0.05743  1.0000
  H   H1381     1.0  0.68809  0.68175  0.20615  1.0000
  C   C803      1.0  0.00518  0.82897  0.08167  1.0000
  H   H1382     1.0  0.74097  0.67926  0.17305  1.0000
  H   H1383     1.0  0.90870  0.68686  0.20612  1.0000
  C   C804      1.0  0.59110  0.99978  0.39611  1.0000
  H   H1384     1.0  0.97125  0.99401  0.28889  1.0000
  C   C805      1.0  0.99076  0.00021  0.28540  1.0000
  C   C806      1.0  0.53174  0.68677  0.19691  1.0000
  C   C807      1.0  0.54782  0.00795  0.27153  1.0000
  H   H1385     1.0  0.55787  0.00470  0.44956  1.0000
  H   H1386     1.0  0.57424  0.97210  0.48626  1.0000
  C   C808      1.0  0.01489  0.00521  0.48009  1.0000
  Fe  Fe119     1.0  0.88629  0.73194  0.51720  1.0000
  H   H1387     1.0  0.58419  0.93297  0.83116  1.0000
  H   H1388     1.0  0.95230  0.96746  0.55048  1.0000
  Fe  Fe120     1.0  0.84958  0.75625  0.56692  1.0000
  S   S235      1.0  0.84935  0.79356  0.53964  1.0000
  S   S236      1.0  0.83030  0.74254  0.61509  1.0000
  H   H1389     1.0  0.79023  0.74575  0.72626  1.0000
  H   H1390     1.0  0.52791  0.80138  0.61698  1.0000
  Fe  Fe121     1.0  0.89188  0.78788  0.53406  1.0000
  S   S237      1.0  0.92489  0.81572  0.53496  1.0000
  S   S238      1.0  0.84323  0.73333  0.51990  1.0000
  S   S239      1.0  0.89236  0.75283  0.56566  1.0000
  H   H1391     1.0  0.78108  0.76929  0.54407  1.0000
  S   S240      1.0  0.96154  0.89266  0.64761  1.0000
  H   H1392     1.0  0.86447  0.71194  0.69763  1.0000
  H   H1393     1.0  0.84741  0.68294  0.59445  1.0000
  S   S241      1.0  0.53356  0.95604  0.65805  1.0000
  H   H1394     1.0  0.57832  0.89508  0.79099  1.0000
  H   H1395     1.0  0.90881  0.71084  0.60878  1.0000
  H   H1396     1.0  0.59962  0.92496  0.73840  1.0000
  H   H1397     1.0  0.92390  0.95806  0.59867  1.0000
  Fe  Fe122     1.0  0.54582  0.91538  0.66429  1.0000
  S   S242      1.0  0.58704  0.90209  0.66846  1.0000
  H   H1398     1.0  0.96655  0.70488  0.60221  1.0000
  Fe  Fe123     1.0  0.66164  0.79243  0.75781  1.0000
  S   S243      1.0  0.67065  0.76203  0.79569  1.0000
  S   S244      1.0  0.62852  0.81867  0.77067  1.0000
  Fe  Fe124     1.0  0.70511  0.77534  0.71129  1.0000
  S   S245      1.0  0.71709  0.74338  0.74530  1.0000
  S   S246      1.0  0.72473  0.78896  0.66339  1.0000
  Fe  Fe125     1.0  0.67439  0.73670  0.75007  1.0000
  H   H1399     1.0  0.73495  0.75394  0.58010  1.0000
  Fe  Fe126     1.0  0.71231  0.77119  0.78824  1.0000
  S   S247      1.0  0.74110  0.78433  0.82859  1.0000
  S   S248      1.0  0.66295  0.76666  0.71286  1.0000
  S   S249      1.0  0.70271  0.80356  0.75350  1.0000
  N   N58       1.0  0.54576  0.81133  0.66467  1.0000
  H   H1400     1.0  0.56348  0.83049  0.59961  1.0000
  C   C809      1.0  0.83957  0.77274  0.70168  1.0000
  H   H1401     1.0  0.57695  0.82277  0.69726  1.0000
  N   N59       1.0  0.89131  0.68235  0.64040  1.0000
  C   C810      1.0  0.59683  0.90300  0.79929  1.0000
  H   H1402     1.0  0.00489  0.00729  0.91035  1.0000
  C   C811      1.0  0.00103  0.95591  0.88441  1.0000
  H   H1403     1.0  0.54879  0.97940  0.81966  1.0000
  H   H1404     1.0  0.68742  0.79470  0.93710  1.0000
  C   C812      1.0  0.00486  0.98860  0.54620  1.0000
  C   C813      1.0  0.59753  0.87799  0.69623  1.0000
  C   C814      1.0  0.58330  0.87084  0.72473  1.0000
  C   C815      1.0  0.59308  0.85270  0.74739  1.0000
  C   C816      1.0  0.61680  0.84105  0.74127  1.0000
  C   C817      1.0  0.63072  0.84774  0.71234  1.0000
  C   C818      1.0  0.62125  0.86635  0.69019  1.0000
  H   H1405     1.0  0.56495  0.87952  0.72959  1.0000
  H   H1406     1.0  0.58211  0.84748  0.76960  1.0000
  H   H1407     1.0  0.64902  0.83893  0.70734  1.0000
  H   H1408     1.0  0.63242  0.87178  0.66823  1.0000
  C   C819      1.0  0.78955  0.74874  0.91455  1.0000
  C   C820      1.0  0.77472  0.73340  0.89311  1.0000
  C   C821      1.0  0.75958  0.74385  0.86700  1.0000
  C   C822      1.0  0.75918  0.76990  0.86174  1.0000
  C   C823      1.0  0.77397  0.78528  0.88314  1.0000
  C   C824      1.0  0.78897  0.77483  0.90942  1.0000
  H   H1409     1.0  0.77501  0.71320  0.89676  1.0000
  H   H1410     1.0  0.74841  0.73170  0.85083  1.0000
  H   H1411     1.0  0.77393  0.80546  0.87935  1.0000
  H   H1412     1.0  0.80027  0.78693  0.92553  1.0000
  C   C825      1.0  0.80038  0.75500  0.62678  1.0000
  C   C826      1.0  0.79193  0.77818  0.61425  1.0000
  C   C827      1.0  0.76863  0.78835  0.62567  1.0000
  C   C828      1.0  0.75359  0.77533  0.64939  1.0000
  C   C829      1.0  0.76192  0.75202  0.66164  1.0000
  C   C830      1.0  0.78536  0.74198  0.65051  1.0000
  H   H1413     1.0  0.80365  0.78854  0.59642  1.0000
  H   H1414     1.0  0.76242  0.80657  0.61653  1.0000
  H   H1415     1.0  0.75031  0.74175  0.67965  1.0000
  H   H1416     1.0  0.79183  0.72402  0.66026  1.0000
  C   C831      1.0  0.93543  0.83399  0.56961  1.0000
  C   C832      1.0  0.96072  0.84280  0.56937  1.0000
  C   C833      1.0  0.96928  0.85973  0.59421  1.0000
  C   C834      1.0  0.95242  0.86863  0.61902  1.0000
  C   C835      1.0  0.92729  0.85928  0.61990  1.0000
  C   C836      1.0  0.91883  0.84188  0.59540  1.0000
  H   H1417     1.0  0.97367  0.83670  0.54957  1.0000
  H   H1418     1.0  0.98875  0.86633  0.59368  1.0000
  H   H1419     1.0  0.91415  0.86600  0.63910  1.0000
  H   H1420     1.0  0.89925  0.83537  0.59565  1.0000
  C   C837      1.0  0.55658  0.93945  0.76972  1.0000
  H   H1421     1.0  0.54282  0.82572  0.73434  1.0000
  H   H1422     1.0  0.58605  0.84089  0.63170  1.0000
  H   H1423     1.0  0.81502  0.81686  0.76704  1.0000
  C   C838      1.0  0.80020  0.75480  0.74798  1.0000
  C   C839      1.0  0.78678  0.74606  0.78077  1.0000
  C   C840      1.0  0.61171  0.67768  0.72229  1.0000
  H   H1424     1.0  0.81935  0.74592  0.74835  1.0000
  C   C841      1.0  0.91901  0.89519  0.53636  1.0000
  H   H1425     1.0  0.80033  0.79597  0.79509  1.0000
  H   H1426     1.0  0.78778  0.72520  0.78242  1.0000
  H   H1427     1.0  0.79613  0.75355  0.80384  1.0000
  H   H1428     1.0  0.76627  0.75106  0.78096  1.0000
  H   H1429     1.0  0.78002  0.83356  0.74490  1.0000
  H   H1430     1.0  0.90628  0.72315  0.68484  1.0000
  H   H1431     1.0  0.69459  0.85041  0.80742  1.0000
  H   H1432     1.0  0.59947  0.98158  0.72281  1.0000
  H   H1433     1.0  0.93694  0.72078  0.55823  1.0000
  N   N60       1.0  0.58334  0.94734  0.77928  1.0000
  H   H1434     1.0  0.61808  0.83326  0.88737  1.0000
  H   H1435     1.0  0.82209  0.80895  0.70992  1.0000
  H   H1436     1.0  0.91516  0.74395  0.65131  1.0000
  S   S250      1.0  0.90666  0.69465  0.50758  1.0000
  H   H1437     1.0  0.83400  0.75331  0.69444  1.0000
  H   H1438     1.0  0.80306  0.78675  0.68795  1.0000
  H   H1439     1.0  0.76377  0.79095  0.76312  1.0000
  H   H1440     1.0  0.91942  0.67838  0.68093  1.0000
  H   H1441     1.0  0.58851  0.78604  0.72318  1.0000
  H   H1442     1.0  0.55005  0.85192  0.67010  1.0000
  C   C842      1.0  0.63716  0.68575  0.71892  1.0000
  C   C843      1.0  0.59482  0.93137  0.80700  1.0000
  H   H1443     1.0  0.84334  0.76737  0.78150  1.0000
  C   C844      1.0  0.53816  0.93187  0.79880  1.0000
  H   H1444     1.0  0.98154  0.95482  0.50383  1.0000
  C   C845      1.0  0.52489  0.82805  0.71979  1.0000
  C   C846      1.0  0.57119  0.80656  0.68143  1.0000
  H   H1445     1.0  0.00172  0.88818  0.53984  1.0000
  H   H1446     1.0  0.87301  0.70084  0.57512  1.0000
  H   H1447     1.0  0.57676  0.97177  0.84523  1.0000
  C   C847      1.0  0.95902  0.69203  0.58349  1.0000
  H   H1448     1.0  0.71045  0.84553  0.89906  1.0000
  Fe  Fe127     1.0  0.00068  0.91120  0.64501  1.0000
  H   H1449     1.0  0.58673  0.80558  0.66215  1.0000
  H   H1450     1.0  0.00100  0.98242  0.57176  1.0000
  C   C848      1.0  0.73375  0.78398  0.54176  1.0000
  H   H1451     1.0  0.53460  0.91125  0.79832  1.0000
  H   H1452     1.0  0.61443  0.93813  0.81316  1.0000
  H   H1453     1.0  0.60346  0.80395  0.87675  1.0000
  H   H1454     1.0  0.69563  0.86186  0.84970  1.0000
  H   H1455     1.0  0.93420  0.71669  0.65893  1.0000
  H   H1456     1.0  0.95267  0.94035  0.60016  1.0000
  N   N61       1.0  0.66944  0.81675  0.87675  1.0000
  C   C849      1.0  0.64497  0.80164  0.87775  1.0000
  C   C850      1.0  0.69119  0.79836  0.88129  1.0000
  C   C851      1.0  0.67130  0.82860  0.84204  1.0000
  C   C852      1.0  0.66839  0.83657  0.90415  1.0000
  C   C853      1.0  0.62000  0.81638  0.87107  1.0000
  C   C854      1.0  0.69089  0.78291  0.91442  1.0000
  C   C855      1.0  0.69528  0.84438  0.83439  1.0000
  S   S251      1.0  0.00302  0.95244  0.63217  1.0000
  H   H1457     1.0  0.64573  0.78593  0.85901  1.0000
  H   H1458     1.0  0.64232  0.79259  0.90296  1.0000
  H   H1459     1.0  0.71006  0.80765  0.88004  1.0000
  H   H1460     1.0  0.69151  0.78459  0.86003  1.0000
  H   H1461     1.0  0.67016  0.81385  0.82208  1.0000
  H   H1462     1.0  0.65496  0.84153  0.83731  1.0000
  H   H1463     1.0  0.65661  0.85290  0.89571  1.0000
  H   H1464     1.0  0.65855  0.82887  0.92702  1.0000
  H   H1465     1.0  0.78737  0.72552  0.53512  1.0000
  C   C856      1.0  0.69425  0.84705  0.91695  1.0000
  H   H1466     1.0  0.55735  0.92301  0.75224  1.0000
  H   H1467     1.0  0.71877  0.79828  0.53612  1.0000
  H   H1468     1.0  0.69959  0.83815  0.94143  1.0000
  H   H1469     1.0  0.93124  0.88937  0.55759  1.0000
  H   H1470     1.0  0.60424  0.98098  0.79289  1.0000
  H   H1471     1.0  0.57369  0.96063  0.71068  1.0000
  C   C857      1.0  0.54160  0.79322  0.63568  1.0000
  C   C858      1.0  0.89782  0.70950  0.63281  1.0000
  C   C859      1.0  0.93108  0.68451  0.53547  1.0000
  H   H1472     1.0  0.69197  0.86743  0.92264  1.0000
  H   H1473     1.0  0.54171  0.75729  0.66463  1.0000
  C   C860      1.0  0.52360  0.81006  0.68919  1.0000
  H   H1474     1.0  0.60094  0.68272  0.74474  1.0000
  C   C861      1.0  0.86682  0.68184  0.58324  1.0000
  C   C862      1.0  0.59407  0.96171  0.71797  1.0000
  H   H1475     1.0  0.92131  0.95723  0.53806  1.0000
  C   C863      1.0  0.54617  0.83769  0.65013  1.0000
  H   H1476     1.0  0.60539  0.95540  0.69563  1.0000
  H   H1477     1.0  0.92303  0.92551  0.58834  1.0000
  C   C864      1.0  0.77265  0.76217  0.52007  1.0000
  H   H1478     1.0  0.67652  0.76759  0.91332  1.0000
  C   C865      1.0  0.98734  0.89731  0.52322  1.0000
  H   H1479     1.0  0.57576  0.98684  0.76977  1.0000
  H   H1480     1.0  0.53157  0.75487  0.62170  1.0000
  H   H1481     1.0  0.88016  0.72079  0.62865  1.0000
  C   C866      1.0  0.56623  0.84267  0.62209  1.0000
  C   C867      1.0  0.86727  0.68069  0.66143  1.0000
  C   C868      1.0  0.76963  0.73340  0.52387  1.0000
  H   H1482     1.0  0.61181  0.89901  0.78004  1.0000
  H   H1483     1.0  0.60252  0.89277  0.82266  1.0000
  H   H1484     1.0  0.53801  0.99737  0.57877  1.0000
  H   H1485     1.0  0.76367  0.78059  0.72060  1.0000
  C   C869      1.0  0.97313  0.91760  0.54388  1.0000
  H   H1486     1.0  0.72722  0.74442  0.49433  1.0000
  H   H1487     1.0  0.75375  0.72786  0.54071  1.0000
  H   H1488     1.0  0.98764  0.93137  0.55298  1.0000
  C   C870      1.0  0.81321  0.79639  0.77249  1.0000
  H   H1489     1.0  0.52238  0.84798  0.71205  1.0000
  N   N62       1.0  0.80157  0.78292  0.74267  1.0000
  C   C871      1.0  0.77446  0.79242  0.73884  1.0000
  C   C872      1.0  0.77144  0.82001  0.72692  1.0000
  C   C873      1.0  0.65086  0.67909  0.68974  1.0000
  S   S252      1.0  0.80856  0.73416  0.94672  1.0000
  H   H1490     1.0  0.85374  0.77214  0.72234  1.0000
  H   H1491     1.0  0.84226  0.79181  0.81128  1.0000
  H   H1492     1.0  0.77921  0.82306  0.70105  1.0000
  H   H1493     1.0  0.84925  0.78091  0.67908  1.0000
  S   S253      1.0  0.65265  0.69967  0.75413  1.0000
  H   H1494     1.0  0.70468  0.76980  0.57625  1.0000
  C   C874      1.0  0.60036  0.94453  0.74843  1.0000
  H   H1495     1.0  0.67059  0.68485  0.68705  1.0000
  C   C875      1.0  0.84004  0.78784  0.78378  1.0000
  H   H1496     1.0  0.75076  0.82460  0.72541  1.0000
  C   C876      1.0  0.81587  0.78889  0.71025  1.0000
  C   C877      1.0  0.94199  0.70106  0.55879  1.0000
  H   H1497     1.0  0.85514  0.79820  0.76969  1.0000
  H   H1498     1.0  0.56420  0.86244  0.61327  1.0000
  H   H1499     1.0  0.96452  0.98485  0.92278  1.0000
  C   C878      1.0  0.57416  0.78249  0.70299  1.0000
  N   N63       1.0  0.74910  0.77718  0.51067  1.0000
  H   H1500     1.0  0.62076  0.94794  0.75505  1.0000
  H   H1501     1.0  0.77018  0.82373  0.53876  1.0000
  H   H1502     1.0  0.74605  0.79374  0.56044  1.0000
  C   C879      1.0  0.58407  0.97464  0.78978  1.0000
  H   H1503     1.0  0.71327  0.83359  0.83732  1.0000
  H   H1504     1.0  0.58115  0.76653  0.68729  1.0000
  H   H1505     1.0  0.55973  0.79003  0.62143  1.0000
  C   C880      1.0  0.93982  0.95052  0.54866  1.0000
  H   H1506     1.0  0.71317  0.74741  0.54547  1.0000
  H   H1507     1.0  0.52091  0.79094  0.69981  1.0000
  C   C881      1.0  0.91420  0.72380  0.65890  1.0000
  H   H1508     1.0  0.54699  0.95457  0.75491  1.0000
  H   H1509     1.0  0.99870  0.97566  0.87597  1.0000
  C   C882      1.0  0.72127  0.76229  0.56173  1.0000
  C   C883      1.0  0.93464  0.94274  0.58579  1.0000
  H   H1510     1.0  0.54400  0.93739  0.82456  1.0000
  H   H1511     1.0  0.55673  0.77684  0.71683  1.0000
  H   H1512     1.0  0.98826  0.94758  0.93595  1.0000
  H   H1513     1.0  0.90103  0.90338  0.54658  1.0000
  H   H1514     1.0  0.70983  0.77364  0.91760  1.0000
  C   C884      1.0  0.56969  0.98179  0.82250  1.0000
  H   H1515     1.0  0.96635  0.90822  0.56727  1.0000
  H   H1516     1.0  0.61813  0.82175  0.84402  1.0000
  C   C885      1.0  0.97399  0.99587  0.94302  1.0000
  H   H1517     1.0  0.76729  0.72431  0.49871  1.0000
  C   C886      1.0  0.53077  0.76701  0.64460  1.0000
  H   H1518     1.0  0.97008  0.98711  0.96799  1.0000
  H   H1519     1.0  0.00270  0.96539  0.98864  1.0000
  H   H1520     1.0  0.52711  0.84275  0.63950  1.0000
  C   C887      1.0  0.00630  0.95306  0.92281  1.0000
  H   H1521     1.0  0.52992  0.99682  0.71730  1.0000
  S   S254      1.0  0.52223  0.90210  0.62039  1.0000
  H   H1522     1.0  0.91429  0.87734  0.52306  1.0000
  H   H1523     1.0  0.98287  0.94626  0.87791  1.0000
  H   H1524     1.0  0.97428  0.88226  0.51447  1.0000
  S   S255      1.0  0.51623  0.90593  0.70320  1.0000
  C   C888      1.0  0.52987  0.00137  0.55416  1.0000
  N   N64       1.0  0.95190  0.93116  0.52553  1.0000
  H   H1525     1.0  0.88655  0.68751  0.71084  1.0000
  C   C889      1.0  0.86835  0.69136  0.69769  1.0000
  C   C890      1.0  0.52448  0.00251  0.74264  1.0000
  H   H1526     1.0  0.79577  0.80671  0.51764  1.0000
  S   S256      1.0  0.87448  0.76207  0.98944  1.0000
  C   C891      1.0  0.77759  0.81709  0.51400  1.0000
  C   C892      1.0  0.93210  0.91343  0.51141  1.0000
  H   H1527     1.0  0.57278  0.00216  0.82747  1.0000
  H   H1528     1.0  0.78783  0.76455  0.50047  1.0000
  H   H1529     1.0  0.85149  0.69123  0.64891  1.0000
  H   H1530     1.0  0.91632  0.92420  0.49936  1.0000
  C   C893      1.0  0.00284  0.99883  0.93597  1.0000
  H   H1531     1.0  0.85358  0.68190  0.71346  1.0000
  H   H1532     1.0  0.78245  0.83409  0.49886  1.0000
  H   H1533     1.0  0.99799  0.90549  0.50153  1.0000
  H   H1534     1.0  0.51922  0.94081  0.79438  1.0000
  C   C894      1.0  0.98989  0.00774  0.53165  1.0000
  H   H1535     1.0  0.94248  0.98085  0.49432  1.0000
  C   C895      1.0  0.96393  0.94485  0.49586  1.0000
  Fe  Fe128     1.0  0.84581  0.77020  0.49184  1.0000
  C   C896      1.0  0.75771  0.80146  0.49422  1.0000
  H   H1536     1.0  0.69611  0.78156  0.49243  1.0000
