data_image0
_chemical_formula_structural       FeSFeSFeSHCH2SH2SHCHCH2C2HCH4C6H6CHCH3C5HCH3SH3C2NH4CHCHCSCHCH3SC3H2SHNC2H3CH5FeSNCH3CH2CH6C2HCH2CSCS2CFeSCFeSFeS2FeSFeHS2FeH2C2H2C7H5NC5H3NC2HCHCH4CH2SCHCH4CH7CH5C3H6CH9C3H10FeSHFeS2FeSFeS3CHC4H2C2H3C4HC3H2C2H4SH3C2H3CH4C2H2NH4CH3CH2CHCH4C2HC2NH7CH2CH2CH4C2H3CH3FeSCFeS2FeSFeHS4C6H4C2HC4H5SH2SNC8H9CH11CHCH2CNH3CH2CHCHNCH3CHC2HCH3CFeCH3SCHCHCH2CH3CH5FeNCSCHC2H7C2H2CH4FeSFeS2FeHFeS3FeHSFeS2C6H8SC3HNH3C3H3FeHCH2NC7H8CH2SH3CH5C2H3CNSCH8CH5CHC2HFeHC2H2CSHCSH5CH2FeS2Fe2S2H2CHCSC3HC2H2C2H2C2HCH2C3H2SHCHS2CH2NC8H21C2SHFeHC4H3CH5CNC2H2CH3CSHFeCS2CSFeSFeS2FeSFeS3C2HCH4C8H4C6H6C2H3CH4CH6CH3C2HCH2CH12CHNHCNC8H10CH3CFeHSC3NCH2CH2CHCFeC2FeCFeS2Fe2S2H4CHCHC7H4SH2NH3NCH2S2H3CH3CNC3H2CHC3H10CH2CHC2HCHC2H10CHC2H7CH2CH6FeS2FeCFeS3CSHCHC7H5SHC2H3CH2CHSH4C3FeSH9CNH10FeHFeS2FeS2FeSFeS3CHC4H3C3H4CHSCHCHC2H4C5H4CH2CHCNC2H3C2H2CH2CHNH3CH4CH2CH8C4H8SHSCHC2HFeSFeS2FeSFeS3CH3C8HCH3C2SC2HCH2C3H2SH2CNH2CNH10C2SC2H10CHNC3H2CHCH4CH2CH5C2HCSHCH3CHCHCH2CH6CH2C3H2CH3C2HCH2FeSHFe2S2FeHSFeS2C6H5CHCNC6H6C2H2SHFeH3SHSH6CHSHFeH3FeH2CH2CSH3CNSHCH5SHCHC2HCSCH2C5NH6CNCH3C2H4CH3CH4
_chemical_formula_sum              "Fe64 S128 H768 C448 N32"
_cell_length_a       39.2131
_cell_length_b       39.3376
_cell_length_c       33.4724
_cell_angle_alpha    89.9608
_cell_angle_beta     90.1613
_cell_angle_gamma    89.8428

_space_group_name_H-M_alt    "P 1"
_space_group_IT_number       1

loop_
  _space_group_symop_operation_xyz
  'x, y, z'

loop_
  _atom_site_type_symbol
  _atom_site_label
  _atom_site_symmetry_multiplicity
  _atom_site_fract_x
  _atom_site_fract_y
  _atom_site_fract_z
  _atom_site_occupancy
  Fe  Fe1       1.0  0.05501  0.25153  0.24036  1.0000
  S   S1        1.0  0.08083  0.24442  0.29960  1.0000
  Fe  Fe2       1.0  0.07341  0.18860  0.28914  1.0000
  S   S2        1.0  0.11449  0.15290  0.31043  1.0000
  Fe  Fe3       1.0  0.02811  0.24264  0.32575  1.0000
  S   S3        1.0  0.05148  0.19529  0.22792  1.0000
  H   H1        1.0  0.09219  0.23749  0.44408  1.0000
  C   C1        1.0  0.03303  0.17992  0.42954  1.0000
  H   H2        1.0  0.16395  0.17731  0.13956  1.0000
  H   H3        1.0  0.15650  0.21810  0.29418  1.0000
  S   S4        1.0  0.15374  0.02121  0.21204  1.0000
  H   H4        1.0  0.19527  0.22346  0.26885  1.0000
  H   H5        1.0  0.17880  0.13459  0.20706  1.0000
  S   S5        1.0  0.02274  0.18631  0.31937  1.0000
  H   H6        1.0  0.07130  0.16148  0.38807  1.0000
  C   C2        1.0  0.03347  0.99534  0.24628  1.0000
  H   H7        1.0  0.11948  0.21538  0.36523  1.0000
  C   C3        1.0  0.19670  0.00494  0.46334  1.0000
  H   H8        1.0  0.09504  0.09707  0.46862  1.0000
  H   H9        1.0  0.21835  0.13982  0.23235  1.0000
  C   C4        1.0  0.18181  0.06372  0.41990  1.0000
  C   C5        1.0  0.12718  0.22194  0.49080  1.0000
  H   H10       1.0  0.16476  0.25758  0.26925  1.0000
  C   C6        1.0  0.09632  0.21478  0.46344  1.0000
  H   H11       1.0  0.17688  0.08663  0.40292  1.0000
  H   H12       1.0  0.16368  0.20809  0.37379  1.0000
  H   H13       1.0  0.14105  0.23620  0.40621  1.0000
  H   H14       1.0  0.18886  0.23423  0.14077  1.0000
  C   C7        1.0  0.12486  0.11669  0.28222  1.0000
  C   C8        1.0  0.14670  0.09233  0.29904  1.0000
  C   C9        1.0  0.15578  0.06317  0.27745  1.0000
  C   C10       1.0  0.14344  0.05837  0.23867  1.0000
  C   C11       1.0  0.12205  0.08306  0.22146  1.0000
  C   C12       1.0  0.11238  0.11201  0.24341  1.0000
  H   H15       1.0  0.15665  0.09593  0.32893  1.0000
  H   H16       1.0  0.17288  0.04465  0.29064  1.0000
  H   H17       1.0  0.11249  0.07943  0.19141  1.0000
  H   H18       1.0  0.09553  0.13071  0.23023  1.0000
  H   H19       1.0  0.13700  0.16521  0.17968  1.0000
  H   H20       1.0  0.06487  0.08350  0.31261  1.0000
  C   C13       1.0  0.18271  0.06512  0.46181  1.0000
  H   H21       1.0  0.21488  0.17932  0.17457  1.0000
  C   C14       1.0  0.09434  0.11740  0.44564  1.0000
  H   H22       1.0  0.13125  0.15894  0.39501  1.0000
  H   H23       1.0  0.12915  0.23485  0.22224  1.0000
  H   H24       1.0  0.13432  0.19318  0.23931  1.0000
  C   C15       1.0  0.14922  0.21579  0.22965  1.0000
  C   C16       1.0  0.13888  0.21229  0.38898  1.0000
  C   C17       1.0  0.20118  0.18608  0.20262  1.0000
  C   C18       1.0  0.19383  0.15272  0.22527  1.0000
  C   C19       1.0  0.06153  0.02916  0.29753  1.0000
  H   H25       1.0  0.15942  0.25809  0.16979  1.0000
  C   C20       1.0  0.18120  0.23998  0.17212  1.0000
  H   H26       1.0  0.22048  0.19978  0.22054  1.0000
  H   H27       1.0  0.37287  0.30907  0.10678  1.0000
  H   H28       1.0  0.18084  0.15742  0.25412  1.0000
  S   S6        1.0  0.02017  0.26668  0.38644  1.0000
  H   H29       1.0  0.15344  0.17690  0.43563  1.0000
  H   H30       1.0  0.08712  0.05593  0.34547  1.0000
  H   H31       1.0  0.99675  0.28335  0.46564  1.0000
  C   C21       1.0  0.14838  0.18771  0.16460  1.0000
  C   C22       1.0  0.19646  0.00371  0.42140  1.0000
  N   N1        1.0  0.09837  0.18274  0.43884  1.0000
  H   H32       1.0  0.07008  0.11448  0.42899  1.0000
  H   H33       1.0  0.23567  0.24633  0.18762  1.0000
  H   H34       1.0  0.02962  0.15630  0.44705  1.0000
  H   H35       1.0  0.01213  0.05088  0.21710  1.0000
  C   C23       1.0  0.11828  0.20714  0.14525  1.0000
  H   H36       1.0  0.10268  0.18906  0.12749  1.0000
  C   C24       1.0  0.06318  0.05854  0.32782  1.0000
  H   H37       1.0  0.20658  0.26768  0.22164  1.0000
  C   C25       1.0  0.09720  0.15244  0.46637  1.0000
  S   S7        1.0  0.07302  0.28522  0.18907  1.0000
  C   C26       1.0  0.06870  0.18247  0.41016  1.0000
  H   H38       1.0  0.12704  0.22718  0.12434  1.0000
  C   C27       1.0  0.16789  0.22960  0.26700  1.0000
  H   H39       1.0  0.10113  0.21855  0.16773  1.0000
  H   H40       1.0  0.06829  0.20613  0.39195  1.0000
  H   H41       1.0  0.11363  0.00099  0.44107  1.0000
  S   S8        1.0  0.00223  0.25491  0.26728  1.0000
  C   C28       1.0  0.21109  0.26015  0.19035  1.0000
  C   C29       1.0  0.13116  0.18118  0.41547  1.0000
  C   C30       1.0  0.18810  0.03299  0.39974  1.0000
  H   H42       1.0  0.11602  0.11232  0.42533  1.0000
  H   H43       1.0  0.21414  0.28419  0.17324  1.0000
  S   S9        1.0  0.44569  0.29731  0.10517  1.0000
  H   H44       1.0  0.18789  0.03230  0.36744  1.0000
  N   N2        1.0  0.17040  0.20781  0.19323  1.0000
  C   C31       1.0  0.99913  0.02235  0.29755  1.0000
  C   C32       1.0  0.32969  0.30825  0.01004  1.0000
  H   H45       1.0  0.04192  0.05821  0.34949  1.0000
  H   H46       1.0  0.10437  0.32157  0.12471  1.0000
  H   H47       1.0  0.02731  0.20222  0.44862  1.0000
  C   C33       1.0  0.11089  0.30966  0.18714  1.0000
  H   H48       1.0  0.09475  0.99724  0.39263  1.0000
  H   H49       1.0  0.01331  0.17970  0.40573  1.0000
  H   H50       1.0  0.08481  0.03212  0.27899  1.0000
  H   H51       1.0  0.00287  0.00010  0.31782  1.0000
  H   H52       1.0  0.02487  0.11271  0.25012  1.0000
  Fe  Fe4       1.0  0.00089  0.19813  0.25918  1.0000
  S   S10       1.0  0.17789  0.10482  0.48572  1.0000
  N   N3        1.0  0.03012  0.02705  0.27152  1.0000
  C   C34       1.0  0.02740  0.05750  0.24412  1.0000
  H   H53       1.0  0.07080  0.01569  0.20261  1.0000
  H   H54       1.0  0.05301  0.06460  0.23268  1.0000
  H   H55       1.0  0.12452  0.30287  0.24887  1.0000
  C   C35       1.0  0.01077  0.09015  0.26131  1.0000
  H   H56       1.0  0.06495  0.00501  0.31461  1.0000
  H   H57       1.0  0.34763  0.30088  0.03435  1.0000
  C   C36       1.0  0.18932  0.03544  0.48355  1.0000
  H   H58       1.0  0.01049  0.09234  0.29415  1.0000
  H   H59       1.0  0.30373  0.29905  0.01757  1.0000
  H   H60       1.0  0.15110  0.22581  0.47392  1.0000
  H   H61       1.0  0.07580  0.15476  0.48800  1.0000
  H   H62       1.0  0.12055  0.15130  0.48520  1.0000
  H   H63       1.0  0.07370  0.21416  0.48338  1.0000
  C   C37       1.0  0.13179  0.31402  0.22063  1.0000
  C   C38       1.0  0.12043  0.32482  0.15077  1.0000
  H   H64       1.0  0.99499  0.04409  0.31790  1.0000
  C   C39       1.0  0.06597  0.99252  0.22057  1.0000
  H   H65       1.0  0.01173  0.99303  0.22502  1.0000
  H   H66       1.0  0.11498  0.29841  0.67559  1.0000
  C   C40       1.0  0.32814  0.15742  0.72721  1.0000
  S   S11       1.0  0.07802  0.03836  0.63305  1.0000
  C   C41       1.0  0.18667  0.27827  0.66837  1.0000
  S   S12       1.0  0.39468  0.29125  0.76083  1.0000
  S   S13       1.0  0.39205  0.27489  0.87856  1.0000
  C   C42       1.0  0.18683  0.29992  0.70679  1.0000
  Fe  Fe5       1.0  0.33980  0.29158  0.74005  1.0000
  S   S14       1.0  0.32191  0.25726  0.68951  1.0000
  C   C43       1.0  0.17788  0.25417  0.58675  1.0000
  Fe  Fe6       1.0  0.11356  0.08067  0.61494  1.0000
  S   S15       1.0  0.10228  0.10379  0.55537  1.0000
  Fe  Fe7       1.0  0.16741  0.13408  0.63542  1.0000
  S   S16       1.0  0.16079  0.16037  0.57654  1.0000
  S   S17       1.0  0.19565  0.15678  0.68871  1.0000
  Fe  Fe8       1.0  0.10487  0.15378  0.58656  1.0000
  S   S18       1.0  0.06991  0.19620  0.56750  1.0000
  Fe  Fe9       1.0  0.15888  0.10822  0.54933  1.0000
  H   H67       1.0  0.10878  0.20425  0.66134  1.0000
  S   S19       1.0  0.11094  0.13066  0.64700  1.0000
  S   S20       1.0  0.17076  0.08161  0.60765  1.0000
  Fe  Fe10      1.0  0.37305  0.29975  0.82207  1.0000
  H   H68       1.0  0.16269  0.22265  0.70205  1.0000
  H   H69       1.0  0.41480  0.19915  0.69148  1.0000
  C   C44       1.0  0.43123  0.29032  0.89719  1.0000
  C   C45       1.0  0.44116  0.28240  0.93640  1.0000
  H   H70       1.0  0.31340  0.17466  0.80437  1.0000
  H   H71       1.0  0.48000  0.28747  0.98190  1.0000
  C   C46       1.0  0.15994  0.23795  0.62303  1.0000
  C   C47       1.0  0.28347  0.23383  0.68812  1.0000
  C   C48       1.0  0.27496  0.21612  0.65302  1.0000
  C   C49       1.0  0.24735  0.19331  0.65224  1.0000
  C   C50       1.0  0.22843  0.18753  0.68688  1.0000
  C   C51       1.0  0.23631  0.20595  0.72169  1.0000
  C   C52       1.0  0.26338  0.22939  0.72218  1.0000
  H   H72       1.0  0.29048  0.21926  0.62658  1.0000
  H   H73       1.0  0.24157  0.17922  0.62530  1.0000
  H   H74       1.0  0.22165  0.20170  0.74857  1.0000
  H   H75       1.0  0.26947  0.24304  0.74930  1.0000
  H   H76       1.0  0.41482  0.12148  0.75098  1.0000
  N   N4        1.0  0.35275  0.16919  0.75905  1.0000
  C   C53       1.0  0.47254  0.29390  0.95167  1.0000
  C   C54       1.0  0.03217  0.20167  0.59496  1.0000
  C   C55       1.0  0.03026  0.19179  0.63502  1.0000
  C   C56       1.0  0.00387  0.21696  0.57660  1.0000
  C   C57       1.0  0.36871  0.13990  0.78138  1.0000
  H   H77       1.0  0.00212  0.03997  0.61612  1.0000
  H   H78       1.0  0.05191  0.17993  0.64938  1.0000
  H   H79       1.0  0.33639  0.22359  0.84033  1.0000
  N   N5        1.0  0.15320  0.26154  0.65762  1.0000
  C   C58       1.0  0.14212  0.24078  0.69323  1.0000
  C   C59       1.0  0.12721  0.28880  0.64780  1.0000
  H   H80       1.0  0.44533  0.31637  0.84309  1.0000
  C   C60       1.0  0.10912  0.22010  0.68856  1.0000
  H   H81       1.0  0.13771  0.25719  0.71974  1.0000
  C   C61       1.0  0.00308  0.10054  0.64793  1.0000
  H   H82       1.0  0.17538  0.23708  0.56052  1.0000
  H   H83       1.0  0.02272  0.09511  0.62470  1.0000
  H   H84       1.0  0.10694  0.20231  0.71423  1.0000
  H   H85       1.0  0.36118  0.32133  0.93330  1.0000
  C   C62       1.0  0.09813  0.27915  0.61862  1.0000
  H   H86       1.0  0.38878  0.08882  0.77326  1.0000
  H   H87       1.0  0.07923  0.30023  0.61747  1.0000
  S   S21       1.0  0.31837  0.29504  0.80208  1.0000
  C   C63       1.0  0.45276  0.31010  0.87337  1.0000
  H   H88       1.0  0.37341  0.22522  0.80985  1.0000
  C   C64       1.0  0.39277  0.18261  0.69888  1.0000
  H   H89       1.0  0.19024  0.03631  0.51584  1.0000
  H   H90       1.0  0.12213  0.24561  0.50789  1.0000
  H   H91       1.0  0.20727  0.25887  0.67160  1.0000
  H   H92       1.0  0.13615  0.22614  0.61171  1.0000
  C   C65       1.0  0.01951  0.09399  0.68916  1.0000
  H   H93       1.0  0.37288  0.18791  0.67594  1.0000
  H   H94       1.0  0.34092  0.14283  0.70324  1.0000
  H   H95       1.0  0.42464  0.26719  0.95505  1.0000
  H   H96       1.0  0.36584  0.18925  0.84251  1.0000
  H   H97       1.0  0.34979  0.12646  0.80042  1.0000
  H   H98       1.0  0.40143  0.15596  0.69640  1.0000
  H   H99       1.0  0.20564  0.25708  0.59255  1.0000
  C   C66       1.0  0.33277  0.19028  0.78862  1.0000
  H   H100      1.0  0.00213  0.10078  0.71398  1.0000
  H   H101      1.0  0.27978  0.15002  0.75995  1.0000
  H   H102      1.0  0.13967  0.31148  0.63430  1.0000
  H   H103      1.0  0.38770  0.14942  0.80342  1.0000
  H   H104      1.0  0.10755  0.27558  0.58769  1.0000
  C   C67       1.0  0.35379  0.20778  0.82186  1.0000
  C   C68       1.0  0.38818  0.11323  0.75652  1.0000
  C   C69       1.0  0.37982  0.19182  0.74100  1.0000
  H   H105      1.0  0.28338  0.12669  0.71490  1.0000
  H   H106      1.0  0.40254  0.19346  0.76096  1.0000
  H   H107      1.0  0.31839  0.21072  0.77278  1.0000
  H   H108      1.0  0.37026  0.21844  0.73809  1.0000
  H   H109      1.0  0.30672  0.11229  0.75761  1.0000
  H   H110      1.0  0.37570  0.10684  0.72789  1.0000
  C   C70       1.0  0.29806  0.13536  0.74147  1.0000
  H   H111      1.0  0.31718  0.17969  0.71144  1.0000
  H   H112      1.0  0.14338  0.01258  0.60631  1.0000
  H   H113      1.0  0.08405  0.25609  0.62755  1.0000
  H   H114      1.0  0.16676  0.27917  0.57864  1.0000
  H   H115      1.0  0.08628  0.23678  0.68959  1.0000
  H   H116      1.0  0.17613  0.21618  0.63293  1.0000
  H   H117      1.0  0.02861  0.06745  0.69261  1.0000
  H   H118      1.0  0.04240  0.11038  0.69215  1.0000
  H   H119      1.0  0.18714  0.28361  0.73388  1.0000
  C   C71       1.0  0.48440  0.32109  0.88842  1.0000
  C   C72       1.0  0.09281  0.99697  0.62293  1.0000
  C   C73       1.0  0.00026  0.19768  0.65681  1.0000
  H   H120      1.0  0.13092  0.20144  0.51298  1.0000
  H   H121      1.0  0.99895  0.19037  0.68794  1.0000
  H   H122      1.0  0.19525  0.29555  0.64405  1.0000
  H   H123      1.0  0.16503  0.31789  0.70791  1.0000
  H   H124      1.0  0.33708  0.29444  0.98263  1.0000
  H   H125      1.0  0.00522  0.22477  0.54562  1.0000
  H   H126      1.0  0.21067  0.31516  0.70779  1.0000
  H   H127      1.0  0.99906  0.12827  0.64630  1.0000
  H   H128      1.0  0.39401  0.32526  0.99168  1.0000
  H   H129      1.0  0.08514  0.99510  0.53262  1.0000
  Fe  Fe11      1.0  0.24793  0.42888  0.04576  1.0000
  S   S22       1.0  0.20617  0.44295  0.08891  1.0000
  H   H130      1.0  0.21466  0.48729  0.01066  1.0000
  Fe  Fe12      1.0  0.30347  0.43111  0.10861  1.0000
  S   S23       1.0  0.26695  0.44581  0.15675  1.0000
  S   S24       1.0  0.36014  0.43321  0.11855  1.0000
  Fe  Fe13      1.0  0.23227  0.40581  0.13062  1.0000
  S   S25       1.0  0.20981  0.37216  0.17957  1.0000
  Fe  Fe14      1.0  0.24417  0.48113  0.11165  1.0000
  S   S26       1.0  0.23109  0.53572  0.12530  1.0000
  S   S27       1.0  0.27121  0.38852  0.08520  1.0000
  S   S28       1.0  0.28340  0.46967  0.06552  1.0000
  C   C74       1.0  0.19646  0.48541  0.22279  1.0000
  H   H131      1.0  0.47014  0.52759  0.19806  1.0000
  C   C75       1.0  0.26693  0.56236  0.12033  1.0000
  C   C76       1.0  0.29950  0.54814  0.11751  1.0000
  C   C77       1.0  0.32797  0.56903  0.11227  1.0000
  C   C78       1.0  0.26313  0.59786  0.11865  1.0000
  H   H132      1.0  0.30290  0.52098  0.11986  1.0000
  H   H133      1.0  0.35283  0.55758  0.10928  1.0000
  C   C79       1.0  0.15629  0.44293  0.19491  1.0000
  C   C80       1.0  0.17151  0.34836  0.18128  1.0000
  H   H134      1.0  0.47082  0.58714  0.16231  1.0000
  H   H135      1.0  0.42841  0.47844  0.08494  1.0000
  H   H136      1.0  0.48689  0.64789  0.15366  1.0000
  C   C81       1.0  0.16196  0.33322  0.21765  1.0000
  C   C82       1.0  0.15063  0.34403  0.14777  1.0000
  C   C83       1.0  0.13458  0.46391  0.27927  1.0000
  C   C84       1.0  0.47696  0.47962  0.16946  1.0000
  H   H137      1.0  0.19812  0.50897  0.24108  1.0000
  C   C85       1.0  0.38558  0.33330  0.10983  1.0000
  C   C86       1.0  0.38291  0.39478  0.11630  1.0000
  C   C87       1.0  0.36636  0.36346  0.11251  1.0000
  H   H138      1.0  0.11285  0.44542  0.15269  1.0000
  H   H139      1.0  0.10880  0.49006  0.23084  1.0000
  C   C88       1.0  0.43764  0.36581  0.11561  1.0000
  C   C89       1.0  0.41853  0.39582  0.11804  1.0000
  H   H140      1.0  0.33884  0.36241  0.11200  1.0000
  H   H141      1.0  0.46509  0.36693  0.11779  1.0000
  H   H142      1.0  0.43154  0.41983  0.12125  1.0000
  H   H143      1.0  0.46141  0.46617  0.19209  1.0000
  S   S29       1.0  0.36149  0.62904  0.10486  1.0000
  H   H144      1.0  0.15334  0.55444  0.15363  1.0000
  H   H145      1.0  0.46856  0.64709  0.00036  1.0000
  H   H146      1.0  0.12606  0.49910  0.16385  1.0000
  C   C90       1.0  0.15716  0.54061  0.18228  1.0000
  C   C91       1.0  0.44531  0.50050  0.07958  1.0000
  H   H147      1.0  0.30662  0.63176  0.02347  1.0000
  H   H148      1.0  0.23957  0.46670  0.25743  1.0000
  H   H149      1.0  0.12004  0.40494  0.17466  1.0000
  C   C92       1.0  0.12022  0.43265  0.18097  1.0000
  H   H150      1.0  0.14077  0.51338  0.25460  1.0000
  H   H151      1.0  0.23798  0.60905  0.12089  1.0000
  H   H152      1.0  0.21312  0.49006  0.19638  1.0000
  H   H153      1.0  0.33259  0.35760  0.03544  1.0000
  C   C93       1.0  0.13534  0.48760  0.24251  1.0000
  C   C94       1.0  0.35607  0.42000  0.01311  1.0000
  H   H154      1.0  0.43879  0.60045  0.12601  1.0000
  H   H155      1.0  0.47457  0.46611  0.14069  1.0000
  N   N6        1.0  0.43328  0.52698  0.14924  1.0000
  H   H156      1.0  0.41423  0.47514  0.14785  1.0000
  H   H157      1.0  0.38151  0.47316  0.20599  1.0000
  H   H158      1.0  0.38258  0.50633  0.14037  1.0000
  H   H159      1.0  0.13793  0.55057  0.20352  1.0000
  C   C95       1.0  0.32439  0.60442  0.11063  1.0000
  H   H160      1.0  0.15261  0.47284  0.30264  1.0000
  H   H161      1.0  0.41783  0.49722  0.22249  1.0000
  H   H162      1.0  0.20012  0.44901  0.27352  1.0000
  C   C96       1.0  0.39562  0.49740  0.20195  1.0000
  H   H163      1.0  0.18318  0.54715  0.19273  1.0000
  H   H164      1.0  0.17410  0.43818  0.16965  1.0000
  C   C97       1.0  0.29186  0.61893  0.11367  1.0000
  H   H165      1.0  0.10846  0.46402  0.29210  1.0000
  C   C98       1.0  0.21449  0.45710  0.24689  1.0000
  H   H166      1.0  0.10068  0.43711  0.20424  1.0000
  H   H167      1.0  0.32821  0.59267  0.02247  1.0000
  H   H168      1.0  0.16389  0.42395  0.21774  1.0000
  H   H169      1.0  0.16928  0.49542  0.14869  1.0000
  C   C99       1.0  0.27429  0.58869  0.01145  1.0000
  C   C100      1.0  0.40625  0.50078  0.15780  1.0000
  H   H170      1.0  0.39257  0.36034  0.02430  1.0000
  C   C101      1.0  0.46768  0.51782  0.16694  1.0000
  C   C102      1.0  0.15272  0.50214  0.17460  1.0000
  N   N7        1.0  0.16010  0.47897  0.20963  1.0000
  H   H171      1.0  0.22006  0.43464  0.22794  1.0000
  H   H172      1.0  0.37795  0.51826  0.21053  1.0000
  H   H173      1.0  0.41116  0.54197  0.09259  1.0000
  H   H174      1.0  0.45533  0.55135  0.09713  1.0000
  H   H175      1.0  0.37787  0.62085  0.01690  1.0000
  H   H176      1.0  0.27875  0.56366  0.02605  1.0000
  H   H177      1.0  0.13981  0.43693  0.27255  1.0000
  C   C103      1.0  0.42131  0.33452  0.11094  1.0000
  H   H178      1.0  0.15770  0.35546  0.11959  1.0000
  H   H179      1.0  0.39478  0.56623  0.15777  1.0000
  C   C104      1.0  0.32879  0.34729  0.00487  1.0000
  H   H180      1.0  0.42083  0.55877  0.20031  1.0000
  H   H181      1.0  0.35219  0.44752  0.00715  1.0000
  C   C105      1.0  0.43577  0.53195  0.10462  1.0000
  H   H182      1.0  0.25734  0.60345  0.03158  1.0000
  H   H183      1.0  0.48855  0.53059  0.15016  1.0000
  H   H184      1.0  0.47246  0.49341  0.08392  1.0000
  H   H185      1.0  0.43531  0.61312  0.17674  1.0000
  C   C106      1.0  0.44322  0.59170  0.15715  1.0000
  C   C107      1.0  0.42144  0.56026  0.16710  1.0000
  H   H186      1.0  0.38250  0.41692  0.02437  1.0000
  H   H187      1.0  0.17796  0.33646  0.24376  1.0000
  H   H188      1.0  0.44252  0.50701  0.04744  1.0000
  C   C108      1.0  0.30856  0.60767  0.00606  1.0000
  H   H189      1.0  0.33775  0.41316  0.03689  1.0000
  H   H190      1.0  0.28886  0.64626  0.11241  1.0000
  H   H191      1.0  0.30233  0.35552  0.99723  1.0000
  Fe  Fe15      1.0  0.30189  0.61303  0.81032  1.0000
  S   S30       1.0  0.28273  0.61670  0.74732  1.0000
  C   C109      1.0  0.43844  0.47518  0.81807  1.0000
  Fe  Fe16      1.0  0.23470  0.58525  0.84181  1.0000
  S   S31       1.0  0.20865  0.58743  0.78173  1.0000
  S   S32       1.0  0.21179  0.56913  0.90070  1.0000
  Fe  Fe17      1.0  0.25847  0.56606  0.75968  1.0000
  S   S33       1.0  0.26298  0.52210  0.71718  1.0000
  Fe  Fe18      1.0  0.23439  0.63828  0.77371  1.0000
  H   H192      1.0  0.44418  0.37861  0.81348  1.0000
  S   S34       1.0  0.28242  0.56052  0.82015  1.0000
  S   S35       1.0  0.25564  0.63794  0.83631  1.0000
  S   S36       1.0  0.28106  0.38685  0.81613  1.0000
  S   S37       1.0  0.37396  0.35641  0.81848  1.0000
  C   C110      1.0  0.26379  0.48321  0.74278  1.0000
  C   C111      1.0  0.25366  0.48159  0.78271  1.0000
  C   C112      1.0  0.25846  0.45158  0.80459  1.0000
  C   C113      1.0  0.27334  0.42309  0.78676  1.0000
  C   C114      1.0  0.28228  0.42426  0.74637  1.0000
  C   C115      1.0  0.27735  0.45426  0.72431  1.0000
  H   H193      1.0  0.24232  0.50356  0.79676  1.0000
  H   H194      1.0  0.25136  0.45059  0.83565  1.0000
  H   H195      1.0  0.29295  0.40218  0.73201  1.0000
  H   H196      1.0  0.28499  0.45536  0.69330  1.0000
  C   C116      1.0  0.22521  0.53081  0.92331  1.0000
  C   C117      1.0  0.21541  0.52399  0.96276  1.0000
  H   H197      1.0  0.43014  0.45431  0.83807  1.0000
  C   C118      1.0  0.24023  0.46743  0.95876  1.0000
  C   C119      1.0  0.25135  0.47470  0.91995  1.0000
  C   C120      1.0  0.24392  0.50634  0.90226  1.0000
  C   C121      1.0  0.46680  0.39405  0.75784  1.0000
  H   H198      1.0  0.37509  0.55455  0.77209  1.0000
  H   H199      1.0  0.26522  0.45555  0.90340  1.0000
  H   H200      1.0  0.25169  0.51128  0.87194  1.0000
  H   H201      1.0  0.33016  0.49093  0.75949  1.0000
  H   H202      1.0  0.39041  0.42793  0.79795  1.0000
  S   S38       1.0  0.43271  0.38044  0.72758  1.0000
  H   H203      1.0  0.34070  0.51000  0.80530  1.0000
  H   H204      1.0  0.36008  0.43465  0.71549  1.0000
  S   S39       1.0  0.33923  0.34798  0.72946  1.0000
  N   N8        1.0  0.15695  0.44778  0.86732  1.0000
  C   C122      1.0  0.15334  0.46699  0.90618  1.0000
  C   C123      1.0  0.17261  0.47195  0.83754  1.0000
  C   C124      1.0  0.18120  0.41851  0.87456  1.0000
  C   C125      1.0  0.12217  0.43523  0.85476  1.0000
  C   C126      1.0  0.14264  0.44604  0.94305  1.0000
  C   C127      1.0  0.15273  0.50526  0.83014  1.0000
  C   C128      1.0  0.18902  0.39533  0.83871  1.0000
  C   C129      1.0  0.11679  0.42778  0.80974  1.0000
  H   H205      1.0  0.17764  0.47964  0.91407  1.0000
  H   H206      1.0  0.13430  0.48791  0.90335  1.0000
  H   H207      1.0  0.17688  0.46005  0.80802  1.0000
  H   H208      1.0  0.19854  0.47946  0.84760  1.0000
  H   H209      1.0  0.20603  0.42803  0.88624  1.0000
  H   H210      1.0  0.17125  0.40105  0.89788  1.0000
  H   H211      1.0  0.11540  0.41182  0.87168  1.0000
  H   H212      1.0  0.10235  0.45443  0.86269  1.0000
  H   H213      1.0  0.16332  0.51816  0.80335  1.0000
  C   C130      1.0  0.41052  0.64776  0.74059  1.0000
  H   H214      1.0  0.13584  0.46375  0.96765  1.0000
  H   H215      1.0  0.27162  0.61133  0.93173  1.0000
  H   H216      1.0  0.15602  0.52322  0.85547  1.0000
  H   H217      1.0  0.30246  0.37275  0.91730  1.0000
  H   H218      1.0  0.16640  0.38020  0.82995  1.0000
  H   H219      1.0  0.20901  0.37676  0.84779  1.0000
  H   H220      1.0  0.19941  0.40926  0.81274  1.0000
  H   H221      1.0  0.09940  0.40567  0.80661  1.0000
  H   H222      1.0  0.14004  0.42142  0.79276  1.0000
  H   H223      1.0  0.10338  0.44931  0.79494  1.0000
  H   H224      1.0  0.41015  0.49486  0.72631  1.0000
  C   C131      1.0  0.35465  0.45036  0.84046  1.0000
  H   H225      1.0  0.34952  0.43573  0.77967  1.0000
  C   C132      1.0  0.36992  0.44760  0.79804  1.0000
  H   H226      1.0  0.38658  0.45389  0.67906  1.0000
  H   H227      1.0  0.32694  0.45624  0.83901  1.0000
  C   C133      1.0  0.41674  0.64969  0.82362  1.0000
  N   N9        1.0  0.35472  0.36201  0.97666  1.0000
  H   H228      1.0  0.36521  0.41139  0.95040  1.0000
  H   H229      1.0  0.35817  0.42579  0.85635  1.0000
  H   H230      1.0  0.41712  0.45260  0.74200  1.0000
  C   C134      1.0  0.30973  0.55495  0.93306  1.0000
  H   H231      1.0  0.45680  0.49087  0.83534  1.0000
  H   H232      1.0  0.29109  0.56342  0.91025  1.0000
  C   C135      1.0  0.35088  0.34762  0.93511  1.0000
  H   H233      1.0  0.39912  0.65209  0.98748  1.0000
  C   C136      1.0  0.37201  0.45907  0.70684  1.0000
  H   H234      1.0  0.45260  0.46453  0.79233  1.0000
  N   N10       1.0  0.38161  0.48037  0.77927  1.0000
  C   C137      1.0  0.40831  0.49770  0.80448  1.0000
  H   H235      1.0  0.35201  0.47794  0.69901  1.0000
  H   H236      1.0  0.45583  0.54976  0.74205  1.0000
  H   H237      1.0  0.20116  0.54284  0.97940  1.0000
  C   C138      1.0  0.39692  0.47235  0.73904  1.0000
  H   H238      1.0  0.34874  0.59024  0.91686  1.0000
  C   C139      1.0  0.38659  0.63756  0.80628  1.0000
  C   C140      1.0  0.49248  0.40335  0.82298  1.0000
  H   H239      1.0  0.42035  0.36066  0.93750  1.0000
  C   C141      1.0  0.33481  0.58329  0.94470  1.0000
  H   H240      1.0  0.16263  0.64661  0.71567  1.0000
  H   H241      1.0  0.39695  0.50968  0.83146  1.0000
  H   H242      1.0  0.31513  0.33785  0.88671  1.0000
  C   C142      1.0  0.31427  0.34711  0.91806  1.0000
  Fe  Fe19      1.0  0.32145  0.35148  0.79280  1.0000
  C   C143      1.0  0.35801  0.53796  0.75426  1.0000
  H   H243      1.0  0.41969  0.39724  0.97063  1.0000
  H   H244      1.0  0.43927  0.58153  0.77450  1.0000
  H   H245      1.0  0.36821  0.53470  0.72368  1.0000
  S   S40       1.0  0.24567  0.42630  0.97869  1.0000
  C   C144      1.0  0.35132  0.50374  0.77538  1.0000
  H   H246      1.0  0.36048  0.62678  0.75103  1.0000
  C   C145      1.0  0.34929  0.39994  0.97433  1.0000
  H   H247      1.0  0.36724  0.46957  0.85942  1.0000
  C   C146      1.0  0.34831  0.64096  0.96555  1.0000
  H   H248      1.0  0.41965  0.51934  0.78791  1.0000
  H   H249      1.0  0.44406  0.36034  0.98287  1.0000
  C   C147      1.0  0.41979  0.36911  0.96909  1.0000
  H   H250      1.0  0.33341  0.55178  0.75099  1.0000
  H   H251      1.0  0.32248  0.40588  0.96569  1.0000
  H   H252      1.0  0.35510  0.64983  0.93488  1.0000
  C   C148      1.0  0.46571  0.39069  0.79941  1.0000
  H   H253      1.0  0.41934  0.65015  0.85579  1.0000
  H   H254      1.0  0.30269  0.63567  0.90772  1.0000
  H   H255      1.0  0.12012  0.42985  0.93708  1.0000
  H   H256      1.0  0.49036  0.56008  0.80622  1.0000
  H   H257      1.0  0.12522  0.50090  0.82471  1.0000
  Fe  Fe20      1.0  0.39189  0.34813  0.75586  1.0000
  N   N11       1.0  0.32016  0.61479  0.96391  1.0000
  C   C149      1.0  0.46106  0.57518  0.75470  1.0000
  S   S41       1.0  0.35322  0.62457  0.83763  1.0000
  C   C150      1.0  0.22311  0.49252  0.98055  1.0000
  H   H258      1.0  0.16417  0.43034  0.95446  1.0000
  C   C151      1.0  0.38355  0.63638  0.76468  1.0000
  C   C152      1.0  0.29236  0.62957  0.93786  1.0000
  H   H259      1.0  0.32427  0.53382  0.91910  1.0000
  H   H260      1.0  0.46099  0.59468  0.73082  1.0000
  H   H261      1.0  0.25959  0.58397  0.98391  1.0000
  H   H262      1.0  0.29670  0.54386  0.95925  1.0000
  H   H263      1.0  0.36652  0.36220  0.91337  1.0000
  H   H264      1.0  0.39556  0.61023  0.96818  1.0000
  H   H265      1.0  0.35378  0.57099  0.96485  1.0000
  C   C153      1.0  0.38190  0.62978  0.98586  1.0000
  C   C154      1.0  0.47983  0.65707  0.97230  1.0000
  H   H266      1.0  0.49142  0.40086  0.85517  1.0000
  H   H267      1.0  0.40818  0.64673  0.70838  1.0000
  C   C155      1.0  0.38980  0.35329  0.99222  1.0000
  H   H268      1.0  0.29765  0.32935  0.93475  1.0000
  H   H269      1.0  0.26390  0.65788  0.98417  1.0000
  H   H270      1.0  0.45980  0.65705  0.94872  1.0000
  H   H271      1.0  0.45141  0.86773  0.19270  1.0000
  Fe  Fe21      1.0  0.40867  0.74530  0.09628  1.0000
  S   S42       1.0  0.40720  0.69938  0.05734  1.0000
  Fe  Fe22      1.0  0.33241  0.75815  0.08920  1.0000
  S   S43       1.0  0.32455  0.71260  0.04882  1.0000
  S   S44       1.0  0.29373  0.80080  0.09957  1.0000
  Fe  Fe23      1.0  0.35995  0.68542  0.09119  1.0000
  H   H272      1.0  0.02868  0.88321  0.47909  1.0000
  Fe  Fe24      1.0  0.37250  0.72936  0.01785  1.0000
  S   S45       1.0  0.20732  0.96543  0.39694  1.0000
  S   S46       1.0  0.36435  0.72942  0.13426  1.0000
  S   S47       1.0  0.37762  0.77683  0.05395  1.0000
  Fe  Fe25      1.0  0.11832  0.92894  0.30041  1.0000
  H   H273      1.0  0.31176  0.84447  0.20223  1.0000
  S   S48       1.0  0.06574  0.91801  0.32401  1.0000
  Fe  Fe26      1.0  0.18671  0.90357  0.26629  1.0000
  S   S49       1.0  0.21136  0.85201  0.25283  1.0000
  S   S50       1.0  0.16358  0.90330  0.32783  1.0000
  C   C156      1.0  0.27080  0.81414  0.14256  1.0000
  C   C157      1.0  0.26789  0.79387  0.17675  1.0000
  C   C158      1.0  0.24955  0.80588  0.21015  1.0000
  C   C159      1.0  0.23425  0.83833  0.20996  1.0000
  C   C160      1.0  0.23746  0.85868  0.17592  1.0000
  C   C161      1.0  0.25543  0.84652  0.14237  1.0000
  H   H274      1.0  0.27946  0.76888  0.17731  1.0000
  H   H275      1.0  0.24717  0.78992  0.23632  1.0000
  H   H276      1.0  0.22575  0.88362  0.17525  1.0000
  H   H277      1.0  0.25743  0.86237  0.11604  1.0000
  H   H278      1.0  0.11030  0.74948  0.31161  1.0000
  H   H279      1.0  0.38901  0.80211  0.24192  1.0000
  H   H280      1.0  0.14015  0.87055  0.48638  1.0000
  H   H281      1.0  0.35528  0.89336  0.14818  1.0000
  S   S51       1.0  0.45891  0.76539  0.11860  1.0000
  C   C162      1.0  0.15538  0.89372  0.48052  1.0000
  C   C163      1.0  0.03528  0.89765  0.29380  1.0000
  C   C164      1.0  0.03645  0.89881  0.25200  1.0000
  H   H282      1.0  0.08699  0.93472  0.40169  1.0000
  N   N12       1.0  0.36505  0.84963  0.18624  1.0000
  H   H283      1.0  0.17994  0.88522  0.46736  1.0000
  H   H284      1.0  0.05714  0.91178  0.23717  1.0000
  H   H285      1.0  0.10797  0.85566  0.22500  1.0000
  C   C165      1.0  0.35795  0.86530  0.14589  1.0000
  C   C166      1.0  0.47442  0.69938  0.13753  1.0000
  C   C167      1.0  0.33503  0.85771  0.21292  1.0000
  H   H286      1.0  0.02180  0.77477  0.34170  1.0000
  H   H287      1.0  0.00990  0.88634  0.19713  1.0000
  H   H288      1.0  0.13634  0.90526  0.42149  1.0000
  Fe  Fe27      1.0  0.18542  0.95530  0.33560  1.0000
  H   H289      1.0  0.33944  0.84817  0.24382  1.0000
  C   C168      1.0  0.10396  0.83761  0.37645  1.0000
  H   H290      1.0  0.06251  0.96036  0.43371  1.0000
  H   H291      1.0  0.37697  0.76474  0.21498  1.0000
  N   N13       1.0  0.10211  0.80384  0.31029  1.0000
  C   C169      1.0  0.06383  0.80119  0.31335  1.0000
  C   C170      1.0  0.11046  0.83439  0.28487  1.0000
  C   C171      1.0  0.11828  0.80827  0.35085  1.0000
  C   C172      1.0  0.11579  0.77161  0.29201  1.0000
  C   C173      1.0  0.05011  0.77345  0.34169  1.0000
  C   C174      1.0  0.10266  0.83099  0.23985  1.0000
  C   C175      1.0  0.43136  0.84783  0.19289  1.0000
  H   H292      1.0  0.16042  0.75349  0.25929  1.0000
  H   H293      1.0  0.05251  0.82580  0.32293  1.0000
  H   H294      1.0  0.05228  0.79606  0.28358  1.0000
  H   H295      1.0  0.13769  0.84176  0.28784  1.0000
  H   H296      1.0  0.09621  0.85707  0.29534  1.0000
  H   H297      1.0  0.11633  0.78453  0.36884  1.0000
  H   H298      1.0  0.14619  0.81295  0.34784  1.0000
  H   H299      1.0  0.10242  0.76518  0.26360  1.0000
  C   C176      1.0  0.99793  0.80587  0.44505  1.0000
  H   H300      1.0  0.05691  0.74751  0.33160  1.0000
  H   H301      1.0  0.40856  0.87424  0.11984  1.0000
  S   S52       1.0  0.21215  0.95441  0.27611  1.0000
  H   H302      1.0  0.00963  0.82674  0.38724  1.0000
  H   H303      1.0  0.11940  0.81188  0.22536  1.0000
  H   H304      1.0  0.30665  0.89830  0.24190  1.0000
  C   C177      1.0  0.08068  0.90122  0.47203  1.0000
  H   H305      1.0  0.39561  0.86222  0.23794  1.0000
  H   H306      1.0  0.16590  0.79519  0.27699  1.0000
  H   H307      1.0  0.34775  0.91164  0.22486  1.0000
  H   H308      1.0  0.11861  0.83887  0.40486  1.0000
  H   H309      1.0  0.39864  0.89208  0.19823  1.0000
  C   C178      1.0  0.32547  0.89560  0.21730  1.0000
  C   C179      1.0  0.13776  0.91840  0.45096  1.0000
  H   H310      1.0  0.44725  0.69478  0.13656  1.0000
  H   H311      1.0  0.10665  0.86254  0.36150  1.0000
  H   H312      1.0  0.00811  0.87865  0.34490  1.0000
  C   C180      1.0  0.15476  0.77036  0.28505  1.0000
  N   N14       1.0  0.10309  0.93155  0.46316  1.0000
  S   S53       1.0  0.13901  0.92553  0.23827  1.0000
  C   C181      1.0  0.38499  0.85972  0.11332  1.0000
  H   H313      1.0  0.34342  0.80200  0.16627  1.0000
  H   H314      1.0  0.33317  0.85594  0.13388  1.0000
  H   H315      1.0  0.37485  0.86956  0.08449  1.0000
  H   H316      1.0  0.38796  0.80293  0.16294  1.0000
  H   H317      1.0  0.07550  0.82506  0.23395  1.0000
  H   H318      1.0  0.39104  0.83260  0.10837  1.0000
  H   H319      1.0  0.03423  0.90891  0.43600  1.0000
  H   H320      1.0  0.43208  0.83575  0.16312  1.0000
  C   C182      1.0  0.36659  0.81144  0.18203  1.0000
  H   H321      1.0  0.16828  0.76067  0.31198  1.0000
  H   H322      1.0  0.07689  0.83368  0.38469  1.0000
  H   H323      1.0  0.15593  0.93969  0.44692  1.0000
  H   H324      1.0  0.06315  0.97100  0.19934  1.0000
  H   H325      1.0  0.05844  0.77718  0.37307  1.0000
  C   C183      1.0  0.36949  0.79141  0.22156  1.0000
  H   H326      1.0  0.08682  0.87965  0.45165  1.0000
  C   C184      1.0  0.39692  0.86437  0.20477  1.0000
  C   C185      1.0  0.00875  0.88034  0.31265  1.0000
  H   H327      1.0  0.43969  0.82910  0.21581  1.0000
  Fe  Fe28      1.0  0.16254  0.97635  0.25290  1.0000
  H   H328      1.0  0.34450  0.79034  0.23704  1.0000
  C   C186      1.0  0.08890  0.95148  0.42835  1.0000
  C   C187      1.0  0.00982  0.88428  0.22937  1.0000
  H   H329      1.0  0.31257  0.90535  0.19000  1.0000
  H   H330      1.0  0.03255  0.97211  0.26539  1.0000
  C   C188      1.0  0.04178  0.90626  0.46787  1.0000
  S   S54       1.0  0.03999  0.81084  0.46278  1.0000
  H   H331      1.0  0.20311  0.98235  0.48027  1.0000
  C   C189      1.0  0.10924  0.98318  0.41594  1.0000
  S   S55       1.0  0.13828  0.98087  0.31310  1.0000
  H   H332      1.0  0.13382  0.97591  0.40227  1.0000
  H   H333      1.0  0.03214  0.92802  0.48538  1.0000
  H   H334      1.0  0.05978  0.98288  0.49189  1.0000
  H   H335      1.0  0.48798  0.75678  0.01780  1.0000
  H   H336      1.0  0.08865  0.98661  0.23920  1.0000
  C   C190      1.0  0.48709  0.73198  0.13047  1.0000
  H   H337      1.0  0.47379  0.70571  0.99878  1.0000
  H   H338      1.0  0.12918  0.97163  0.49643  1.0000
  Fe  Fe29      1.0  0.07665  0.77336  0.60524  1.0000
  S   S56       1.0  0.10152  0.80151  0.55449  1.0000
  S   S57       1.0  0.09220  0.72177  0.63140  1.0000
  Fe  Fe30      1.0  0.04866  0.80913  0.52974  1.0000
  Fe  Fe31      1.0  0.09033  0.84857  0.59016  1.0000
  S   S58       1.0  0.12985  0.88983  0.59228  1.0000
  S   S59       1.0  0.06936  0.82028  0.64269  1.0000
  H   H339      1.0  0.48827  0.70765  0.94970  1.0000
  H   H340      1.0  0.29250  0.68396  0.95477  1.0000
  C   C191      1.0  0.13229  0.67999  0.67815  1.0000
  H   H341      1.0  0.01041  0.78837  0.68933  1.0000
  C   C192      1.0  0.47896  0.76373  0.89754  1.0000
  S   S60       1.0  0.03940  0.85802  0.56233  1.0000
  C   C193      1.0  0.41817  0.73880  0.93137  1.0000
  C   C194      1.0  0.43000  0.72615  0.89481  1.0000
  C   C195      1.0  0.46034  0.73844  0.87795  1.0000
  H   H342      1.0  0.04487  0.97337  0.63756  1.0000
  C   C196      1.0  0.03572  0.71366  0.73306  1.0000
  C   C197      1.0  0.43684  0.76399  0.95110  1.0000
  H   H343      1.0  0.41573  0.70665  0.87958  1.0000
  H   H344      1.0  0.46924  0.72847  0.84975  1.0000
  C   C198      1.0  0.11543  0.93060  0.60582  1.0000
  C   C199      1.0  0.13755  0.95831  0.60172  1.0000
  H   H345      1.0  0.01540  0.69654  0.72167  1.0000
  H   H346      1.0  0.42782  0.77407  0.97922  1.0000
  C   C200      1.0  0.07072  0.96924  0.62742  1.0000
  C   C201      1.0  0.08193  0.93609  0.61863  1.0000
  H   H347      1.0  0.16343  0.95419  0.59163  1.0000
  C   C202      1.0  0.46699  0.77664  0.93399  1.0000
  H   H348      1.0  0.03791  0.75632  0.67158  1.0000
  H   H349      1.0  0.06474  0.91482  0.62191  1.0000
  C   C203      1.0  0.12748  0.71322  0.66351  1.0000
  C   C204      1.0  0.15005  0.73871  0.67569  1.0000
  C   C205      1.0  0.17670  0.73110  0.70270  1.0000
  H   H350      1.0  0.14682  0.76435  0.66457  1.0000
  H   H351      1.0  0.19378  0.75110  0.71218  1.0000
  S   S61       1.0  0.02428  0.77647  0.57671  1.0000
  H   H352      1.0  0.10351  0.78941  0.74440  1.0000
  C   C206      1.0  0.15925  0.67228  0.70472  1.0000
  H   H353      1.0  0.25356  0.66897  0.93382  1.0000
  S   S62       1.0  0.47435  0.67333  0.72715  1.0000
  S   S63       1.0  0.37987  0.72287  0.95133  1.0000
  C   C207      1.0  0.12619  0.99142  0.60991  1.0000
  H   H354      1.0  0.06129  0.95611  0.53598  1.0000
  H   H355      1.0  0.99921  0.74795  0.79143  1.0000
  N   N15       1.0  0.33621  0.73433  0.79667  1.0000
  C   C208      1.0  0.37016  0.73412  0.77538  1.0000
  C   C209      1.0  0.31485  0.70646  0.77841  1.0000
  C   C210      1.0  0.34297  0.72692  0.84033  1.0000
  C   C211      1.0  0.32048  0.76906  0.79134  1.0000
  C   C212      1.0  0.39745  0.75881  0.79159  1.0000
  C   C213      1.0  0.30576  0.71099  0.73382  1.0000
  C   C214      1.0  0.31315  0.71287  0.86515  1.0000
  C   C215      1.0  0.28327  0.77390  0.80521  1.0000
  H   H356      1.0  0.38165  0.70824  0.77617  1.0000
  H   H357      1.0  0.36714  0.74057  0.74322  1.0000
  H   H358      1.0  0.29030  0.70293  0.79419  1.0000
  H   H359      1.0  0.32798  0.68151  0.78175  1.0000
  H   H360      1.0  0.36365  0.70759  0.84355  1.0000
  H   H361      1.0  0.35235  0.75003  0.85613  1.0000
  H   H362      1.0  0.33549  0.78843  0.80799  1.0000
  H   H363      1.0  0.32218  0.77784  0.75975  1.0000
  H   H364      1.0  0.42158  0.75469  0.77486  1.0000
  H   H365      1.0  0.39004  0.78576  0.78706  1.0000
  H   H366      1.0  0.40347  0.75431  0.82347  1.0000
  H   H367      1.0  0.32839  0.70854  0.71426  1.0000
  H   H368      1.0  0.28798  0.69047  0.72473  1.0000
  H   H369      1.0  0.29227  0.73530  0.72799  1.0000
  H   H370      1.0  0.28931  0.72756  0.86179  1.0000
  H   H371      1.0  0.32029  0.71352  0.89725  1.0000
  H   H372      1.0  0.30847  0.68587  0.85761  1.0000
  H   H373      1.0  0.48117  0.79637  0.94915  1.0000
  H   H374      1.0  0.26679  0.75153  0.80039  1.0000
  H   H375      1.0  0.27115  0.79429  0.78703  1.0000
  H   H376      1.0  0.28229  0.78157  0.83712  1.0000
  C   C216      1.0  0.18155  0.69787  0.71731  1.0000
  C   C217      1.0  0.08682  0.76872  0.73318  1.0000
  S   S64       1.0  0.21509  0.68996  0.75206  1.0000
  H   H377      1.0  0.33986  0.66404  0.98191  1.0000
  Fe  Fe32      1.0  0.01887  0.82505  0.61110  1.0000
  H   H378      1.0  0.05730  0.71030  0.71178  1.0000
  C   C218      1.0  0.10784  0.95320  0.49985  1.0000
  C   C219      1.0  0.01554  0.76059  0.69119  1.0000
  C   C220      1.0  0.44042  0.66064  0.75799  1.0000
  C   C221      1.0  0.49250  0.69376  0.97817  1.0000
  H   H379      1.0  0.08721  0.77008  0.70026  1.0000
  H   H380      1.0  0.05801  0.67336  0.76912  1.0000
  H   H381      1.0  0.11656  0.93717  0.52511  1.0000
  C   C222      1.0  0.44342  0.66160  0.79958  1.0000
  H   H382      1.0  0.09861  0.74439  0.74280  1.0000
  H   H383      1.0  0.11509  0.66005  0.66882  1.0000
  H   H384      1.0  0.05252  0.77137  0.78307  1.0000
  H   H385      1.0  0.04361  0.80057  0.74419  1.0000
  H   H386      1.0  0.02446  0.69560  0.79399  1.0000
  C   C223      1.0  0.05056  0.77352  0.74997  1.0000
  N   N16       1.0  0.02356  0.75004  0.73350  1.0000
  C   C224      1.0  0.07638  0.97247  0.51559  1.0000
  C   C225      1.0  0.27494  0.66193  0.95409  1.0000
  H   H387      1.0  0.46642  0.67113  0.81329  1.0000
  H   H388      1.0  0.16179  0.90630  0.50922  1.0000
  C   C226      1.0  0.04665  0.69895  0.77391  1.0000
  H   H389      1.0  0.06629  0.71452  0.78907  1.0000
  H   H390      1.0  0.08571  0.89141  0.50275  1.0000
  H   H391      1.0  0.82257  0.30453  0.31675  1.0000
  C   C227      1.0  0.81657  0.16836  0.43567  1.0000
  S   S65       1.0  0.95639  0.16702  0.23724  1.0000
  H   H392      1.0  0.74331  0.10285  0.13496  1.0000
  Fe  Fe33      1.0  0.57592  0.30507  0.09055  1.0000
  C   C228      1.0  0.78778  0.02418  0.30995  1.0000
  S   S66       1.0  0.62554  0.28179  0.11398  1.0000
  S   S67       1.0  0.53564  0.27951  0.05266  1.0000
  C   C229      1.0  0.85713  0.28714  0.39096  1.0000
  S   S68       1.0  0.75413  0.05290  0.24596  1.0000
  Fe  Fe34      1.0  0.74440  0.10000  0.28311  1.0000
  S   S69       1.0  0.77469  0.11443  0.33732  1.0000
  Fe  Fe35      1.0  0.69685  0.16094  0.28950  1.0000
  S   S70       1.0  0.72295  0.17991  0.34521  1.0000
  S   S71       1.0  0.64779  0.18419  0.26432  1.0000
  Fe  Fe36      1.0  0.77176  0.16733  0.31345  1.0000
  S   S72       1.0  0.81693  0.20164  0.32373  1.0000
  Fe  Fe37      1.0  0.72417  0.12544  0.36546  1.0000
  S   S73       1.0  0.71836  0.11309  0.43122  1.0000
  S   S74       1.0  0.74582  0.15253  0.25604  1.0000
  S   S75       1.0  0.69370  0.10711  0.31302  1.0000
  C   C230      1.0  0.71674  0.07000  0.44591  1.0000
  C   C231      1.0  0.70137  0.04547  0.42165  1.0000
  H   H393      1.0  0.77761  0.20691  0.44487  1.0000
  C   C232      1.0  0.98326  0.25481  0.41296  1.0000
  H   H394      1.0  0.84066  0.09722  0.38028  1.0000
  H   H395      1.0  0.87909  0.10749  0.43924  1.0000
  H   H396      1.0  0.69066  0.05279  0.39307  1.0000
  H   H397      1.0  0.81577  0.06781  0.49498  1.0000
  C   C233      1.0  0.72979  0.06037  0.48338  1.0000
  C   C234      1.0  0.81863  0.07238  0.46237  1.0000
  C   C235      1.0  0.63120  0.25573  0.15679  1.0000
  C   C236      1.0  0.60363  0.24419  0.17940  1.0000
  C   C237      1.0  0.60929  0.22267  0.21249  1.0000
  C   C238      1.0  0.64247  0.21253  0.22344  1.0000
  C   C239      1.0  0.67008  0.22444  0.20114  1.0000
  C   C240      1.0  0.66444  0.24596  0.16803  1.0000
  H   H398      1.0  0.57793  0.25145  0.17112  1.0000
  H   H399      1.0  0.58775  0.21356  0.22954  1.0000
  H   H400      1.0  0.69575  0.21698  0.20933  1.0000
  H   H401      1.0  0.68594  0.25486  0.15079  1.0000
  C   C241      1.0  0.91777  0.17542  0.26213  1.0000
  C   C242      1.0  0.88787  0.15816  0.25123  1.0000
  C   C243      1.0  0.85678  0.16543  0.27044  1.0000
  C   C244      1.0  0.85561  0.19001  0.30060  1.0000
  C   C245      1.0  0.88574  0.20641  0.31215  1.0000
  C   C246      1.0  0.91663  0.19939  0.29283  1.0000
  H   H402      1.0  0.88866  0.13946  0.22756  1.0000
  H   H403      1.0  0.83372  0.15243  0.26147  1.0000
  H   H404      1.0  0.88529  0.22455  0.33616  1.0000
  H   H405      1.0  0.93959  0.21263  0.30146  1.0000
  H   H406      1.0  0.67011  0.32267  0.21249  1.0000
  H   H407      1.0  0.62817  0.06852  0.09452  1.0000
  C   C247      1.0  0.90551  0.30479  0.35072  1.0000
  C   C248      1.0  0.92176  0.24107  0.45318  1.0000
  H   H408      1.0  0.90882  0.21172  0.40102  1.0000
  H   H409      1.0  0.84490  0.06636  0.45297  1.0000
  H   H410      1.0  0.83597  0.18863  0.43087  1.0000
  C   C249      1.0  0.77866  0.02101  0.26976  1.0000
  H   H411      1.0  0.79387  0.10733  0.42174  1.0000
  H   H412      1.0  0.65458  0.03433  0.11076  1.0000
  H   H413      1.0  0.80501  0.27105  0.37322  1.0000
  H   H414      1.0  0.81325  0.00131  0.36024  1.0000
  C   C250      1.0  0.85678  0.12020  0.38320  1.0000
  H   H415      1.0  0.62430  0.18396  0.08617  1.0000
  H   H416      1.0  0.84558  0.26631  0.32163  1.0000
  H   H417      1.0  0.81488  0.26655  0.42485  1.0000
  H   H418      1.0  0.96298  0.22381  0.36576  1.0000
  H   H419      1.0  0.72744  0.99451  0.35299  1.0000
  H   H420      1.0  0.63916  0.29478  0.23334  1.0000
  C   C251      1.0  0.80684  0.10860  0.45128  1.0000
  H   H421      1.0  0.86806  0.29758  0.41906  1.0000
  H   H422      1.0  0.68558  0.99320  0.41695  1.0000
  H   H423      1.0  0.62209  0.11072  0.17218  1.0000
  C   C252      1.0  0.86393  0.12900  0.42728  1.0000
  C   C253      1.0  0.73312  0.12056  0.15785  1.0000
  H   H424      1.0  0.86744  0.26084  0.38834  1.0000
  C   C254      1.0  0.97769  0.26743  0.45165  1.0000
  H   H425      1.0  0.91498  0.31628  0.32267  1.0000
  H   H426      1.0  0.64402  0.09463  0.23380  1.0000
  C   C255      1.0  0.78775  0.18432  0.46094  1.0000
  H   H427      1.0  0.68314  0.11788  0.22764  1.0000
  H   H428      1.0  0.63083  0.05734  0.14719  1.0000
  H   H429      1.0  0.72841  0.10635  0.18577  1.0000
  H   H430      1.0  0.80519  0.16345  0.40573  1.0000
  H   H431      1.0  0.80234  0.05374  0.44628  1.0000
  H   H432      1.0  0.96100  0.03572  0.25102  1.0000
  H   H433      1.0  0.62379  0.17915  0.13895  1.0000
  H   H434      1.0  0.91288  0.27750  0.34843  1.0000
  H   H435      1.0  0.78563  0.11442  0.47216  1.0000
  H   H436      1.0  0.66292  0.19004  0.11321  1.0000
  H   H437      1.0  0.84790  0.29055  0.25412  1.0000
  H   H438      1.0  0.77960  0.04594  0.32681  1.0000
  C   C256      1.0  0.95869  0.23399  0.39528  1.0000
  H   H439      1.0  0.67678  0.07675  0.20483  1.0000
  N   N17       1.0  0.83302  0.13657  0.45253  1.0000
  H   H440      1.0  0.79703  0.19333  0.49040  1.0000
  C   C257      1.0  0.92804  0.22722  0.41530  1.0000
  N   N18       1.0  0.66866  0.11945  0.13796  1.0000
  C   C258      1.0  0.64708  0.13623  0.10603  1.0000
  C   C259      1.0  0.67638  0.08376  0.12401  1.0000
  C   C260      1.0  0.70129  0.13966  0.14229  1.0000
  C   C261      1.0  0.64869  0.11991  0.17636  1.0000
  C   C262      1.0  0.63944  0.17445  0.11199  1.0000
  C   C263      1.0  0.64533  0.06012  0.11898  1.0000
  C   C264      1.0  0.84372  0.14389  0.49506  1.0000
  C   C265      1.0  0.66452  0.10124  0.21232  1.0000
  H   H441      1.0  0.65937  0.13358  0.07618  1.0000
  H   H442      1.0  0.62173  0.12378  0.10348  1.0000
  H   H443      1.0  0.69406  0.07025  0.14453  1.0000
  H   H444      1.0  0.69012  0.08451  0.09489  1.0000
  H   H445      1.0  0.70921  0.15048  0.11295  1.0000
  H   H446      1.0  0.69733  0.16198  0.16227  1.0000
  H   H447      1.0  0.64490  0.14647  0.18676  1.0000
  H   H448      1.0  0.75364  0.13922  0.16424  1.0000
  H   H449      1.0  0.76605  0.16671  0.46516  1.0000
  H   H450      1.0  0.88171  0.15112  0.42778  1.0000
  C   C266      1.0  0.86590  0.29910  0.27776  1.0000
  H   H451      1.0  0.88131  0.11466  0.36798  1.0000
  H   H452      1.0  0.98435  0.09326  0.24973  1.0000
  H   H453      1.0  0.88900  0.28283  0.27490  1.0000
  C   C267      1.0  0.96519  0.01674  0.27502  1.0000
  Fe  Fe38      1.0  0.53983  0.32514  0.01257  1.0000
  H   H454      1.0  0.84510  0.14174  0.36681  1.0000
  S   S76       1.0  0.88067  0.23668  0.47370  1.0000
  C   C268      1.0  0.84899  0.29418  0.31890  1.0000
  C   C269      1.0  0.94703  0.26046  0.47186  1.0000
  C   C270      1.0  0.81846  0.28340  0.39851  1.0000
  N   N19       1.0  0.86731  0.30823  0.35516  1.0000
  C   C271      1.0  0.69869  0.01170  0.43509  1.0000
  H   H455      1.0  0.94365  0.01910  0.29635  1.0000
  H   H456      1.0  0.70831  0.99572  0.30488  1.0000
  C   C272      1.0  0.80669  0.99859  0.32899  1.0000
  H   H457      1.0  0.92227  0.30924  0.41379  1.0000
  H   H458      1.0  0.80620  0.30800  0.40585  1.0000
  C   C273      1.0  0.71294  0.00181  0.47181  1.0000
  H   H459      1.0  0.95458  0.31643  0.37763  1.0000
  C   C274      1.0  0.92716  0.32087  0.38427  1.0000
  Fe  Fe39      1.0  0.49874  0.31210  0.08714  1.0000
  C   C275      1.0  0.64664  0.32192  0.23079  1.0000
  C   C276      1.0  0.72859  0.02626  0.49590  1.0000
  Fe  Fe40      1.0  0.87013  0.24291  0.53971  1.0000
  C   C277      1.0  0.71128  0.31918  0.57206  1.0000
  Fe  Fe41      1.0  0.82315  0.20329  0.59517  1.0000
  S   S77       1.0  0.83507  0.23536  0.64893  1.0000
  S   S78       1.0  0.78359  0.16213  0.58952  1.0000
  Fe  Fe42      1.0  0.83068  0.28012  0.60735  1.0000
  Fe  Fe43      1.0  0.88923  0.23226  0.62635  1.0000
  S   S79       1.0  0.81483  0.24803  0.55507  1.0000
  S   S80       1.0  0.87731  0.19612  0.57674  1.0000
  H   H460      1.0  0.58721  0.29805  0.77312  1.0000
  H   H461      1.0  0.92494  0.12286  0.71352  1.0000
  H   H462      1.0  0.65515  0.23424  0.65101  1.0000
  H   H463      1.0  0.71515  0.28099  0.64407  1.0000
  C   C278      1.0  0.94437  0.08535  0.67144  1.0000
  H   H464      1.0  0.67417  0.20946  0.53333  1.0000
  C   C279      1.0  0.97172  0.21237  0.63825  1.0000
  H   H465      1.0  0.67813  0.29292  0.79743  1.0000
  C   C280      1.0  0.98037  0.04390  0.63708  1.0000
  C   C281      1.0  0.79774  0.12005  0.59632  1.0000
  C   C282      1.0  0.83027  0.11304  0.61151  1.0000
  C   C283      1.0  0.84075  0.07918  0.61713  1.0000
  C   C284      1.0  0.81876  0.05225  0.60775  1.0000
  C   C285      1.0  0.78643  0.05933  0.59207  1.0000
  C   C286      1.0  0.77592  0.09316  0.58646  1.0000
  H   H466      1.0  0.84709  0.13367  0.61959  1.0000
  H   H467      1.0  0.86568  0.07380  0.62940  1.0000
  H   H468      1.0  0.76940  0.03876  0.58467  1.0000
  H   H469      1.0  0.75075  0.09848  0.57470  1.0000
  S   S81       1.0  0.88608  0.27933  0.58809  1.0000
  H   H470      1.0  0.75412  0.27097  0.61983  1.0000
  H   H471      1.0  0.92934  0.08325  0.59598  1.0000
  N   N20       1.0  0.59739  0.31953  0.83209  1.0000
  H   H472      1.0  0.95221  0.07232  0.69958  1.0000
  H   H473      1.0  0.58206  0.25307  0.80905  1.0000
  H   H474      1.0  0.71680  0.19959  0.59007  1.0000
  N   N21       1.0  0.97078  0.08112  0.63914  1.0000
  C   C287      1.0  0.67104  0.25651  0.59382  1.0000
  H   H475      1.0  0.74415  0.23974  0.68313  1.0000
  H   H476      1.0  0.55742  0.29584  0.86759  1.0000
  S   S82       1.0  0.83224  0.01013  0.61627  1.0000
  S   S83       1.0  0.93380  0.21777  0.66541  1.0000
  H   H477      1.0  0.75366  0.21299  0.64188  1.0000
  H   H478      1.0  0.77970  0.29308  0.69052  1.0000
  H   H479      1.0  0.71117  0.18496  0.52162  1.0000
  C   C288      1.0  0.73399  0.23039  0.65415  1.0000
  H   H480      1.0  0.87400  0.12662  0.54573  1.0000
  H   H481      1.0  0.74655  0.28104  0.55153  1.0000
  H   H482      1.0  0.66422  0.28050  0.60955  1.0000
  C   C289      1.0  0.72809  0.26097  0.62607  1.0000
  N   N22       1.0  0.70902  0.25460  0.58743  1.0000
  C   C290      1.0  0.65461  0.22792  0.61867  1.0000
  C   C291      1.0  0.93332  0.12193  0.68186  1.0000
  C   C292      1.0  0.95174  0.01928  0.62406  1.0000
  H   H483      1.0  0.65699  0.25860  0.56494  1.0000
  H   H484      1.0  0.74794  0.22173  0.56326  1.0000
  C   C293      1.0  0.49450  0.31286  0.92752  1.0000
  H   H485      1.0  0.61258  0.02811  0.55559  1.0000
  C   C294      1.0  0.95766  0.12942  0.58754  1.0000
  C   C295      1.0  0.97352  0.22185  0.59803  1.0000
  C   C296      1.0  0.72011  0.22126  0.56929  1.0000
  H   H486      1.0  0.64015  0.26803  0.79582  1.0000
  H   H487      1.0  0.56620  0.23915  0.85522  1.0000
  H   H488      1.0  0.73849  0.30850  0.74398  1.0000
  H   H489      1.0  0.94328  0.13344  0.55931  1.0000
  H   H490      1.0  0.73943  0.01900  0.52438  1.0000
  H   H491      1.0  0.52967  0.29980  0.80733  1.0000
  H   H492      1.0  0.71059  0.21594  0.66066  1.0000
  H   H493      1.0  0.59828  0.29060  0.88711  1.0000
  H   H494      1.0  0.64490  0.30527  0.76430  1.0000
  H   H495      1.0  0.95164  0.23325  0.58348  1.0000
  C   C297      1.0  0.87192  0.12117  0.51332  1.0000
  H   H496      1.0  0.98419  0.13790  0.58173  1.0000
  H   H497      1.0  0.92043  0.07203  0.66309  1.0000
  C   C298      1.0  0.76691  0.31746  0.68978  1.0000
  H   H498      1.0  0.94172  0.02507  0.59380  1.0000
  C   C299      1.0  0.71878  0.28239  0.55846  1.0000
  C   C300      1.0  0.58666  0.25479  0.84154  1.0000
  H   H499      1.0  0.86661  0.09375  0.51068  1.0000
  C   C301      1.0  0.64991  0.29428  0.79434  1.0000
  H   H500      1.0  0.93043  0.01861  0.64577  1.0000
  C   C302      1.0  0.58427  0.29121  0.85818  1.0000
  C   C303      1.0  0.70224  0.21085  0.53005  1.0000
  H   H501      1.0  0.98951  0.03442  0.66655  1.0000
  H   H502      1.0  0.95409  0.14074  0.68003  1.0000
  H   H503      1.0  0.74119  0.07927  0.50264  1.0000
  H   H504      1.0  0.66623  0.20264  0.61394  1.0000
  H   H505      1.0  0.82139  0.14258  0.51550  1.0000
  H   H506      1.0  0.62760  0.22488  0.60921  1.0000
  H   H507      1.0  0.61170  0.24312  0.84904  1.0000
  H   H508      1.0  0.97046  0.07808  0.57439  1.0000
  H   H509      1.0  0.91168  0.13038  0.66272  1.0000
  H   H510      1.0  0.70533  0.27940  0.52942  1.0000
  C   C304      1.0  0.54108  0.32190  0.79177  1.0000
  H   H511      1.0  0.64797  0.30941  0.85607  1.0000
  C   C305      1.0  0.95646  0.09135  0.59883  1.0000
  C   C306      1.0  0.63573  0.31751  0.82752  1.0000
  H   H512      1.0  0.94586  0.14614  0.61012  1.0000
  H   H513      1.0  0.53159  0.32148  0.76046  1.0000
  H   H514      1.0  0.62885  0.00622  0.62884  1.0000
  H   H515      1.0  0.89716  0.12713  0.50014  1.0000
  H   H516      1.0  0.94243  0.27118  0.50113  1.0000
  H   H517      1.0  0.65025  0.03335  0.52597  1.0000
  H   H518      1.0  0.85352  0.17035  0.49757  1.0000
  C   C307      1.0  0.64026  0.02258  0.55435  1.0000
  H   H519      1.0  0.65364  0.03610  0.57890  1.0000
  H   H520      1.0  0.70910  0.22773  0.50481  1.0000
  C   C308      1.0  0.58038  0.32038  0.79158  1.0000
  H   H521      1.0  0.96238  0.99307  0.62287  1.0000
  H   H522      1.0  0.68353  0.32459  0.57301  1.0000
  H   H523      1.0  0.72293  0.32526  0.60132  1.0000
  H   H524      1.0  0.65254  0.33075  0.26144  1.0000
  H   H525      1.0  0.65269  0.38710  0.25997  1.0000
  H   H526      1.0  0.84818  0.37203  0.30651  1.0000
  Fe  Fe44      1.0  0.65782  0.57797  0.11817  1.0000
  S   S84       1.0  0.60836  0.59216  0.08949  1.0000
  S   S85       1.0  0.66886  0.52208  0.12817  1.0000
  Fe  Fe45      1.0  0.63915  0.62392  0.04826  1.0000
  C   C309      1.0  0.65656  0.36560  0.14168  1.0000
  Fe  Fe46      1.0  0.60915  0.63708  0.13049  1.0000
  S   S86       1.0  0.53825  0.33357  0.12863  1.0000
  S   S87       1.0  0.68914  0.60729  0.07421  1.0000
  S   S88       1.0  0.65698  0.62063  0.16292  1.0000
  C   C310      1.0  0.62958  0.43504  0.24696  1.0000
  S   S89       1.0  0.53867  0.43043  0.09973  1.0000
  H   H527      1.0  0.59688  0.42211  0.17803  1.0000
  C   C311      1.0  0.86704  0.37096  0.33131  1.0000
  H   H528      1.0  0.82827  0.34626  0.36463  1.0000
  C   C312      1.0  0.62819  0.39578  0.24652  1.0000
  C   C313      1.0  0.57541  0.45509  0.10700  1.0000
  C   C314      1.0  0.60813  0.44194  0.10065  1.0000
  C   C315      1.0  0.63691  0.46243  0.10767  1.0000
  C   C316      1.0  0.63291  0.49619  0.12047  1.0000
  C   C317      1.0  0.60015  0.50903  0.12706  1.0000
  C   C318      1.0  0.57153  0.48861  0.12018  1.0000
  H   H529      1.0  0.61124  0.41611  0.09034  1.0000
  H   H530      1.0  0.66224  0.45240  0.10252  1.0000
  H   H531      1.0  0.59687  0.53455  0.13835  1.0000
  H   H532      1.0  0.54632  0.49886  0.12536  1.0000
  H   H533      1.0  0.92353  0.34878  0.38601  1.0000
  S   S90       1.0  0.50057  0.35565  0.04441  1.0000
  H   H534      1.0  0.54917  0.36669  0.21183  1.0000
  C   C319      1.0  0.60046  0.49215  0.00288  1.0000
  C   C320      1.0  0.53865  0.64853  0.04320  1.0000
  H   H535      1.0  0.61217  0.42362  0.01677  1.0000
  H   H536      1.0  0.61049  0.32977  0.18260  1.0000
  H   H537      1.0  0.65533  0.41341  0.17218  1.0000
  C   C321      1.0  0.57109  0.51708  0.01210  1.0000
  H   H538      1.0  0.52064  0.63173  0.02743  1.0000
  H   H539      1.0  0.55504  0.44160  0.01650  1.0000
  C   C322      1.0  0.55816  0.39319  0.20815  1.0000
  H   H540      1.0  0.60962  0.48352  0.03268  1.0000
  S   S91       1.0  0.55885  0.64412  0.16186  1.0000
  H   H541      1.0  0.66336  0.33868  0.14742  1.0000
  H   H542      1.0  0.89279  0.36665  0.31897  1.0000
  H   H543      1.0  0.58777  0.38255  0.15610  1.0000
  H   H544      1.0  0.67782  0.38115  0.19810  1.0000
  C   C323      1.0  0.59229  0.39495  0.18537  1.0000
  C   C324      1.0  0.61691  0.34204  0.21165  1.0000
  C   C325      1.0  0.85653  0.34441  0.36281  1.0000
  Fe  Fe47      1.0  0.54291  0.37502  0.08285  1.0000
  S   S92       1.0  0.58318  0.34860  0.04706  1.0000
  H   H545      1.0  0.53833  0.40658  0.19022  1.0000
  H   H546      1.0  0.56518  0.64184  0.03474  1.0000
  H   H547      1.0  0.60479  0.44677  0.23872  1.0000
  H   H548      1.0  0.64985  0.44513  0.22723  1.0000
  H   H549      1.0  0.86504  0.35339  0.39280  1.0000
  H   H550      1.0  0.60817  0.38760  0.26798  1.0000
  H   H551      1.0  0.50401  0.47702  0.17902  1.0000
  H   H552      1.0  0.59452  0.33740  0.23117  1.0000
  H   H553      1.0  0.58170  0.53932  0.02835  1.0000
  C   C326      1.0  0.65397  0.38613  0.18089  1.0000
  N   N23       1.0  0.62283  0.37962  0.20616  1.0000
  H   H554      1.0  0.75571  0.62585  0.02142  1.0000
  H   H555      1.0  0.66878  0.56602  0.01083  1.0000
  H   H556      1.0  0.63557  0.44373  0.27776  1.0000
  H   H557      1.0  0.55925  0.40598  0.23758  1.0000
  H   H558      1.0  0.53629  0.64278  0.07552  1.0000
  H   H559      1.0  0.55204  0.50523  0.03223  1.0000
  H   H560      1.0  0.63295  0.36637  0.12357  1.0000
  H   H561      1.0  0.67729  0.37633  0.12301  1.0000
  H   H562      1.0  0.86845  0.39637  0.34569  1.0000
  H   H563      1.0  0.66215  0.46454  0.00646  1.0000
  Fe  Fe48      1.0  0.68396  0.65186  0.11608  1.0000
  H   H564      1.0  0.87240  0.32587  0.27140  1.0000
  Fe  Fe49      1.0  0.67155  0.47577  0.83746  1.0000
  S   S93       1.0  0.69794  0.47093  0.77810  1.0000
  S   S94       1.0  0.69413  0.49510  0.89519  1.0000
  Fe  Fe50      1.0  0.60489  0.44529  0.80702  1.0000
  S   S95       1.0  0.62453  0.43869  0.74449  1.0000
  S   S96       1.0  0.55397  0.43388  0.83545  1.0000
  Fe  Fe51      1.0  0.67316  0.41934  0.77303  1.0000
  S   S97       1.0  0.69686  0.36751  0.75829  1.0000
  Fe  Fe52      1.0  0.64800  0.49041  0.75396  1.0000
  S   S98       1.0  0.64381  0.53410  0.71086  1.0000
  S   S99       1.0  0.65149  0.42264  0.83530  1.0000
  S   S100      1.0  0.62353  0.49847  0.81354  1.0000
  C   C327      1.0  0.62640  0.63199  0.74096  1.0000
  H   H565      1.0  0.58327  0.52451  0.92228  1.0000
  C   C328      1.0  0.64462  0.57303  0.73655  1.0000
  C   C329      1.0  0.65717  0.57493  0.77566  1.0000
  C   C330      1.0  0.65407  0.60525  0.79747  1.0000
  C   C331      1.0  0.63040  0.60200  0.71876  1.0000
  H   H566      1.0  0.66924  0.55301  0.78920  1.0000
  H   H567      1.0  0.66340  0.60641  0.82791  1.0000
  H   H568      1.0  0.62112  0.60076  0.68832  1.0000
  C   C332      1.0  0.72707  0.35818  0.72011  1.0000
  C   C333      1.0  0.66471  0.56288  0.97920  1.0000
  C   C334      1.0  0.65578  0.44351  0.98572  1.0000
  H   H569      1.0  0.53150  0.34579  0.80502  1.0000
  H   H570      1.0  0.74499  0.59098  0.99020  1.0000
  H   H571      1.0  0.56148  0.35452  0.85995  1.0000
  H   H572      1.0  0.50102  0.33607  0.86977  1.0000
  C   C335      1.0  0.55733  0.44876  0.98442  1.0000
  H   H573      1.0  0.67028  0.64809  0.91246  1.0000
  S   S101      1.0  0.62517  0.62074  0.98276  1.0000
  C   C336      1.0  0.52088  0.41855  0.80504  1.0000
  H   H574      1.0  0.76195  0.38970  0.63453  1.0000
  C   C337      1.0  0.52413  0.53116  0.74289  1.0000
  H   H575      1.0  0.71661  0.62716  0.94150  1.0000
  C   C338      1.0  0.55643  0.51712  0.72253  1.0000
  C   C339      1.0  0.52225  0.42155  0.76348  1.0000
  H   H576      1.0  0.77331  0.62217  0.97109  1.0000
  H   H577      1.0  0.58017  0.56212  0.77498  1.0000
  H   H578      1.0  0.59692  0.44854  0.91308  1.0000
  H   H579      1.0  0.54408  0.43328  0.74947  1.0000
  C   C340      1.0  0.64354  0.58542  0.95834  1.0000
  C   C341      1.0  0.63784  0.58027  0.91741  1.0000
  C   C342      1.0  0.65326  0.55270  0.89758  1.0000
  C   C343      1.0  0.67476  0.53040  0.91848  1.0000
  C   C344      1.0  0.68065  0.53583  0.95925  1.0000
  H   H580      1.0  0.59439  0.37440  0.83216  1.0000
  H   H581      1.0  0.62184  0.59780  0.90087  1.0000
  H   H582      1.0  0.64917  0.54926  0.86597  1.0000
  H   H583      1.0  0.58357  0.59875  0.83097  1.0000
  C   C345      1.0  0.73413  0.38105  0.68920  1.0000
  H   H584      1.0  0.49534  0.60321  0.79079  1.0000
  H   H585      1.0  0.62372  0.48123  0.92801  1.0000
  C   C346      1.0  0.59761  0.47125  0.93288  1.0000
  H   H586      1.0  0.72168  0.40562  0.68870  1.0000
  C   C347      1.0  0.49412  0.57660  0.77953  1.0000
  N   N24       1.0  0.52673  0.56710  0.75845  1.0000
  C   C348      1.0  0.71927  0.63732  0.97234  1.0000
  C   C349      1.0  0.63780  0.63353  0.78054  1.0000
  H   H587      1.0  0.62170  0.50739  0.99036  1.0000
  H   H588      1.0  0.56145  0.39477  0.96661  1.0000
  H   H589      1.0  0.49600  0.41229  0.70781  1.0000
  C   C350      1.0  0.75704  0.37195  0.65851  1.0000
  C   C351      1.0  0.77350  0.34009  0.65848  1.0000
  H   H590      1.0  0.51765  0.51334  0.76768  1.0000
  H   H591      1.0  0.54699  0.49597  0.92526  1.0000
  C   C352      1.0  0.57369  0.49861  0.91542  1.0000
  H   H592      1.0  0.56682  0.53478  0.69985  1.0000
  H   H593      1.0  0.66452  0.44991  0.95519  1.0000
  C   C353      1.0  0.55978  0.60062  0.81294  1.0000
  H   H594      1.0  0.57653  0.51100  0.74475  1.0000
  N   N25       1.0  0.59269  0.46208  0.97621  1.0000
  H   H595      1.0  0.55025  0.49290  0.70709  1.0000
  H   H596      1.0  0.69664  0.62823  0.98904  1.0000
  H   H597      1.0  0.64643  0.34314  0.82074  1.0000
  C   C354      1.0  0.55507  0.56729  0.78923  1.0000
  H   H598      1.0  0.50322  0.52802  0.72105  1.0000
  H   H599      1.0  0.61490  0.41219  0.96558  1.0000
  H   H600      1.0  0.49518  0.57164  0.68441  1.0000
  H   H601      1.0  0.52980  0.61908  0.73710  1.0000
  C   C355      1.0  0.51742  0.58869  0.68526  1.0000
  H   H602      1.0  0.53873  0.60500  0.83439  1.0000
  H   H603      1.0  0.63629  0.36173  0.88780  1.0000
  C   C356      1.0  0.53513  0.59277  0.72640  1.0000
  H   H604      1.0  0.53613  0.58011  0.66248  1.0000
  H   H605      1.0  0.51935  0.41125  0.96723  1.0000
  H   H606      1.0  0.54665  0.42286  0.92699  1.0000
  H   H607      1.0  0.56292  0.59230  0.72018  1.0000
  H   H608      1.0  0.55150  0.54651  0.81152  1.0000
  H   H609      1.0  0.53746  0.46840  0.97969  1.0000
  H   H610      1.0  0.57255  0.49558  0.88248  1.0000
  H   H611      1.0  0.56262  0.62299  0.79308  1.0000
  C   C357      1.0  0.60833  0.35994  0.89197  1.0000
  C   C358      1.0  0.54612  0.41770  0.95955  1.0000
  C   C359      1.0  0.58908  0.35271  0.85255  1.0000
  C   C360      1.0  0.61757  0.43397  0.98646  1.0000
  H   H612      1.0  0.69717  0.51869  0.97567  1.0000
  H   H613      1.0  0.59966  0.38495  0.90336  1.0000
  H   H614      1.0  0.50822  0.61402  0.67500  1.0000
  H   H615      1.0  0.58968  0.34269  0.77412  1.0000
  H   H616      1.0  0.49961  0.63944  0.96125  1.0000
  H   H617      1.0  0.55218  0.65299  0.96850  1.0000
  H   H618      1.0  0.61440  0.65376  0.72738  1.0000
  H   H619      1.0  0.55837  0.52699  0.98503  1.0000
  S   S102      1.0  0.80024  0.32913  0.61744  1.0000
  H   H620      1.0  0.72259  0.33711  0.55016  1.0000
  S   S103      1.0  0.53494  0.32569  0.94524  1.0000
  C   C361      1.0  0.75042  0.61872  0.99000  1.0000
  H   H621      1.0  0.60263  0.34099  0.91547  1.0000
  C   C362      1.0  0.74356  0.32632  0.72012  1.0000
  C   C363      1.0  0.49505  0.40965  0.73998  1.0000
  H   H622      1.0  0.67104  0.42115  0.99546  1.0000
  Fe  Fe53      1.0  0.89927  0.84569  0.25755  1.0000
  S   S104      1.0  0.90016  0.86757  0.31915  1.0000
  Fe  Fe54      1.0  0.82687  0.81820  0.26682  1.0000
  S   S105      1.0  0.82397  0.83836  0.32971  1.0000
  S   S106      1.0  0.77640  0.79168  0.25290  1.0000
  Fe  Fe55      1.0  0.84758  0.88582  0.30591  1.0000
  S   S107      1.0  0.83548  0.93587  0.33548  1.0000
  Fe  Fe56      1.0  0.87692  0.81846  0.33764  1.0000
  S   S108      1.0  0.88978  0.79147  0.39540  1.0000
  S   S109      1.0  0.84739  0.86775  0.24225  1.0000
  S   S110      1.0  0.87875  0.79468  0.27677  1.0000
  C   C364      1.0  0.97237  0.79192  0.46903  1.0000
  H   H623      1.0  0.55300  0.70007  0.05162  1.0000
  H   H624      1.0  0.52272  0.75317  0.05308  1.0000
  H   H625      1.0  0.74274  0.84594  0.30157  1.0000
  C   C365      1.0  0.95701  0.81127  0.39042  1.0000
  C   C366      1.0  0.93157  0.79688  0.41411  1.0000
  C   C367      1.0  0.93932  0.78724  0.45349  1.0000
  C   C368      1.0  0.72275  0.72174  0.18890  1.0000
  C   C369      1.0  0.71001  0.98045  0.33280  1.0000
  C   C370      1.0  0.77090  0.91566  0.41749  1.0000
  C   C371      1.0  0.81587  0.96900  0.30839  1.0000
  C   C372      1.0  0.80701  0.96562  0.26804  1.0000
  H   H626      1.0  0.79102  0.78546  0.38186  1.0000
  C   C373      1.0  0.80740  0.68388  0.26745  1.0000
  H   H627      1.0  0.87255  0.72094  0.28960  1.0000
  H   H628      1.0  0.89113  0.73000  0.33783  1.0000
  H   H629      1.0  0.81394  0.94282  0.25190  1.0000
  C   C374      1.0  0.98329  0.86457  0.29001  1.0000
  C   C375      1.0  0.53208  0.67823  0.14850  1.0000
  S   S111      1.0  0.94748  0.85221  0.22093  1.0000
  C   C376      1.0  0.76539  0.76107  0.21605  1.0000
  C   C377      1.0  0.78791  0.75121  0.18585  1.0000
  H   H630      1.0  0.95125  0.81849  0.36007  1.0000
  C   C378      1.0  0.73286  0.74608  0.21748  1.0000
  H   H631      1.0  0.81300  0.76250  0.18433  1.0000
  H   H632      1.0  0.71522  0.75351  0.24070  1.0000
  C   C379      1.0  0.72129  0.68807  0.01512  1.0000
  C   C380      1.0  0.54496  0.71068  0.14063  1.0000
  C   C381      1.0  0.52238  0.73771  0.13248  1.0000
  H   H633      1.0  0.73622  0.74097  0.00057  1.0000
  H   H634      1.0  0.78144  0.98895  0.21764  1.0000
  S   S112      1.0  0.71049  0.95888  0.48702  1.0000
  H   H635      1.0  0.57215  0.71514  0.14214  1.0000
  H   H636      1.0  0.53226  0.76299  0.12740  1.0000
  C   C382      1.0  0.75086  0.93811  0.38777  1.0000
  N   N26       1.0  0.81648  0.70830  0.33842  1.0000
  H   H637      1.0  0.96192  0.91287  0.47670  1.0000
  H   H638      1.0  0.95939  0.87182  0.45462  1.0000
  C   C383      1.0  0.84930  0.87475  0.45342  1.0000
  N   N27       1.0  0.72888  0.92047  0.35699  1.0000
  H   H639      1.0  0.96377  0.99071  0.26228  1.0000
  H   H640      1.0  0.93784  0.94992  0.40567  1.0000
  H   H641      1.0  0.77772  0.72296  0.29532  1.0000
  H   H642      1.0  0.70014  0.67665  0.03273  1.0000
  H   H643      1.0  0.87582  0.94131  0.45717  1.0000
  H   H644      1.0  0.84797  0.87402  0.42034  1.0000
  H   H645      1.0  0.84972  0.66442  0.32874  1.0000
  H   H646      1.0  0.66761  0.87188  0.40555  1.0000
  H   H647      1.0  0.68279  0.93517  0.38775  1.0000
  H   H648      1.0  0.83187  0.73916  0.38922  1.0000
  C   C384      1.0  0.69436  0.91213  0.37403  1.0000
  C   C385      1.0  0.79077  0.68553  0.35841  1.0000
  S   S113      1.0  0.63568  0.67101  0.08626  1.0000
  C   C386      1.0  0.69287  0.88456  0.40674  1.0000
  C   C387      1.0  0.79594  0.67960  0.40365  1.0000
  H   H649      1.0  0.52268  0.78579  0.01631  1.0000
  H   H650      1.0  0.75431  0.87139  0.36455  1.0000
  H   H651      1.0  0.88882  0.90887  0.40053  1.0000
  H   H652      1.0  0.96433  0.84949  0.30461  1.0000
  H   H653      1.0  0.75469  0.89756  0.43392  1.0000
  H   H654      1.0  0.83643  0.75937  0.34261  1.0000
  H   H655      1.0  0.78298  0.93237  0.44021  1.0000
  H   H656      1.0  0.79518  0.71985  0.13359  1.0000
  H   H657      1.0  0.72475  0.88338  0.28056  1.0000
  H   H658      1.0  0.71158  0.86381  0.40289  1.0000
  C   C388      1.0  0.80486  0.71455  0.29602  1.0000
  H   H659      1.0  0.91776  0.87388  0.40165  1.0000
  N   N28       1.0  0.91074  0.89805  0.45899  1.0000
  C   C389      1.0  0.99007  0.81571  0.40581  1.0000
  C   C390      1.0  0.94582  0.88964  0.47511  1.0000
  C   C391      1.0  0.53159  0.68671  0.03628  1.0000
  H   H660      1.0  0.74778  0.94834  0.30579  1.0000
  H   H661      1.0  0.73550  0.95614  0.40575  1.0000
  C   C392      1.0  0.71885  0.72694  0.02066  1.0000
  H   H662      1.0  0.81900  0.73598  0.28213  1.0000
  C   C393      1.0  0.74716  0.88966  0.34076  1.0000
  H   H663      1.0  0.83747  0.89833  0.46512  1.0000
  H   H664      1.0  0.77047  0.95395  0.37298  1.0000
  H   H665      1.0  0.79238  0.66186  0.27802  1.0000
  H   H666      1.0  0.79083  0.65989  0.34441  1.0000
  C   C394      1.0  0.72767  0.86906  0.30891  1.0000
  H   H667      1.0  0.77194  0.89738  0.32732  1.0000
  H   H668      1.0  0.69229  0.73606  0.01629  1.0000
  C   C395      1.0  0.72356  0.94464  0.32236  1.0000
  H   H669      1.0  0.70531  0.93402  0.30019  1.0000
  H   H670      1.0  0.77358  0.76860  0.33673  1.0000
  H   H671      1.0  0.74458  0.67964  0.03105  1.0000
  H   H672      1.0  0.72601  0.73342  0.05191  1.0000
  H   H673      1.0  0.85962  0.68826  0.37129  1.0000
  C   C396      1.0  0.88023  0.70973  0.31853  1.0000
  C   C397      1.0  0.77771  0.72702  0.15709  1.0000
  H   H674      1.0  0.83357  0.85321  0.46432  1.0000
  C   C398      1.0  0.88602  0.87001  0.46896  1.0000
  S   S114      1.0  0.73329  0.68251  0.12077  1.0000
  H   H675      1.0  0.89550  0.84534  0.45725  1.0000
  C   C399      1.0  0.74506  0.71223  0.15834  1.0000
  H   H676      1.0  0.67579  0.90527  0.35015  1.0000
  H   H677      1.0  0.90061  0.69117  0.31098  1.0000
  H   H678      1.0  0.76705  0.74720  0.38403  1.0000
  C   C400      1.0  0.91319  0.89978  0.41403  1.0000
  H   H679      1.0  0.69607  0.89600  0.43686  1.0000
  C   C401      1.0  0.78554  0.76148  0.36560  1.0000
  H   H680      1.0  0.91969  0.77631  0.47215  1.0000
  C   C402      1.0  0.81933  0.74201  0.35949  1.0000
  H   H681      1.0  0.69756  0.71064  0.19025  1.0000
  H   H682      1.0  0.70251  0.86029  0.31975  1.0000
  C   C403      1.0  0.85084  0.69108  0.33982  1.0000
  H   H683      1.0  0.68403  0.97959  0.34564  1.0000
  H   H684      1.0  0.79190  0.90192  0.40226  1.0000
  H   H685      1.0  0.81998  0.66576  0.41014  1.0000
  H   H686      1.0  0.96735  0.91417  0.40516  1.0000
  H   H687      1.0  0.94002  0.92224  0.36375  1.0000
  H   H688      1.0  0.76434  0.69528  0.35387  1.0000
  C   C404      1.0  0.98261  0.86784  0.24852  1.0000
  H   H689      1.0  0.77483  0.66344  0.41487  1.0000
  H   H690      1.0  0.79518  0.70352  0.42110  1.0000
  C   C405      1.0  0.94138  0.92301  0.39692  1.0000
  C   C406      1.0  0.51595  0.75876  0.02168  1.0000
  C   C407      1.0  0.49684  0.67279  0.14718  1.0000
  H   H691      1.0  0.91809  0.95201  0.46735  1.0000
  H   H692      1.0  0.50825  0.69340  0.05357  1.0000
  C   C408      1.0  0.89873  0.93221  0.47384  1.0000
  H   H693      1.0  0.79662  0.69129  0.23794  1.0000
  H   H694      1.0  0.83422  0.67617  0.26216  1.0000
  H   H695      1.0  0.56371  0.74079  0.99835  1.0000
  C   C409      1.0  0.78845  0.99166  0.24876  1.0000
  C   C410      1.0  0.69787  0.75974  0.67584  1.0000
  H   H696      1.0  0.64843  0.71707  0.74345  1.0000
  C   C411      1.0  0.55459  0.68103  0.96763  1.0000
  H   H697      1.0  0.74289  0.71496  0.93633  1.0000
  H   H698      1.0  0.64344  0.75715  0.72066  1.0000
  Fe  Fe57      1.0  0.58739  0.70326  0.78983  1.0000
  S   S115      1.0  0.56756  0.70684  0.72732  1.0000
  H   H699      1.0  0.73730  0.70525  0.69314  1.0000
  Fe  Fe58      1.0  0.53556  0.75384  0.82074  1.0000
  Fe  Fe59      1.0  0.56655  0.76333  0.73758  1.0000
  S   S116      1.0  0.58693  0.79288  0.68400  1.0000
  S   S117      1.0  0.58959  0.75966  0.79899  1.0000
  Fe  Fe60      1.0  0.79548  0.89530  0.57352  1.0000
  H   H700      1.0  0.75206  0.67296  0.91996  1.0000
  S   S118      1.0  0.82974  0.85124  0.55685  1.0000
  Fe  Fe61      1.0  0.73769  0.91921  0.62719  1.0000
  S   S119      1.0  0.70316  0.90573  0.67946  1.0000
  S   S120      1.0  0.73827  0.89233  0.56813  1.0000
  C   C412      1.0  0.62065  0.82280  0.68401  1.0000
  C   C413      1.0  0.63663  0.83083  0.64764  1.0000
  C   C414      1.0  0.66302  0.85502  0.64607  1.0000
  C   C415      1.0  0.67280  0.87242  0.68065  1.0000
  C   C416      1.0  0.65693  0.86427  0.71705  1.0000
  C   C417      1.0  0.63132  0.83924  0.71887  1.0000
  H   H701      1.0  0.62859  0.81815  0.62054  1.0000
  H   H702      1.0  0.67534  0.86068  0.61802  1.0000
  H   H703      1.0  0.66431  0.87763  0.74396  1.0000
  H   H704      1.0  0.61910  0.83346  0.74701  1.0000
  H   H705      1.0  0.65251  0.88251  0.55282  1.0000
  C   C418      1.0  0.66306  0.73970  0.73324  1.0000
  H   H706      1.0  0.59444  0.95075  0.51612  1.0000
  C   C419      1.0  0.78443  0.69164  0.96764  1.0000
  N   N29       1.0  0.68825  0.72962  0.70134  1.0000
  C   C420      1.0  0.93333  0.84355  0.62053  1.0000
  C   C421      1.0  0.92437  0.82002  0.59100  1.0000
  C   C422      1.0  0.89231  0.82223  0.57207  1.0000
  C   C423      1.0  0.86934  0.84832  0.58202  1.0000
  C   C424      1.0  0.87863  0.87208  0.61111  1.0000
  C   C425      1.0  0.91025  0.86938  0.63070  1.0000
  H   H707      1.0  0.94194  0.79989  0.58308  1.0000
  H   H708      1.0  0.88543  0.80387  0.54940  1.0000
  H   H709      1.0  0.86146  0.89253  0.61873  1.0000
  H   H710      1.0  0.91697  0.88760  0.65361  1.0000
  H   H711      1.0  0.57922  0.94321  0.59822  1.0000
  H   H712      1.0  0.97462  0.87155  0.52640  1.0000
  C   C426      1.0  0.63934  0.90732  0.54869  1.0000
  C   C427      1.0  0.89153  0.93555  0.51893  1.0000
  H   H713      1.0  0.74157  0.78119  0.70992  1.0000
  H   H714      1.0  0.97814  0.78432  0.49938  1.0000
  S   S121      1.0  0.79887  0.94488  0.54069  1.0000
  H   H715      1.0  0.91529  0.94061  0.53600  1.0000
  Fe  Fe62      1.0  0.51561  0.70567  0.75502  1.0000
  H   H716      1.0  0.66239  0.68151  0.69182  1.0000
  H   H717      1.0  0.95192  0.78655  0.77971  1.0000
  H   H718      1.0  0.67250  0.74056  0.79792  1.0000
  S   S122      1.0  0.63124  0.67014  0.80966  1.0000
  H   H719      1.0  0.57336  0.67502  0.90696  1.0000
  S   S123      1.0  0.51795  0.77842  0.87808  1.0000
  H   H720      1.0  0.67476  0.77182  0.66275  1.0000
  H   H721      1.0  0.70470  0.76327  0.77093  1.0000
  H   H722      1.0  0.56195  0.71776  0.91822  1.0000
  H   H723      1.0  0.93931  0.84544  0.51404  1.0000
  H   H724      1.0  0.62970  0.91255  0.61061  1.0000
  H   H725      1.0  0.93290  0.88536  0.53965  1.0000
  C   C428      1.0  0.72008  0.71312  0.71795  1.0000
  H   H726      1.0  0.73571  0.73090  0.73572  1.0000
  S   S124      1.0  0.53564  0.69698  0.81691  1.0000
  H   H727      1.0  0.52921  0.68624  0.90885  1.0000
  Fe  Fe63      1.0  0.74178  0.94480  0.54157  1.0000
  H   H728      1.0  0.53117  0.74692  0.96201  1.0000
  H   H729      1.0  0.65171  0.91960  0.52276  1.0000
  H   H730      1.0  0.98029  0.75422  0.64158  1.0000
  Fe  Fe64      1.0  0.79458  0.96850  0.60142  1.0000
  H   H731      1.0  0.72317  0.80864  0.67368  1.0000
  H   H732      1.0  0.67043  0.92773  0.59591  1.0000
  C   C429      1.0  0.71697  0.78907  0.69651  1.0000
  H   H733      1.0  0.70070  0.80212  0.71876  1.0000
  H   H734      1.0  0.66493  0.68124  0.97447  1.0000
  C   C430      1.0  0.71422  0.68156  0.74453  1.0000
  S   S125      1.0  0.79478  0.91868  0.63448  1.0000
  H   H735      1.0  0.62805  0.69374  0.63557  1.0000
  H   H736      1.0  0.69645  0.68685  0.76943  1.0000
  H   H737      1.0  0.65550  0.68953  0.90076  1.0000
  C   C431      1.0  0.67737  0.75688  0.77141  1.0000
  N   N30       1.0  0.52838  0.69856  0.99344  1.0000
  S   S126      1.0  0.73742  0.97187  0.60039  1.0000
  H   H738      1.0  0.62096  0.72837  0.66874  1.0000
  C   C432      1.0  0.59119  0.96455  0.58146  1.0000
  H   H739      1.0  0.68629  0.71628  0.95269  1.0000
  H   H740      1.0  0.64797  0.73343  0.62534  1.0000
  H   H741      1.0  0.99166  0.71503  0.66476  1.0000
  H   H742      1.0  0.66620  0.98059  0.63155  1.0000
  H   H743      1.0  0.80446  0.68530  0.94541  1.0000
  S   S127      1.0  0.97245  0.84054  0.64643  1.0000
  H   H744      1.0  0.62854  0.97712  0.69105  1.0000
  C   C433      1.0  0.94774  0.87226  0.51626  1.0000
  H   H745      1.0  0.69032  0.69321  0.65250  1.0000
  C   C434      1.0  0.67794  0.67521  0.91230  1.0000
  C   C435      1.0  0.55434  0.69093  0.92302  1.0000
  H   H746      1.0  0.71381  0.75134  0.65011  1.0000
  C   C436      1.0  0.64288  0.92796  0.58751  1.0000
  S   S128      1.0  0.51220  0.76253  0.76002  1.0000
  C   C437      1.0  0.68672  0.68805  0.95473  1.0000
  H   H747      1.0  0.66346  0.78111  0.77677  1.0000
  H   H748      1.0  0.87826  0.91337  0.53181  1.0000
  C   C438      1.0  0.64047  0.71601  0.64985  1.0000
  C   C439      1.0  0.74901  0.68887  0.94726  1.0000
  C   C440      1.0  0.67158  0.70368  0.67430  1.0000
  C   C441      1.0  0.57757  0.96326  0.53800  1.0000
  C   C442      1.0  0.98545  0.74204  0.67091  1.0000
  N   N31       1.0  0.72004  0.67565  0.97246  1.0000
  H   H749      1.0  0.63490  0.93646  0.66963  1.0000
  H   H750      1.0  0.67601  0.98145  0.55954  1.0000
  H   H751      1.0  0.61229  0.90127  0.54224  1.0000
  H   H752      1.0  0.88397  0.86584  0.50147  1.0000
  H   H753      1.0  0.96314  0.79350  0.72883  1.0000
  H   H754      1.0  0.64336  0.97442  0.52502  1.0000
  C   C443      1.0  0.64803  0.98413  0.55553  1.0000
  N   N32       1.0  0.62943  0.96395  0.58701  1.0000
  C   C444      1.0  0.62291  0.96158  0.66414  1.0000
  H   H755      1.0  0.59485  0.95879  0.66227  1.0000
  H   H756      1.0  0.55321  0.94888  0.53763  1.0000
  H   H757      1.0  0.99058  0.80841  0.76860  1.0000
  C   C445      1.0  0.63801  0.97949  0.62710  1.0000
  C   C446      1.0  0.97380  0.78737  0.75873  1.0000
  H   H758      1.0  0.87367  0.95710  0.52382  1.0000
  H   H759      1.0  0.78958  0.71829  0.97677  1.0000
  H   H760      1.0  0.97354  0.73257  0.75207  1.0000
  H   H761      1.0  0.96136  0.74396  0.68791  1.0000
  C   C447      1.0  0.53614  0.73618  0.99225  1.0000
  H   H762      1.0  0.69902  0.67910  0.89082  1.0000
  H   H763      1.0  0.73888  0.67364  0.75809  1.0000
  H   H764      1.0  0.58074  0.68599  0.97942  1.0000
  C   C448      1.0  0.99240  0.75269  0.75960  1.0000
  H   H765      1.0  0.78871  0.67460  0.99339  1.0000
  H   H766      1.0  0.70484  0.65947  0.72713  1.0000
  H   H767      1.0  0.57094  0.98920  0.52728  1.0000
  H   H768      1.0  0.58049  0.98832  0.59456  1.0000
