data_image0
_chemical_formula_structural       SHC2HCSH6CSCHFeH2SCHC2HCHCH2CSHSC2HC2HCH7SH7CS2H3CHC2H2CHSHCHSH3CH5C2H2C3H4CH5CH2CHC2H4C2H2CH8SCH6CNCNCH2CH2C2H2CH3CH6CNC2H3C2HC3H3CH3CHC3HCHCSH2CH2S2Fe2S2CFeS2C3FeCFeHCSHC3H2CH2FeHSCH4C8H4SHCH2CHC2H5CHSHCH4CHCH4CFeHNH2C2HCHCSCH2CH4CH4SC2HCFeH3SH2CH3CH2CH2C2H5CH2CHCH2NHC2HCHNH2C2H3SHCH2S2H2C3H2CH3CHNC2HCHFeS2HFe2SHSHCHFeS2FeS2H2FeH2CSH2FeSFeSH3CH2C6H4CHC7SH5CHCH3CH2NCHC2HCHSNSH3SHCHC3H2C2H8FeC2H3C2H2CHFeHCFeHCHCH3CH2S2H2CHCHNHCHCFeCHFe3H3SFeS2FeS2FeSFe2SFeS3H3C2H3CSH4CHC6H6C6H9FeH5SC2H2CH3CH2CHCHCHCHC3H2CH3CH3NHSHSC2HCH2S2HC2H2SNH4C5H4CH3FeH3CHC2H5C2H2CHCH4CHNHC2HC4H2NH2CH3CH2NFeS2FeS2FeSFeS3CSFeS2HSHC9H4C6HCH2C2H5CH2CHNCNC6H7FeH3FeC2HCHC2H15CH2CNCH3CH5CH2CHC2H3C2H3SH3C2H10SHC2HCH2C3H2FeH8CSH4FeH3SHCH3C3SFe2SCHFeHNCH2SHFeSC2HFeS4FeSFeCSCHC5H2CHC3HCH3C6H6CH3FeHCH14CH3SCHC2H4CFeSCHNHC2HSHCSH7CH5NC3HCHSH2FeHCNHFeSC3H3CH3CSH3CHCH3SHFeS2FeHFeH2S2CSHFeS2CS2HCHCHCHC2H2SH3C7H4CHC3H8CH2CHCSH4NC2H2CHC3HCH2C2H4SCHCFeSH4C2HCHCH2CHCH2FeHFeCNSCFeHC2SHCHCH2C2H4C2HCH4CHC2H2CH2SH3CFeHNH3C3NH3CHCH2CSHCHSH3CH3CHC2NCHC2H5CNH9C3H4NH3CHC2HCHC2H2CH2C3HCHCH2CH2CHC3HCHCSH3CH5C2H2CHSH4SHCHSCNSCH3CHCSH2CH5FeH2C2H2CNC2SHNC3HSCH2CH3CH6FeH5CH4CH3C4HSCHCSCH2SH2CHCH2SH2SFeHCHC
_chemical_formula_sum              "S128 H768 C448 Fe64 N32"
_cell_length_a       29.0924
_cell_length_b       28.7647
_cell_length_c       36.9012
_cell_angle_alpha    90.1922
_cell_angle_beta     89.7666
_cell_angle_gamma    90.283

_space_group_name_H-M_alt    "P 1"
_space_group_IT_number       1

loop_
  _space_group_symop_operation_xyz
  'x, y, z'

loop_
  _atom_site_type_symbol
  _atom_site_label
  _atom_site_symmetry_multiplicity
  _atom_site_fract_x
  _atom_site_fract_y
  _atom_site_fract_z
  _atom_site_occupancy
  S   S1        1.0  0.50524  0.46697  0.24835  1.0000
  H   H1        1.0  0.48867  0.30337  0.20867  1.0000
  C   C1        1.0  0.46248  0.05911  0.28454  1.0000
  C   C2        1.0  0.45676  0.05930  0.24685  1.0000
  H   H2        1.0  0.43304  0.03519  0.23445  1.0000
  C   C3        1.0  0.49273  0.09056  0.30114  1.0000
  S   S2        1.0  0.39012  0.03214  0.10623  1.0000
  H   H3        1.0  0.44315  0.03462  0.30086  1.0000
  H   H4        1.0  0.45219  0.07706  0.05353  1.0000
  H   H5        1.0  0.03170  0.03496  0.05354  1.0000
  H   H6        1.0  0.48148  0.15391  0.03404  1.0000
  H   H7        1.0  0.48551  0.24378  0.29370  1.0000
  H   H8        1.0  0.47473  0.31086  0.25541  1.0000
  C   C4        1.0  0.48029  0.09179  0.22562  1.0000
  S   S3        1.0  0.47220  0.09363  0.17842  1.0000
  C   C5        1.0  0.47334  0.07971  0.02949  1.0000
  H   H9        1.0  0.48302  0.26023  0.34027  1.0000
  Fe  Fe1       1.0  0.43830  0.02991  0.15385  1.0000
  H   H10       1.0  0.49521  0.20732  0.12816  1.0000
  H   H11       1.0  0.43667  0.49215  0.30067  1.0000
  S   S4        1.0  0.49696  0.09027  0.34856  1.0000
  C   C6        1.0  0.50290  0.31438  0.23527  1.0000
  H   H12       1.0  0.47211  0.49459  0.09819  1.0000
  C   C7        1.0  0.50696  0.25332  0.31735  1.0000
  C   C8        1.0  0.46939  0.51179  0.07227  1.0000
  H   H13       1.0  0.19327  0.01991  0.03965  1.0000
  C   C9        1.0  0.14668  0.08343  0.52487  1.0000
  H   H14       1.0  0.11773  0.10694  0.51815  1.0000
  C   C10       1.0  0.19838  0.01981  0.57887  1.0000
  H   H15       1.0  0.17063  0.10402  0.54193  1.0000
  H   H16       1.0  0.16287  0.07363  0.49874  1.0000
  C   C11       1.0  0.42171  0.02549  0.44793  1.0000
  S   S5        1.0  0.39298  0.04620  0.56697  1.0000
  H   H17       1.0  0.04625  0.12871  0.66871  1.0000
  S   S6        1.0  0.48223  0.47143  0.64652  1.0000
  C   C12       1.0  0.44896  0.06355  0.55416  1.0000
  C   C13       1.0  0.45378  0.09344  0.52448  1.0000
  H   H18       1.0  0.26830  0.01615  0.55577  1.0000
  C   C14       1.0  0.47425  0.21720  0.62209  1.0000
  C   C15       1.0  0.43561  0.07174  0.42962  1.0000
  H   H19       1.0  0.42336  0.10712  0.51168  1.0000
  C   C16       1.0  0.24081  0.04219  0.56019  1.0000
  H   H20       1.0  0.09815  0.02754  0.52942  1.0000
  H   H21       1.0  0.02044  0.46086  0.57599  1.0000
  H   H22       1.0  0.48495  0.02398  0.59443  1.0000
  H   H23       1.0  0.32789  0.50812  0.66815  1.0000
  H   H24       1.0  0.05777  0.20243  0.67629  1.0000
  H   H25       1.0  0.47435  0.12318  0.64269  1.0000
  H   H26       1.0  0.38753  0.03150  0.46073  1.0000
  S   S7        1.0  0.34848  0.04881  0.66642  1.0000
  H   H27       1.0  0.18491  0.04525  0.59907  1.0000
  H   H28       1.0  0.47280  0.07266  0.42307  1.0000
  H   H29       1.0  0.25606  0.06832  0.57893  1.0000
  H   H30       1.0  0.44539  0.02008  0.47118  1.0000
  H   H31       1.0  0.11177  0.05634  0.57070  1.0000
  H   H32       1.0  0.46029  0.25299  0.61987  1.0000
  H   H33       1.0  0.04679  0.47856  0.61802  1.0000
  C   C17       1.0  0.49260  0.13212  0.66830  1.0000
  S   S8        1.0  0.21558  0.01586  0.67762  1.0000
  S   S9        1.0  0.47118  0.48891  0.54254  1.0000
  H   H34       1.0  0.23391  0.06035  0.53451  1.0000
  H   H35       1.0  0.44448  0.19339  0.62552  1.0000
  H   H36       1.0  0.41548  0.07931  0.40498  1.0000
  C   C18       1.0  0.03905  0.05768  0.68407  1.0000
  H   H37       1.0  0.38375  0.01863  0.38048  1.0000
  C   C19       1.0  0.02619  0.45092  0.60459  1.0000
  C   C20       1.0  0.48832  0.04714  0.57152  1.0000
  H   H38       1.0  0.50060  0.12816  0.48793  1.0000
  H   H39       1.0  0.04755  0.41902  0.60456  1.0000
  C   C21       1.0  0.12725  0.04142  0.54567  1.0000
  H   H40       1.0  0.42923  0.10101  0.44854  1.0000
  S   S10       1.0  0.50873  0.34044  0.67961  1.0000
  H   H41       1.0  0.50770  0.48194  0.36309  1.0000
  C   C22       1.0  0.49748  0.10542  0.51105  1.0000
  H   H42       1.0  0.49208  0.20944  0.59616  1.0000
  S   S11       1.0  0.07842  0.02550  0.44753  1.0000
  H   H43       1.0  0.48850  0.22889  0.67882  1.0000
  H   H44       1.0  0.06958  0.04689  0.66814  1.0000
  H   H45       1.0  0.02274  0.07741  0.50282  1.0000
  C   C23       1.0  0.50732  0.21566  0.65462  1.0000
  H   H46       1.0  0.50881  0.09907  0.67699  1.0000
  H   H47       1.0  0.03883  0.51409  0.49925  1.0000
  H   H48       1.0  0.12707  0.13057  0.67801  1.0000
  H   H49       1.0  0.07638  0.36524  0.83277  1.0000
  H   H50       1.0  0.49754  0.13012  0.82214  1.0000
  C   C24       1.0  0.14521  0.46575  0.80325  1.0000
  C   C25       1.0  0.45623  0.51120  0.77706  1.0000
  H   H51       1.0  0.41232  0.48785  0.90106  1.0000
  H   H52       1.0  0.48495  0.01826  0.89997  1.0000
  C   C26       1.0  0.08066  0.20822  0.69977  1.0000
  C   C27       1.0  0.16656  0.12841  0.72720  1.0000
  C   C28       1.0  0.07755  0.41665  0.78807  1.0000
  H   H53       1.0  0.03646  0.17970  0.74169  1.0000
  H   H54       1.0  0.04075  0.45252  0.84848  1.0000
  H   H55       1.0  0.47536  0.10230  0.88738  1.0000
  H   H56       1.0  0.11960  0.12771  0.79331  1.0000
  C   C29       1.0  0.21215  0.01718  0.72511  1.0000
  H   H57       1.0  0.08200  0.08577  0.81321  1.0000
  H   H58       1.0  0.49350  0.49236  0.72872  1.0000
  H   H59       1.0  0.45933  0.36668  0.90664  1.0000
  H   H60       1.0  0.15448  0.50298  0.80593  1.0000
  H   H61       1.0  0.48773  0.35290  0.96220  1.0000
  C   C30       1.0  0.45771  0.08068  0.79120  1.0000
  H   H62       1.0  0.16674  0.16604  0.73358  1.0000
  H   H63       1.0  0.03470  0.03443  0.70775  1.0000
  C   C31       1.0  0.48034  0.38178  0.98131  1.0000
  H   H64       1.0  0.18820  0.46463  0.85207  1.0000
  C   C32       1.0  0.25100  0.02877  0.74556  1.0000
  C   C33       1.0  0.43505  0.41058  0.86412  1.0000
  H   H65       1.0  0.05814  0.47874  0.73376  1.0000
  H   H66       1.0  0.08829  0.05902  0.75240  1.0000
  H   H67       1.0  0.09531  0.18490  0.75303  1.0000
  H   H68       1.0  0.09111  0.41560  0.75983  1.0000
  C   C34       1.0  0.17621  0.44018  0.83064  1.0000
  C   C35       1.0  0.45765  0.04829  0.76270  1.0000
  H   H69       1.0  0.39755  0.40487  0.86669  1.0000
  H   H70       1.0  0.03375  0.08410  0.75864  1.0000
  C   C36       1.0  0.07191  0.17359  0.73101  1.0000
  H   H71       1.0  0.12875  0.07578  0.69932  1.0000
  H   H72       1.0  0.49792  0.41153  0.89437  1.0000
  H   H73       1.0  0.16097  0.40905  0.84336  1.0000
  H   H74       1.0  0.41497  0.09550  0.88102  1.0000
  H   H75       1.0  0.42662  0.08653  0.80665  1.0000
  H   H76       1.0  0.44434  0.47607  0.78205  1.0000
  H   H77       1.0  0.44189  0.44511  0.85205  1.0000
  H   H78       1.0  0.43187  0.11306  0.69945  1.0000
  S   S12       1.0  0.20497  0.01907  0.84873  1.0000
  C   C37       1.0  0.08423  0.11365  0.79247  1.0000
  H   H79       1.0  0.40119  0.45171  0.99702  1.0000
  H   H80       1.0  0.12736  0.36290  0.80357  1.0000
  H   H81       1.0  0.44795  0.38462  0.84422  1.0000
  H   H82       1.0  0.49795  0.49020  0.88332  1.0000
  H   H83       1.0  0.03964  0.41710  0.78532  1.0000
  H   H84       1.0  0.35736  0.04143  0.87845  1.0000
  C   C38       1.0  0.08993  0.36945  0.80485  1.0000
  N   N1        1.0  0.44422  0.43317  0.93186  1.0000
  C   C39       1.0  0.39759  0.41541  0.94335  1.0000
  N   N2        1.0  0.07807  0.12279  0.72192  1.0000
  C   C40       1.0  0.07856  0.45870  0.84666  1.0000
  H   H85       1.0  0.28306  0.03733  0.73220  1.0000
  H   H86       1.0  0.07330  0.34154  0.78853  1.0000
  C   C41       1.0  0.48372  0.50745  0.90778  1.0000
  H   H87       1.0  0.07359  0.24397  0.70979  1.0000
  H   H88       1.0  0.39638  0.48847  0.70961  1.0000
  C   C42       1.0  0.43953  0.48352  0.92173  1.0000
  C   C43       1.0  0.46097  0.40441  0.90019  1.0000
  H   H89       1.0  0.47033  0.14911  0.72432  1.0000
  H   H90       1.0  0.35358  0.41417  0.99152  1.0000
  C   C44       1.0  0.49016  0.12323  0.01851  1.0000
  H   H91       1.0  0.16952  0.10793  0.75239  1.0000
  H   H92       1.0  0.44806  0.37451  0.99640  1.0000
  H   H93       1.0  0.05965  0.14112  0.80093  1.0000
  C   C45       1.0  0.12435  0.11345  0.70495  1.0000
  H   H94       1.0  0.03237  0.49965  0.79557  1.0000
  H   H95       1.0  0.37225  0.42017  0.92120  1.0000
  H   H96       1.0  0.20795  0.42864  0.81645  1.0000
  H   H97       1.0  0.09365  0.42934  0.86171  1.0000
  H   H98       1.0  0.15651  0.45575  0.77543  1.0000
  H   H99       1.0  0.11697  0.20783  0.69057  1.0000
  C   C46       1.0  0.45427  0.02977  0.88443  1.0000
  N   N3        1.0  0.09385  0.45984  0.80755  1.0000
  C   C47       1.0  0.37586  0.43939  0.97687  1.0000
  C   C48       1.0  0.07069  0.09304  0.75530  1.0000
  H   H100      1.0  0.38970  0.03171  0.93736  1.0000
  H   H101      1.0  0.39752  0.37710  0.94760  1.0000
  H   H102      1.0  0.46552  0.03100  0.85564  1.0000
  C   C49       1.0  0.49777  0.04160  0.74239  1.0000
  C   C50       1.0  0.49787  0.10546  0.80002  1.0000
  H   H103      1.0  0.35475  0.46965  0.96866  1.0000
  C   C51       1.0  0.45553  0.14337  0.69704  1.0000
  C   C52       1.0  0.44506  0.08084  0.89524  1.0000
  C   C53       1.0  0.24848  0.02989  0.78350  1.0000
  H   H104      1.0  0.27876  0.03859  0.79911  1.0000
  H   H105      1.0  0.44114  0.08527  0.92496  1.0000
  H   H106      1.0  0.42736  0.50438  0.94529  1.0000
  C   C54       1.0  0.07689  0.50611  0.74906  1.0000
  H   H107      1.0  0.11369  0.50658  0.74112  1.0000
  H   H108      1.0  0.19811  0.12119  0.71108  1.0000
  H   H109      1.0  0.43413  0.17350  0.68933  1.0000
  C   C55       1.0  0.08941  0.50306  0.86875  1.0000
  H   H110      1.0  0.47359  0.45643  0.98302  1.0000
  C   C56       1.0  0.47880  0.42919  0.96200  1.0000
  C   C57       1.0  0.07019  0.50086  0.79031  1.0000
  C   C58       1.0  0.04150  0.10971  0.69466  1.0000
  H   H111      1.0  0.35837  0.50142  0.74749  1.0000
  C   C59       1.0  0.48379  0.03988  0.00938  1.0000
  H   H112      1.0  0.08711  0.49488  0.89801  1.0000
  C   C60       1.0  0.36002  0.49173  0.71835  1.0000
  S   S13       1.0  0.07392  0.01667  0.87982  1.0000
  H   H113      1.0  0.34415  0.45665  0.71605  1.0000
  H   H114      1.0  0.38859  0.02450  0.83937  1.0000
  C   C61       1.0  0.20707  0.01961  0.80116  1.0000
  H   H115      1.0  0.50835  0.38250  0.00164  1.0000
  H   H116      1.0  0.49816  0.01623  0.72068  1.0000
  S   S14       1.0  0.11963  0.75270  0.23319  1.0000
  S   S15       1.0  0.11105  0.66693  0.17421  1.0000
  Fe  Fe2       1.0  0.07996  0.68610  0.22810  1.0000
  Fe  Fe3       1.0  0.14559  0.73700  0.17758  1.0000
  S   S16       1.0  0.22145  0.74780  0.16830  1.0000
  S   S17       1.0  0.08884  0.77498  0.14959  1.0000
  C   C62       1.0  0.03168  0.60529  0.28272  1.0000
  Fe  Fe4       1.0  0.35601  0.96932  0.13138  1.0000
  S   S18       1.0  0.40093  0.91807  0.10240  1.0000
  S   S19       1.0  0.27941  0.95639  0.13637  1.0000
  C   C63       1.0  0.02702  0.80641  0.29002  1.0000
  C   C64       1.0  0.02291  0.59475  0.09999  1.0000
  C   C65       1.0  0.43254  0.70359  0.13621  1.0000
  Fe  Fe5       1.0  0.43863  0.98074  0.08114  1.0000
  C   C66       1.0  0.01900  0.84803  0.27164  1.0000
  Fe  Fe6       1.0  0.44587  0.92505  0.15141  1.0000
  H   H117      1.0  0.39102  0.57692  0.19414  1.0000
  C   C67       1.0  0.49110  0.62508  0.10800  1.0000
  S   S20       1.0  0.39873  0.97284  0.18160  1.0000
  H   H118      1.0  0.40920  0.65463  0.19636  1.0000
  C   C68       1.0  0.45574  0.85985  0.30165  1.0000
  C   C69       1.0  0.45309  0.90198  0.28295  1.0000
  C   C70       1.0  0.45855  0.90283  0.24515  1.0000
  H   H119      1.0  0.47446  0.62299  0.16516  1.0000
  H   H120      1.0  0.32967  0.72574  0.26409  1.0000
  C   C71       1.0  0.25368  0.72836  0.26927  1.0000
  H   H121      1.0  0.44923  0.71113  0.10964  1.0000
  H   H122      1.0  0.44701  0.93400  0.29759  1.0000
  Fe  Fe7       1.0  0.05993  0.78484  0.20536  1.0000
  H   H123      1.0  0.06291  0.95594  0.11508  1.0000
  S   S21       1.0  0.36418  0.75894  0.33722  1.0000
  C   C72       1.0  0.43650  0.60577  0.27497  1.0000
  H   H124      1.0  0.40302  0.72799  0.13783  1.0000
  H   H125      1.0  0.50923  0.65905  0.10863  1.0000
  H   H126      1.0  0.12813  0.81690  0.33586  1.0000
  H   H127      1.0  0.23760  0.83259  0.24701  1.0000
  C   C73       1.0  0.02796  0.57525  0.31246  1.0000
  C   C74       1.0  0.29906  0.73389  0.24762  1.0000
  C   C75       1.0  0.23767  0.80632  0.16204  1.0000
  C   C76       1.0  0.20481  0.84168  0.16209  1.0000
  C   C77       1.0  0.21819  0.88800  0.15598  1.0000
  C   C78       1.0  0.26440  0.89914  0.14905  1.0000
  C   C79       1.0  0.29741  0.86397  0.15026  1.0000
  C   C80       1.0  0.28407  0.81769  0.15669  1.0000
  H   H128      1.0  0.16902  0.83335  0.16663  1.0000
  H   H129      1.0  0.19253  0.91509  0.15551  1.0000
  H   H130      1.0  0.33321  0.87220  0.14582  1.0000
  H   H131      1.0  0.30977  0.79064  0.15704  1.0000
  S   S22       1.0  0.08122  0.63971  0.27724  1.0000
  H   H132      1.0  0.03141  0.52017  0.09806  1.0000
  C   C81       1.0  0.33987  0.66642  0.10334  1.0000
  H   H133      1.0  0.44295  0.58374  0.13807  1.0000
  H   H134      1.0  0.39787  0.56699  0.31459  1.0000
  C   C82       1.0  0.36715  0.59876  0.17809  1.0000
  H   H135      1.0  0.48661  0.58323  0.35160  1.0000
  C   C83       1.0  0.44654  0.52334  0.28625  1.0000
  C   C84       1.0  0.19560  0.89168  0.06353  1.0000
  H   H136      1.0  0.18276  0.64582  0.30694  1.0000
  H   H137      1.0  0.22964  0.88244  0.30314  1.0000
  H   H138      1.0  0.33414  0.60193  0.19309  1.0000
  H   H139      1.0  0.13338  0.90763  0.23490  1.0000
  H   H140      1.0  0.16932  0.98337  0.07469  1.0000
  C   C85       1.0  0.25061  0.94165  0.03095  1.0000
  H   H141      1.0  0.34141  0.70470  0.10673  1.0000
  S   S23       1.0  0.40443  0.65693  0.28015  1.0000
  H   H142      1.0  0.05598  0.57278  0.33154  1.0000
  C   C86       1.0  0.24438  0.64755  0.24962  1.0000
  H   H143      1.0  0.21346  0.85751  0.06419  1.0000
  H   H144      1.0  0.21034  0.91177  0.08646  1.0000
  H   H145      1.0  0.22186  0.58137  0.22669  1.0000
  H   H146      1.0  0.18010  0.84654  0.23431  1.0000
  C   C87       1.0  0.14474  0.88295  0.07401  1.0000
  H   H147      1.0  0.25651  0.75297  0.29249  1.0000
  C   C88       1.0  0.46626  0.71907  0.16618  1.0000
  H   H148      1.0  0.47666  0.78774  0.23019  1.0000
  H   H149      1.0  0.45002  0.71878  0.19341  1.0000
  H   H150      1.0  0.14139  0.96654  0.32605  1.0000
  H   H151      1.0  0.12717  0.91571  0.08143  1.0000
  C   C89       1.0  0.46371  0.81865  0.28245  1.0000
  Fe  Fe8       1.0  0.40348  0.69203  0.33500  1.0000
  H   H152      1.0  0.18797  0.93333  0.34160  1.0000
  N   N4        1.0  0.16419  0.91352  0.28818  1.0000
  H   H153      1.0  0.24272  0.97430  0.30056  1.0000
  H   H154      1.0  0.19116  0.75080  0.32280  1.0000
  C   C90       1.0  0.42656  0.52819  0.06026  1.0000
  C   C91       1.0  0.12900  0.87981  0.30286  1.0000
  H   H155      1.0  0.01995  0.00338  0.31806  1.0000
  C   C92       1.0  0.01621  0.55005  0.08512  1.0000
  H   H156      1.0  0.04919  0.70734  0.02558  1.0000
  C   C93       1.0  0.18571  0.71383  0.32994  1.0000
  S   S24       1.0  0.44985  0.85880  0.34900  1.0000
  C   C94       1.0  0.42481  0.56569  0.29433  1.0000
  H   H157      1.0  0.14919  0.71052  0.33855  1.0000
  H   H158      1.0  0.03438  0.87721  0.09664  1.0000
  C   C95       1.0  0.14527  0.93508  0.25410  1.0000
  H   H159      1.0  0.04311  0.59924  0.12432  1.0000
  H   H160      1.0  0.31190  0.66578  0.29855  1.0000
  H   H161      1.0  0.11747  0.85462  0.28175  1.0000
  H   H162      1.0  0.23634  0.61627  0.34265  1.0000
  C   C96       1.0  0.46683  0.86165  0.22592  1.0000
  H   H163      1.0  0.12461  0.86519  0.05276  1.0000
  H   H164      1.0  0.08620  0.96277  0.15930  1.0000
  H   H165      1.0  0.21101  0.01347  0.32861  1.0000
  H   H166      1.0  0.47952  0.63447  0.23296  1.0000
  S   S25       1.0  0.47530  0.86206  0.17870  1.0000
  C   C97       1.0  0.17370  0.94971  0.31679  1.0000
  C   C98       1.0  0.08554  0.69611  0.02802  1.0000
  H   H167      1.0  0.46587  0.78596  0.29663  1.0000
  C   C99       1.0  0.46981  0.81964  0.24474  1.0000
  Fe  Fe9       1.0  0.05139  0.70627  0.15090  1.0000
  H   H168      1.0  0.47526  0.61965  0.08103  1.0000
  H   H169      1.0  0.13254  0.01151  0.04258  1.0000
  H   H170      1.0  0.35894  0.58013  0.15265  1.0000
  S   S26       1.0  0.03371  0.85313  0.22572  1.0000
  H   H171      1.0  0.09244  0.98009  0.23215  1.0000
  H   H172      1.0  0.36016  0.67414  0.17428  1.0000
  C   C100      1.0  0.10431  0.96843  0.25921  1.0000
  H   H173      1.0  0.29683  0.61451  0.34949  1.0000
  H   H174      1.0  0.27434  0.59026  0.30889  1.0000
  H   H175      1.0  0.14352  0.86039  0.09838  1.0000
  C   C101      1.0  0.06022  0.94320  0.14328  1.0000
  H   H176      1.0  0.09693  0.89829  0.31042  1.0000
  H   H177      1.0  0.06986  0.90601  0.14518  1.0000
  C   C102      1.0  0.01255  0.95156  0.16017  1.0000
  H   H178      1.0  0.32423  0.65930  0.07643  1.0000
  H   H179      1.0  0.22572  0.74165  0.25158  1.0000
  C   C103      1.0  0.14290  0.85255  0.33712  1.0000
  C   C104      1.0  0.45567  0.62033  0.13902  1.0000
  H   H180      1.0  0.21360  0.58398  0.27466  1.0000
  H   H181      1.0  0.29958  0.71287  0.22240  1.0000
  H   H182      1.0  0.40637  0.65598  0.07961  1.0000
  H   H183      1.0  0.31639  0.65123  0.12394  1.0000
  H   H184      1.0  0.45755  0.93555  0.23115  1.0000
  C   C105      1.0  0.26993  0.61905  0.32855  1.0000
  H   H185      1.0  0.16926  0.69012  0.27609  1.0000
  H   H186      1.0  0.30277  0.77076  0.23913  1.0000
  C   C106      1.0  0.38790  0.64397  0.10441  1.0000
  H   H187      1.0  0.17242  0.95457  0.23905  1.0000
  C   C107      1.0  0.20862  0.88943  0.27862  1.0000
  H   H188      1.0  0.17595  0.61520  0.24482  1.0000
  H   H189      1.0  0.23506  0.66637  0.22429  1.0000
  N   N5        1.0  0.24212  0.67985  0.28212  1.0000
  H   H190      1.0  0.09197  0.68987  0.05726  1.0000
  C   C108      1.0  0.47993  0.52091  0.25878  1.0000
  C   C109      1.0  0.19404  0.68070  0.29761  1.0000
  H   H191      1.0  0.28018  0.63505  0.24521  1.0000
  C   C110      1.0  0.38788  0.64770  0.17199  1.0000
  H   H192      1.0  0.18043  0.84841  0.34031  1.0000
  N   N6        1.0  0.41600  0.65383  0.13794  1.0000
  H   H193      1.0  0.47679  0.75568  0.16099  1.0000
  H   H194      1.0  0.07453  0.95131  0.27235  1.0000
  C   C111      1.0  0.27688  0.66659  0.31039  1.0000
  C   C112      1.0  0.21215  0.60465  0.24952  1.0000
  H   H195      1.0  0.38316  0.60601  0.09987  1.0000
  H   H196      1.0  0.03945  0.77631  0.27555  1.0000
  H   H197      1.0  0.27833  0.69326  0.33228  1.0000
  S   S27       1.0  0.48872  0.98193  0.12719  1.0000
  H   H198      1.0  0.19608  0.00813  0.28186  1.0000
  C   C113      1.0  0.47034  0.60350  0.24793  1.0000
  H   H199      1.0  0.49817  0.69822  0.16645  1.0000
  H   H200      1.0  0.11378  0.00020  0.27460  1.0000
  S   S28       1.0  0.01738  0.71991  0.20471  1.0000
  S   S29       1.0  0.46281  0.98500  0.02283  1.0000
  H   H201      1.0  0.02856  0.77245  0.34179  1.0000
  H   H202      1.0  0.28857  0.88709  0.06063  1.0000
  C   C114      1.0  0.16614  0.99382  0.04593  1.0000
  C   C115      1.0  0.20787  0.98835  0.30578  1.0000
  C   C116      1.0  0.49215  0.56125  0.23995  1.0000
  H   H203      1.0  0.19071  0.81530  0.27569  1.0000
  H   H204      1.0  0.23089  0.91235  0.26162  1.0000
  C   C117      1.0  0.20349  0.84332  0.25770  1.0000
  H   H205      1.0  0.20690  0.70454  0.35371  1.0000
  H   H206      1.0  0.32296  0.93393  0.04407  1.0000
  H   H207      1.0  0.25036  0.96688  0.05394  1.0000
  C   C118      1.0  0.42241  0.55015  0.02647  1.0000
  H   H208      1.0  0.39638  0.52339  0.07710  1.0000
  N   N7        1.0  0.20500  0.91641  0.02822  1.0000
  C   C119      1.0  0.50839  0.51689  0.05033  1.0000
  C   C120      1.0  0.29326  0.91103  0.03738  1.0000
  H   H209      1.0  0.01449  0.93628  0.18767  1.0000
  C   C121      1.0  0.02019  0.80396  0.32756  1.0000
  H   H210      1.0  0.39701  0.94399  0.35174  1.0000
  Fe  Fe10      1.0  0.08807  0.60427  0.61219  1.0000
  S   S30       1.0  0.04564  0.66376  0.63266  1.0000
  S   S31       1.0  0.07548  0.56550  0.55947  1.0000
  H   H211      1.0  0.08793  0.69042  0.40280  1.0000
  Fe  Fe11      1.0  0.02830  0.01347  0.40195  1.0000
  Fe  Fe12      1.0  0.11294  0.69345  0.65259  1.0000
  S   S32       1.0  0.13010  0.77015  0.65018  1.0000
  H   H212      1.0  0.44446  0.93967  0.46694  1.0000
  S   S33       1.0  0.15596  0.63680  0.62809  1.0000
  H   H213      1.0  0.28900  0.68227  0.55381  1.0000
  C   C122      1.0  0.31993  0.60298  0.66949  1.0000
  H   H214      1.0  0.17262  0.75179  0.52221  1.0000
  Fe  Fe13      1.0  0.11351  0.96042  0.42764  1.0000
  S   S34       1.0  0.19063  0.95163  0.42194  1.0000
  S   S35       1.0  0.07180  0.91316  0.46298  1.0000
  Fe  Fe14      1.0  0.34195  0.73660  0.39248  1.0000
  S   S36       1.0  0.40104  0.77084  0.42088  1.0000
  S   S37       1.0  0.26832  0.74567  0.41070  1.0000
  H   H215      1.0  0.34105  0.93047  0.45019  1.0000
  H   H216      1.0  0.44715  0.52902  0.41701  1.0000
  Fe  Fe15      1.0  0.43690  0.70245  0.41258  1.0000
  H   H217      1.0  0.10664  0.94984  0.55580  1.0000
  H   H218      1.0  0.21626  0.71893  0.65419  1.0000
  C   C123      1.0  0.20456  0.75673  0.53822  1.0000
  S   S38       1.0  0.37554  0.66615  0.38827  1.0000
  H   H219      1.0  0.20484  0.79343  0.54744  1.0000
  H   H220      1.0  0.12936  0.87002  0.36180  1.0000
  Fe  Fe16      1.0  0.34850  0.91455  0.65160  1.0000
  S   S39       1.0  0.33853  0.83672  0.64531  1.0000
  Fe  Fe17      1.0  0.37513  0.00796  0.61871  1.0000
  S   S40       1.0  0.06812  0.95359  0.37899  1.0000
  H   H221      1.0  0.28868  0.60810  0.68662  1.0000
  H   H222      1.0  0.42145  0.90830  0.42996  1.0000
  H   H223      1.0  0.41698  0.56736  0.38785  1.0000
  C   C124      1.0  0.44204  0.59675  0.47583  1.0000
  H   H224      1.0  0.36550  0.96442  0.48704  1.0000
  H   H225      1.0  0.05445  0.64060  0.39117  1.0000
  C   C125      1.0  0.21179  0.89417  0.41887  1.0000
  C   C126      1.0  0.25800  0.88687  0.40952  1.0000
  C   C127      1.0  0.27576  0.84152  0.40672  1.0000
  C   C128      1.0  0.24727  0.80311  0.41341  1.0000
  C   C129      1.0  0.20112  0.81040  0.42288  1.0000
  C   C130      1.0  0.18344  0.85571  0.42558  1.0000
  H   H226      1.0  0.27995  0.91645  0.40413  1.0000
  H   H227      1.0  0.31140  0.83631  0.39933  1.0000
  H   H228      1.0  0.17883  0.78091  0.42804  1.0000
  H   H229      1.0  0.14775  0.86071  0.43264  1.0000
  C   C131      1.0  0.18829  0.78769  0.64871  1.0000
  H   H230      1.0  0.22626  0.93100  0.49805  1.0000
  C   C132      1.0  0.24480  0.85043  0.64490  1.0000
  C   C133      1.0  0.28062  0.81831  0.64696  1.0000
  C   C134      1.0  0.27012  0.77084  0.65037  1.0000
  C   C135      1.0  0.22408  0.75552  0.65129  1.0000
  C   C136      1.0  0.41750  0.61009  0.64726  1.0000
  C   C137      1.0  0.30362  0.58359  0.63267  1.0000
  C   C138      1.0  0.43963  0.55464  0.49511  1.0000
  S   S41       1.0  0.01114  0.98763  0.53744  1.0000
  H   H231      1.0  0.01994  0.74094  0.40167  1.0000
  H   H232      1.0  0.20159  0.73346  0.56204  1.0000
  H   H233      1.0  0.25235  0.88715  0.64281  1.0000
  H   H234      1.0  0.17136  0.86026  0.64394  1.0000
  H   H235      1.0  0.49059  0.60355  0.39703  1.0000
  C   C139      1.0  0.47396  0.54290  0.52010  1.0000
  H   H236      1.0  0.41559  0.60548  0.45654  1.0000
  C   C140      1.0  0.28859  0.83959  0.51719  1.0000
  H   H237      1.0  0.36115  0.69051  0.46807  1.0000
  H   H238      1.0  0.44026  0.51541  0.36937  1.0000
  H   H239      1.0  0.39564  0.53909  0.64830  1.0000
  C   C141      1.0  0.02133  0.56750  0.53796  1.0000
  H   H240      1.0  0.36382  0.75420  0.51217  1.0000
  H   H241      1.0  0.15593  0.93622  0.58207  1.0000
  N   N8        1.0  0.16023  0.00278  0.55445  1.0000
  C   C142      1.0  0.37950  0.98805  0.39855  1.0000
  H   H242      1.0  0.37334  0.70840  0.56210  1.0000
  C   C143      1.0  0.13318  0.96540  0.57402  1.0000
  C   C144      1.0  0.37120  0.93491  0.46813  1.0000
  H   H243      1.0  0.33261  0.57199  0.61534  1.0000
  C   C145      1.0  0.47928  0.62690  0.48109  1.0000
  H   H244      1.0  0.34455  0.66809  0.51090  1.0000
  S   S42       1.0  0.08255  0.56310  0.66347  1.0000
  N   N9        1.0  0.29295  0.75161  0.53088  1.0000
  S   S43       1.0  0.48618  0.67811  0.45561  1.0000
  H   H245      1.0  0.30172  0.67909  0.47650  1.0000
  H   H246      1.0  0.32271  0.76396  0.47786  1.0000
  H   H247      1.0  0.24323  0.76451  0.48841  1.0000
  S   S44       1.0  0.41469  0.95628  0.65223  1.0000
  H   H248      1.0  0.33424  0.80687  0.55444  1.0000
  C   C146      1.0  0.44685  0.54357  0.38927  1.0000
  H   H249      1.0  0.27652  0.80681  0.56909  1.0000
  C   C147      1.0  0.34505  0.71791  0.58087  1.0000
  C   C148      1.0  0.20773  0.93785  0.52390  1.0000
  C   C149      1.0  0.39911  0.56761  0.66866  1.0000
  H   H250      1.0  0.28485  0.61117  0.61789  1.0000
  H   H251      1.0  0.35308  0.75167  0.59408  1.0000
  C   C150      1.0  0.33383  0.69208  0.48912  1.0000
  C   C151      1.0  0.17772  0.98158  0.51958  1.0000
  H   H252      1.0  0.14838  0.97172  0.50173  1.0000
  H   H253      1.0  0.13140  0.99925  0.62812  1.0000
  H   H254      1.0  0.07749  0.00169  0.60331  1.0000
  H   H255      1.0  0.18611  0.90672  0.52942  1.0000
  H   H256      1.0  0.31158  0.83773  0.49322  1.0000
  H   H257      1.0  0.27892  0.55442  0.63652  1.0000
  H   H258      1.0  0.29764  0.74589  0.65262  1.0000
  H   H259      1.0  0.29500  0.87376  0.53042  1.0000
  Fe  Fe18      1.0  0.42629  0.78750  0.36502  1.0000
  C   C152      1.0  0.24630  0.74447  0.51401  1.0000
  C   C153      1.0  0.32934  0.74282  0.50246  1.0000
  H   H260      1.0  0.21202  0.99029  0.59503  1.0000
  H   H261      1.0  0.45568  0.61047  0.64894  1.0000
  H   H262      1.0  0.19790  0.00662  0.50318  1.0000
  C   C154      1.0  0.29851  0.80068  0.54480  1.0000
  C   C155      1.0  0.19886  0.83514  0.64557  1.0000
  H   H263      1.0  0.23374  0.94178  0.54554  1.0000
  H   H264      1.0  0.46544  0.00879  0.38102  1.0000
  C   C156      1.0  0.05593  0.67886  0.38903  1.0000
  H   H265      1.0  0.25231  0.83947  0.50812  1.0000
  Fe  Fe19      1.0  0.28909  0.99922  0.66506  1.0000
  H   H266      1.0  0.24136  0.70756  0.50577  1.0000
  C   C157      1.0  0.37014  0.94658  0.37300  1.0000
  Fe  Fe20      1.0  0.14533  0.60160  0.68184  1.0000
  H   H267      1.0  0.27231  0.72691  0.58379  1.0000
  C   C158      1.0  0.29763  0.71849  0.56220  1.0000
  H   H268      1.0  0.34445  0.69138  0.60266  1.0000
  C   C159      1.0  0.46329  0.97984  0.40077  1.0000
  H   H269      1.0  0.33277  0.63861  0.66445  1.0000
  H   H270      1.0  0.34744  0.99495  0.41421  1.0000
  H   H271      1.0  0.41118  0.53097  0.49060  1.0000
  C   C160      1.0  0.49095  0.57138  0.38003  1.0000
  H   H272      1.0  0.40601  0.64439  0.65706  1.0000
  H   H273      1.0  0.36691  0.91301  0.38741  1.0000
  S   S45       1.0  0.31182  0.96296  0.61453  1.0000
  S   S46       1.0  0.46763  0.72254  0.35881  1.0000
  H   H274      1.0  0.05962  0.68904  0.36013  1.0000
  H   H275      1.0  0.01859  0.69928  0.43692  1.0000
  C   C161      1.0  0.01235  0.53759  0.50861  1.0000
  H   H276      1.0  0.37339  0.90303  0.48492  1.0000
  C   C162      1.0  0.01450  0.70321  0.40707  1.0000
  H   H277      1.0  0.33719  0.95240  0.35866  1.0000
  N   N10       1.0  0.42026  0.98339  0.42343  1.0000
  H   H278      1.0  0.46260  0.94785  0.38382  1.0000
  C   C163      1.0  0.41640  0.94038  0.44651  1.0000
  H   H279      1.0  0.40975  0.60631  0.61794  1.0000
  C   C164      1.0  0.10833  0.98048  0.60918  1.0000
  Fe  Fe21      1.0  0.02414  0.90989  0.41553  1.0000
  C   C165      1.0  0.50889  0.97809  0.42200  1.0000
  H   H280      1.0  0.09566  0.94894  0.62348  1.0000
  Fe  Fe22      1.0  0.04429  0.62445  0.68511  1.0000
  Fe  Fe23      1.0  0.03247  0.97719  0.47893  1.0000
  Fe  Fe24      1.0  0.04425  0.95555  0.84943  1.0000
  H   H281      1.0  0.49897  0.63660  0.75829  1.0000
  H   H282      1.0  0.14068  0.99752  0.72706  1.0000
  H   H283      1.0  0.04623  0.66724  0.89742  1.0000
  S   S47       1.0  0.11254  0.92490  0.83497  1.0000
  Fe  Fe25      1.0  0.10663  0.88562  0.88663  1.0000
  S   S48       1.0  0.12574  0.80982  0.88573  1.0000
  S   S49       1.0  0.14137  0.94064  0.91955  1.0000
  Fe  Fe26      1.0  0.27447  0.59984  0.89962  1.0000
  S   S50       1.0  0.31828  0.63551  0.85819  1.0000
  S   S51       1.0  0.20089  0.58838  0.88320  1.0000
  Fe  Fe27      1.0  0.35322  0.59551  0.95531  1.0000
  S   S52       1.0  0.40261  0.63212  0.91783  1.0000
  Fe  Fe28      1.0  0.38337  0.99445  0.69991  1.0000
  Fe  Fe29      1.0  0.34215  0.67874  0.90514  1.0000
  S   S53       1.0  0.33608  0.75685  0.90079  1.0000
  Fe  Fe30      1.0  0.37278  0.58535  0.87454  1.0000
  S   S54       1.0  0.40478  0.53412  0.83578  1.0000
  S   S55       1.0  0.29523  0.64563  0.94593  1.0000
  S   S56       1.0  0.32682  0.54606  0.91295  1.0000
  H   H284      1.0  0.09686  0.70439  0.89830  1.0000
  H   H285      1.0  0.13647  0.78030  0.80189  1.0000
  H   H286      1.0  0.40731  0.92052  0.88460  1.0000
  C   C166      1.0  0.44289  0.54738  0.80029  1.0000
  C   C167      1.0  0.45853  0.59266  0.79374  1.0000
  H   H287      1.0  0.42220  0.95339  0.82007  1.0000
  H   H288      1.0  0.16716  0.63042  0.96314  1.0000
  H   H289      1.0  0.23694  0.74144  0.75845  1.0000
  C   C168      1.0  0.14536  0.65947  0.95350  1.0000
  S   S57       1.0  0.36782  0.56997  0.01252  1.0000
  H   H290      1.0  0.44839  0.62068  0.81164  1.0000
  H   H291      1.0  0.47533  0.54367  0.89985  1.0000
  H   H292      1.0  0.38460  0.65468  0.75671  1.0000
  H   H293      1.0  0.10055  0.82561  0.73515  1.0000
  C   C169      1.0  0.09353  0.65036  0.00686  1.0000
  H   H294      1.0  0.45896  0.57337  0.97900  1.0000
  C   C170      1.0  0.18467  0.79678  0.88876  1.0000
  C   C171      1.0  0.19848  0.75052  0.88492  1.0000
  C   C172      1.0  0.24467  0.73832  0.88929  1.0000
  C   C173      1.0  0.27775  0.77232  0.89705  1.0000
  C   C174      1.0  0.26427  0.81901  0.89978  1.0000
  C   C175      1.0  0.21776  0.83123  0.89564  1.0000
  H   H295      1.0  0.17346  0.72371  0.87893  1.0000
  H   H296      1.0  0.25451  0.70239  0.88641  1.0000
  H   H297      1.0  0.28977  0.84560  0.90519  1.0000
  H   H298      1.0  0.20754  0.86716  0.89808  1.0000
  H   H299      1.0  0.27779  0.78818  0.82683  1.0000
  H   H300      1.0  0.26758  0.54203  0.76695  1.0000
  C   C176      1.0  0.20103  0.57322  0.75979  1.0000
  C   C177      1.0  0.23841  0.55787  0.78022  1.0000
  C   C178      1.0  0.23830  0.56268  0.81803  1.0000
  C   C179      1.0  0.20062  0.58257  0.83580  1.0000
  C   C180      1.0  0.16274  0.59722  0.81558  1.0000
  C   C181      1.0  0.16295  0.59250  0.77763  1.0000
  H   H301      1.0  0.10331  0.87885  0.75840  1.0000
  H   H302      1.0  0.08231  0.53419  0.80243  1.0000
  H   H303      1.0  0.13327  0.61207  0.82925  1.0000
  H   H304      1.0  0.13317  0.60265  0.76246  1.0000
  H   H305      1.0  0.11194  0.73053  0.82527  1.0000
  H   H306      1.0  0.21645  0.87503  0.82412  1.0000
  H   H307      1.0  0.06462  0.62725  0.01550  1.0000
  H   H308      1.0  0.18793  0.83875  0.76818  1.0000
  H   H309      1.0  0.30349  0.98971  0.86096  1.0000
  Fe  Fe31      1.0  0.14151  0.98248  0.86857  1.0000
  H   H310      1.0  0.15220  0.73594  0.95646  1.0000
  H   H311      1.0  0.17129  0.83309  0.96352  1.0000
  H   H312      1.0  0.17399  0.70499  0.99585  1.0000
  H   H313      1.0  0.26728  0.55036  0.83352  1.0000
  H   H314      1.0  0.08248  0.53275  0.95471  1.0000
  S   S58       1.0  0.32142  0.94784  0.70192  1.0000
  C   C182      1.0  0.10213  0.56343  0.96438  1.0000
  C   C183      1.0  0.06287  0.69743  0.91074  1.0000
  H   H315      1.0  0.45552  0.90494  0.83442  1.0000
  H   H316      1.0  0.13554  0.00241  0.79401  1.0000
  C   C184      1.0  0.36273  0.59410  0.72633  1.0000
  H   H317      1.0  0.33028  0.59389  0.74255  1.0000
  H   H318      1.0  0.14682  0.72244  0.78616  1.0000
  H   H319      1.0  0.16094  0.82526  0.01039  1.0000
  C   C185      1.0  0.05767  0.82975  0.78541  1.0000
  H   H320      1.0  0.05237  0.86499  0.73287  1.0000
  H   H321      1.0  0.03678  0.79251  0.70583  1.0000
  C   C186      1.0  0.49949  0.56536  0.73996  1.0000
  H   H322      1.0  0.14772  0.65791  0.92345  1.0000
  C   C187      1.0  0.43273  0.94841  0.87940  1.0000
  H   H323      1.0  0.46236  0.93926  0.89707  1.0000
  C   C188      1.0  0.06568  0.69164  0.95223  1.0000
  H   H324      1.0  0.17497  0.96692  0.99200  1.0000
  C   C189      1.0  0.07851  0.60794  0.95042  1.0000
  H   H325      1.0  0.06395  0.53079  0.86325  1.0000
  C   C190      1.0  0.25806  0.79143  0.80131  1.0000
  C   C191      1.0  0.28478  0.87263  0.79679  1.0000
  C   C192      1.0  0.23948  0.89679  0.80725  1.0000
  H   H326      1.0  0.22342  0.80228  0.81022  1.0000
  H   H327      1.0  0.30510  0.86845  0.82214  1.0000
  C   C193      1.0  0.25317  0.74185  0.78555  1.0000
  H   H328      1.0  0.22122  0.90981  0.78300  1.0000
  H   H329      1.0  0.24775  0.92798  0.82385  1.0000
  H   H330      1.0  0.04090  0.60410  0.95592  1.0000
  C   C194      1.0  0.12048  0.74556  0.79841  1.0000
  H   H331      1.0  0.33953  0.96606  0.82684  1.0000
  H   H332      1.0  0.30343  0.89875  0.78005  1.0000
  H   H333      1.0  0.38755  0.57275  0.74169  1.0000
  N   N11       1.0  0.28116  0.82668  0.77707  1.0000
  H   H334      1.0  0.28675  0.72378  0.78437  1.0000
  S   S59       1.0  0.05713  0.99086  0.98682  1.0000
  H   H335      1.0  0.34695  0.80146  0.79658  1.0000
  S   S60       1.0  0.03511  0.91054  0.89883  1.0000
  C   C195      1.0  0.32954  0.80944  0.77042  1.0000
  C   C196      1.0  0.20413  0.83318  0.74148  1.0000
  H   H336      1.0  0.39409  0.82320  0.74239  1.0000
  C   C197      1.0  0.38238  0.64382  0.72782  1.0000
  H   H337      1.0  0.23107  0.72084  0.80398  1.0000
  H   H338      1.0  0.08246  0.60692  0.92040  1.0000
  S   S61       1.0  0.20257  0.56670  0.71226  1.0000
  S   S62       1.0  0.10671  0.66039  0.70723  1.0000
  H   H339      1.0  0.34679  0.85297  0.72303  1.0000
  C   C198      1.0  0.50429  0.53897  0.01660  1.0000
  C   C199      1.0  0.25738  0.83211  0.74110  1.0000
  H   H340      1.0  0.19224  0.86192  0.72382  1.0000
  H   H341      1.0  0.32910  0.77629  0.75478  1.0000
  S   S63       1.0  0.40861  0.01319  0.75608  1.0000
  N   N12       1.0  0.09627  0.65327  0.96590  1.0000
  H   H342      1.0  0.33917  0.94192  0.87182  1.0000
  H   H343      1.0  0.26952  0.86424  0.72725  1.0000
  H   H344      1.0  0.26717  0.80305  0.72270  1.0000
  H   H345      1.0  0.04541  0.62911  0.83417  1.0000
  C   C200      1.0  0.44863  0.94232  0.83969  1.0000
  C   C201      1.0  0.36192  0.84211  0.74908  1.0000
  C   C202      1.0  0.16801  0.00877  0.78068  1.0000
  C   C203      1.0  0.16975  0.70419  0.96607  1.0000
  C   C204      1.0  0.46156  0.55584  0.00480  1.0000
  H   H346      1.0  0.20501  0.70475  0.95450  1.0000
  H   H347      1.0  0.02893  0.85364  0.79228  1.0000
  H   H348      1.0  0.12506  0.63400  0.01805  1.0000
  H   H349      1.0  0.48125  0.96118  0.83412  1.0000
  C   C205      1.0  0.33808  0.97454  0.85625  1.0000
  H   H350      1.0  0.04643  0.63279  0.76698  1.0000
  H   H351      1.0  0.18994  0.80076  0.72936  1.0000
  H   H352      1.0  0.37229  0.87304  0.76519  1.0000
  Fe  Fe32      1.0  0.07027  0.96941  0.92840  1.0000
  H   H353      1.0  0.08196  0.83499  0.80826  1.0000
  H   H354      1.0  0.01517  0.72879  0.82172  1.0000
  H   H355      1.0  0.36029  0.66958  0.71418  1.0000
  C   C206      1.0  0.48413  0.52025  0.74688  1.0000
  H   H356      1.0  0.13752  0.56000  0.95336  1.0000
  C   C207      1.0  0.48703  0.60159  0.76359  1.0000
  C   C208      1.0  0.16578  0.85225  0.98931  1.0000
  H   H357      1.0  0.21784  0.90083  0.97162  1.0000
  H   H358      1.0  0.05111  0.77213  0.84151  1.0000
  H   H359      1.0  0.37105  0.92628  0.93578  1.0000
  H   H360      1.0  0.29788  0.52926  0.70671  1.0000
  H   H361      1.0  0.23655  0.85684  0.00182  1.0000
  C   C209      1.0  0.07929  0.85035  0.75074  1.0000
  C   C210      1.0  0.01720  0.61455  0.81880  1.0000
  H   H362      1.0  0.13407  0.87283  0.98571  1.0000
  H   H363      1.0  0.09185  0.75338  0.74558  1.0000
  C   C211      1.0  0.07833  0.74677  0.77321  1.0000
  H   H364      1.0  0.04109  0.72804  0.90472  1.0000
  C   C212      1.0  0.20858  0.88229  0.99716  1.0000
  H   H365      1.0  0.07648  0.72611  0.96282  1.0000
  H   H366      1.0  0.02984  0.68619  0.96230  1.0000
  H   H367      1.0  0.06416  0.71084  0.77206  1.0000
  H   H368      1.0  0.06208  0.53986  0.74063  1.0000
  C   C213      1.0  0.02385  0.76664  0.82089  1.0000
  H   H369      1.0  0.10268  0.56093  0.99432  1.0000
  N   N13       1.0  0.04070  0.78021  0.78357  1.0000
  H   H370      1.0  0.25728  0.96264  0.00609  1.0000
  C   C214      1.0  0.37529  0.01130  0.86579  1.0000
  C   C215      1.0  0.17069  0.00693  0.74272  1.0000
  H   H371      1.0  0.41803  0.64510  0.71711  1.0000
  C   C216      1.0  0.36308  0.96327  0.94113  1.0000
  C   C217      1.0  0.01773  0.61696  0.78082  1.0000
  C   C218      1.0  0.33289  0.52610  0.69461  1.0000
  C   C219      1.0  0.01224  0.76698  0.71724  1.0000
  H   H372      1.0  0.02561  0.73128  0.71288  1.0000
  H   H373      1.0  0.43228  0.98901  0.94595  1.0000
  N   N14       1.0  0.41475  0.99595  0.88932  1.0000
  H   H374      1.0  0.35910  0.96651  0.97102  1.0000
  H   H375      1.0  0.32952  0.97294  0.92928  1.0000
  C   C220      1.0  0.40166  0.99665  0.92894  1.0000
  H   H376      1.0  0.10819  0.72506  0.01962  1.0000
  H   H377      1.0  0.30322  0.89128  0.01272  1.0000
  H   H378      1.0  0.12448  0.51672  0.86367  1.0000
  C   C221      1.0  0.16894  0.95214  0.01948  1.0000
  H   H379      1.0  0.13409  0.93646  0.01812  1.0000
  H   H380      1.0  0.42689  0.55628  0.68727  1.0000
  N   N15       1.0  0.35447  0.57354  0.68925  1.0000
  Fe  Fe33      1.0  0.90277  0.09993  0.17546  1.0000
  S   S64       1.0  0.85365  0.05317  0.14540  1.0000
  S   S65       1.0  0.95992  0.06042  0.20284  1.0000
  Fe  Fe34      1.0  0.85488  0.18772  0.14922  1.0000
  S   S66       1.0  0.80377  0.14698  0.11684  1.0000
  S   S67       1.0  0.84599  0.26574  0.14869  1.0000
  Fe  Fe35      1.0  0.79942  0.10182  0.16608  1.0000
  S   S68       1.0  0.72929  0.08426  0.18860  1.0000
  Fe  Fe36      1.0  0.86373  0.10332  0.09956  1.0000
  S   S69       1.0  0.87075  0.08360  0.04033  1.0000
  S   S70       1.0  0.84757  0.14495  0.19968  1.0000
  S   S71       1.0  0.91579  0.14768  0.12809  1.0000
  C   C222      1.0  0.84537  0.24844  0.05044  1.0000
  S   S72       1.0  0.62409  0.43586  0.21510  1.0000
  Fe  Fe37      1.0  0.61703  0.39357  0.16473  1.0000
  S   S73       1.0  0.63561  0.31759  0.16680  1.0000
  S   S74       1.0  0.65048  0.44678  0.12921  1.0000
  H   H381      1.0  0.60912  0.30416  0.05590  1.0000
  S   S75       1.0  0.61441  0.16500  0.35213  1.0000
  H   H382      1.0  0.55361  0.03062  0.19179  1.0000
  C   C223      1.0  0.75252  0.41146  0.26238  1.0000
  C   C224      1.0  0.79575  0.26647  0.04656  1.0000
  C   C225      1.0  0.98498  0.06856  0.32521  1.0000
  C   C226      1.0  0.78787  0.28096  0.15471  1.0000
  C   C227      1.0  0.77388  0.32727  0.15076  1.0000
  C   C228      1.0  0.72727  0.33924  0.15492  1.0000
  C   C229      1.0  0.69457  0.30481  0.16288  1.0000
  C   C230      1.0  0.70884  0.25887  0.16747  1.0000
  C   C231      1.0  0.75523  0.24696  0.16349  1.0000
  H   H383      1.0  0.79903  0.35383  0.14425  1.0000
  H   H384      1.0  0.71673  0.37495  0.15178  1.0000
  H   H385      1.0  0.68402  0.23232  0.17422  1.0000
  H   H386      1.0  0.76569  0.21143  0.16782  1.0000
  C   C232      1.0  0.72884  0.08712  0.23626  1.0000
  C   C233      1.0  0.76919  0.08048  0.25604  1.0000
  C   C234      1.0  0.76822  0.08218  0.29408  1.0000
  C   C235      1.0  0.72693  0.09066  0.31260  1.0000
  C   C236      1.0  0.68652  0.09669  0.29276  1.0000
  C   C237      1.0  0.68750  0.09515  0.25475  1.0000
  H   H387      1.0  0.80106  0.07295  0.24209  1.0000
  C   C238      1.0  0.53667  0.29717  0.31080  1.0000
  H   H388      1.0  0.53855  0.17172  0.07988  1.0000
  H   H389      1.0  0.65608  0.09956  0.23974  1.0000
  C   C239      1.0  0.96737  0.06341  0.25019  1.0000
  C   C240      1.0  0.95062  0.10079  0.27053  1.0000
  H   H390      1.0  0.53052  0.18434  0.16267  1.0000
  H   H391      1.0  0.65420  0.10108  0.30661  1.0000
  H   H392      1.0  0.93171  0.12816  0.25732  1.0000
  H   H393      1.0  0.69893  0.20288  0.09883  1.0000
  H   H394      1.0  0.76008  0.27840  0.32347  1.0000
  C   C241      1.0  0.96154  0.05773  0.04787  1.0000
  H   H395      1.0  0.61973  0.26159  0.31350  1.0000
  H   H396      1.0  0.95937  0.07157  0.07511  1.0000
  C   C242      1.0  0.60092  0.10496  0.08147  1.0000
  H   H397      1.0  0.95223  0.27594  0.03786  1.0000
  N   N16       1.0  0.56935  0.29494  0.27902  1.0000
  C   C243      1.0  0.00076  0.03061  0.30499  1.0000
  N   N17       1.0  0.81820  0.35167  0.27021  1.0000
  C   C244      1.0  0.85525  0.38859  0.27339  1.0000
  C   C245      1.0  0.78126  0.37136  0.24608  1.0000
  C   C246      1.0  0.83954  0.31029  0.25145  1.0000
  C   C247      1.0  0.80116  0.33931  0.30765  1.0000
  C   C248      1.0  0.89462  0.37894  0.30035  1.0000
  C   C249      1.0  0.80991  0.26590  0.24865  1.0000
  H   H398      1.0  0.61781  0.19592  0.07307  1.0000
  H   H399      1.0  0.87128  0.39560  0.24644  1.0000
  H   H400      1.0  0.84074  0.42236  0.28226  1.0000
  H   H401      1.0  0.75663  0.34446  0.23676  1.0000
  H   H402      1.0  0.79670  0.38448  0.22033  1.0000
  H   H403      1.0  0.85042  0.31975  0.22337  1.0000
  H   H404      1.0  0.87131  0.29906  0.26536  1.0000
  Fe  Fe38      1.0  0.65194  0.49145  0.17890  1.0000
  H   H405      1.0  0.58049  0.04224  0.11247  1.0000
  H   H406      1.0  0.90638  0.17864  0.04212  1.0000
  H   H407      1.0  0.98049  0.22347  0.05105  1.0000
  Fe  Fe39      1.0  0.55525  0.46515  0.20131  1.0000
  C   C250      1.0  0.75483  0.31282  0.31059  1.0000
  C   C251      1.0  0.61636  0.33692  0.07078  1.0000
  H   H408      1.0  0.73684  0.30690  0.28479  1.0000
  C   C252      1.0  0.60424  0.25749  0.28610  1.0000
  H   H409      1.0  0.60968  0.03689  0.21065  1.0000
  C   C253      1.0  0.60478  0.12164  0.14678  1.0000
  C   C254      1.0  0.62401  0.35721  0.30599  1.0000
  H   H410      1.0  0.73108  0.33232  0.32860  1.0000
  H   H411      1.0  0.70835  0.35217  0.05696  1.0000
  H   H412      1.0  0.58736  0.22272  0.28651  1.0000
  H   H413      1.0  0.63372  0.09645  0.14457  1.0000
  H   H414      1.0  0.63983  0.39130  0.29900  1.0000
  H   H415      1.0  0.79764  0.37123  0.32451  1.0000
  H   H416      1.0  0.68159  0.28890  0.03439  1.0000
  H   H417      1.0  0.88769  0.45845  0.13385  1.0000
  H   H418      1.0  0.81310  0.48533  0.21207  1.0000
  H   H419      1.0  0.77765  0.38187  0.03330  1.0000
  H   H420      1.0  0.85147  0.15236  0.33179  1.0000
  H   H421      1.0  0.66399  0.28596  0.25562  1.0000
  H   H422      1.0  0.91891  0.40890  0.29981  1.0000
  H   H423      1.0  0.68974  0.15014  0.12335  1.0000
  H   H424      1.0  0.61224  0.34345  0.24909  1.0000
  C   C255      1.0  0.00248  0.03699  0.03559  1.0000
  H   H425      1.0  0.65247  0.33260  0.31044  1.0000
  H   H426      1.0  0.60486  0.36231  0.33174  1.0000
  C   C256      1.0  0.99246  0.02841  0.26750  1.0000
  N   N18       1.0  0.59491  0.14228  0.11007  1.0000
  C   C257      1.0  0.83608  0.48163  0.18817  1.0000
  H   H427      1.0  0.84419  0.21900  0.06998  1.0000
  H   H428      1.0  0.63077  0.24303  0.23106  1.0000
  H   H429      1.0  0.91497  0.34779  0.29327  1.0000
  C   C258      1.0  0.54587  0.15888  0.10773  1.0000
  H   H430      1.0  0.68790  0.15063  0.07435  1.0000
  H   H431      1.0  0.80609  0.24868  0.27533  1.0000
  H   H432      1.0  0.52119  0.13000  0.11267  1.0000
  H   H433      1.0  0.70240  0.41270  0.05885  1.0000
  H   H434      1.0  0.81388  0.47063  0.16531  1.0000
  C   C259      1.0  0.61872  0.37879  0.04497  1.0000
  H   H435      1.0  0.65605  0.15488  0.18206  1.0000
  H   H436      1.0  0.77135  0.23755  0.04096  1.0000
  C   C260      1.0  0.91369  0.21093  0.02643  1.0000
  H   H437      1.0  0.61828  0.41085  0.06186  1.0000
  C   C261      1.0  0.67859  0.17008  0.09932  1.0000
  C   C262      1.0  0.96002  0.10365  0.30784  1.0000
  H   H438      1.0  0.56596  0.36976  0.27234  1.0000
  H   H439      1.0  0.51323  0.32750  0.30846  1.0000
  H   H440      1.0  0.78478  0.28236  0.07268  1.0000
  C   C263      1.0  0.92338  0.05997  0.02505  1.0000
  C   C264      1.0  0.57235  0.05999  0.08667  1.0000
  H   H441      1.0  0.60727  0.19208  0.17391  1.0000
  H   H442      1.0  0.72463  0.42037  0.24316  1.0000
  H   H443      1.0  0.79296  0.29344  0.02536  1.0000
  S   S76       1.0  0.54517  0.41754  0.15333  1.0000
  H   H444      1.0  0.61848  0.02069  0.28807  1.0000
  H   H445      1.0  0.77288  0.44375  0.26608  1.0000
  H   H446      1.0  0.58715  0.34206  0.08987  1.0000
  C   C265      1.0  0.70309  0.38283  0.03950  1.0000
  C   C266      1.0  0.54438  0.28330  0.24438  1.0000
  H   H447      1.0  0.53491  0.06590  0.08500  1.0000
  H   H448      1.0  0.66768  0.22585  0.26700  1.0000
  H   H449      1.0  0.52805  0.14920  0.22602  1.0000
  H   H450      1.0  0.86045  0.45355  0.19443  1.0000
  H   H451      1.0  0.92881  0.47516  0.21654  1.0000
  H   H452      1.0  0.59294  0.11883  0.05398  1.0000
  H   H453      1.0  0.82792  0.24068  0.23078  1.0000
  H   H454      1.0  0.73589  0.40210  0.28841  1.0000
  H   H455      1.0  0.57453  0.10116  0.15643  1.0000
  H   H456      1.0  0.79953  0.07648  0.30901  1.0000
  S   S77       1.0  0.97831  0.48711  0.03746  1.0000
  H   H457      1.0  0.77587  0.27180  0.23634  1.0000
  C   C267      1.0  0.62685  0.18187  0.10026  1.0000
  C   C268      1.0  0.64366  0.25348  0.25813  1.0000
  H   H458      1.0  0.62307  0.21194  0.11881  1.0000
  C   C269      1.0  0.59212  0.34184  0.27478  1.0000
  H   H459      1.0  0.60293  0.14351  0.20324  1.0000
  H   H460      1.0  0.94841  0.13344  0.32317  1.0000
  C   C270      1.0  0.51734  0.12235  0.27992  1.0000
  C   C271      1.0  0.61838  0.15578  0.17747  1.0000
  C   C272      1.0  0.94656  0.24094  0.04955  1.0000
  H   H461      1.0  0.64742  0.33351  0.08775  1.0000
  H   H462      1.0  0.82729  0.31809  0.32207  1.0000
  Fe  Fe40      1.0  0.57897  0.47488  0.12137  1.0000
  H   H463      1.0  0.94136  0.44410  0.17431  1.0000
  H   H464      1.0  0.54056  0.14677  0.29263  1.0000
  H   H465      1.0  0.63716  0.09299  0.08023  1.0000
  H   H466      1.0  0.56807  0.28588  0.22073  1.0000
  H   H467      1.0  0.52812  0.22321  0.32552  1.0000
  H   H468      1.0  0.55581  0.30307  0.33646  1.0000
  H   H469      1.0  0.88200  0.37635  0.32871  1.0000
  H   H470      1.0  0.53219  0.24653  0.24443  1.0000
  C   C273      1.0  0.53117  0.19733  0.13442  1.0000
  S   S78       1.0  0.80985  0.46386  0.35045  1.0000
  H   H471      1.0  0.86482  0.27660  0.06451  1.0000
  H   H472      1.0  0.58538  0.37836  0.03040  1.0000
  H   H473      1.0  0.55221  0.22939  0.13215  1.0000
  H   H474      1.0  0.58444  0.45971  0.33042  1.0000
  Fe  Fe41      1.0  0.87368  0.50713  0.35264  1.0000
  H   H475      1.0  0.58076  0.03531  0.06439  1.0000
  H   H476      1.0  0.84246  0.47075  0.08227  1.0000
  H   H477      1.0  0.93384  0.24432  0.07785  1.0000
  S   S79       1.0  0.56233  0.49444  0.06326  1.0000
  H   H478      1.0  0.51263  0.35154  0.23263  1.0000
  C   C274      1.0  0.94943  0.47498  0.19115  1.0000
  H   H479      1.0  0.92282  0.49254  0.10548  1.0000
  H   H480      1.0  0.81914  0.51376  0.11262  1.0000
  H   H481      1.0  0.98587  0.47159  0.19965  1.0000
  C   C275      1.0  0.85050  0.50303  0.09766  1.0000
  C   C276      1.0  0.89157  0.49417  0.12305  1.0000
  C   C277      1.0  0.51046  0.12348  0.24224  1.0000
  S   S80       1.0  0.90117  0.47179  0.40241  1.0000
  Fe  Fe42      1.0  0.54275  0.51348  0.66554  1.0000
  Fe  Fe43      1.0  0.83356  0.43321  0.40224  1.0000
  S   S81       1.0  0.82510  0.35592  0.40800  1.0000
  C   C278      1.0  0.85815  0.15561  0.36134  1.0000
  H   H482      1.0  0.82128  0.18594  0.43714  1.0000
  Fe  Fe44      1.0  0.92669  0.21030  0.64008  1.0000
  H   H483      1.0  0.82868  0.08767  0.36821  1.0000
  N   N19       1.0  0.86435  0.10253  0.41835  1.0000
  C   C279      1.0  0.90837  0.13591  0.47336  1.0000
  H   H484      1.0  0.57170  0.08203  0.64439  1.0000
  H   H485      1.0  0.66808  0.28985  0.66927  1.0000
  S   S82       1.0  0.88499  0.27595  0.63813  1.0000
  H   H486      1.0  0.53459  0.14461  0.60653  1.0000
  Fe  Fe45      1.0  0.61104  0.45546  0.62228  1.0000
  S   S83       1.0  0.55580  0.41036  0.59875  1.0000
  C   C280      1.0  0.57971  0.47480  0.35795  1.0000
  C   C281      1.0  0.81824  0.10807  0.43674  1.0000
  H   H487      1.0  0.91817  0.05056  0.41762  1.0000
  Fe  Fe46      1.0  0.61098  0.20804  0.40267  1.0000
  S   S84       1.0  0.66050  0.16464  0.43407  1.0000
  S   S85       1.0  0.61860  0.28599  0.39919  1.0000
  S   S86       1.0  0.68520  0.44084  0.60848  1.0000
  S   S87       1.0  0.60301  0.07377  0.40617  1.0000
  Fe  Fe47      1.0  0.59807  0.12470  0.45235  1.0000
  S   S88       1.0  0.59212  0.10340  0.51139  1.0000
  Fe  Fe48      1.0  0.66005  0.11876  0.38471  1.0000
  C   C282      1.0  0.92862  0.48130  0.58122  1.0000
  S   S89       1.0  0.96763  0.19326  0.58963  1.0000
  C   C283      1.0  0.79638  0.15689  0.43682  1.0000
  H   H488      1.0  0.89441  0.49834  0.57959  1.0000
  C   C284      1.0  0.73714  0.30044  0.64949  1.0000
  C   C285      1.0  0.76691  0.33141  0.63186  1.0000
  C   C286      1.0  0.75081  0.37459  0.61970  1.0000
  C   C287      1.0  0.70499  0.38743  0.62554  1.0000
  C   C288      1.0  0.67537  0.35694  0.64384  1.0000
  H   H489      1.0  0.96962  0.40585  0.61805  1.0000
  H   H490      1.0  0.80198  0.32165  0.62654  1.0000
  C   C289      1.0  0.53223  0.05971  0.55837  1.0000
  H   H491      1.0  0.85097  0.41372  0.65739  1.0000
  C   C290      1.0  0.62666  0.30612  0.56001  1.0000
  C   C291      1.0  0.59018  0.11383  0.63549  1.0000
  C   C292      1.0  0.89992  0.13656  0.43211  1.0000
  H   H492      1.0  0.87682  0.49243  0.64369  1.0000
  C   C293      1.0  0.73522  0.49836  0.52313  1.0000
  H   H493      1.0  0.75039  0.25053  0.51787  1.0000
  H   H494      1.0  0.77294  0.16095  0.41335  1.0000
  H   H495      1.0  0.68667  0.24021  0.58467  1.0000
  C   C294      1.0  0.76760  0.33719  0.40530  1.0000
  C   C295      1.0  0.73147  0.36911  0.40366  1.0000
  C   C296      1.0  0.68575  0.35322  0.40163  1.0000
  C   C297      1.0  0.67607  0.30544  0.40073  1.0000
  C   C298      1.0  0.71234  0.27371  0.40132  1.0000
  C   C299      1.0  0.75789  0.28950  0.40409  1.0000
  H   H496      1.0  0.73867  0.40602  0.40412  1.0000
  H   H497      1.0  0.65793  0.37801  0.40081  1.0000
  H   H498      1.0  0.70553  0.23696  0.39920  1.0000
  H   H499      1.0  0.78574  0.26472  0.40473  1.0000
  H   H500      1.0  0.70978  0.35712  0.48221  1.0000
  H   H501      1.0  0.73545  0.33311  0.52161  1.0000
  C   C300      1.0  0.63112  0.23014  0.52748  1.0000
  H   H502      1.0  0.93361  0.13023  0.41844  1.0000
  H   H503      1.0  0.71439  0.29240  0.57219  1.0000
  H   H504      1.0  0.60741  0.10543  0.60935  1.0000
  Fe  Fe49      1.0  0.52790  0.40980  0.65548  1.0000
  H   H505      1.0  0.00653  0.15738  0.52431  1.0000
  C   C301      1.0  0.53687  0.50613  0.35794  1.0000
  H   H506      1.0  0.89162  0.17397  0.36403  1.0000
  H   H507      1.0  0.58210  0.31058  0.60751  1.0000
  H   H508      1.0  0.56727  0.26833  0.51300  1.0000
  H   H509      1.0  0.57163  0.26008  0.58062  1.0000
  H   H510      1.0  0.56323  0.20723  0.50970  1.0000
  H   H511      1.0  0.93277  0.16434  0.48045  1.0000
  H   H512      1.0  0.58125  0.50597  0.46754  1.0000
  H   H513      1.0  0.68929  0.27433  0.48481  1.0000
  H   H514      1.0  0.78770  0.48724  0.58584  1.0000
  H   H515      1.0  0.68456  0.36895  0.52549  1.0000
  H   H516      1.0  0.59517  0.23949  0.47576  1.0000
  H   H517      1.0  0.62160  0.26364  0.60978  1.0000
  H   H518      1.0  0.62311  0.20788  0.55136  1.0000
  H   H519      1.0  0.72266  0.19736  0.53316  1.0000
  C   C302      1.0  0.69133  0.31343  0.65551  1.0000
  H   H520      1.0  0.64063  0.31022  0.48819  1.0000
  H   H521      1.0  0.57778  0.18448  0.61893  1.0000
  H   H522      1.0  0.89156  0.17293  0.42513  1.0000
  S   S90       1.0  0.54809  0.17158  0.42442  1.0000
  C   C303      1.0  0.59920  0.28316  0.59111  1.0000
  H   H523      1.0  0.73033  0.47570  0.54710  1.0000
  C   C304      1.0  0.58692  0.23708  0.50511  1.0000
  C   C305      1.0  0.69754  0.26089  0.56066  1.0000
  H   H524      1.0  0.65325  0.20735  0.51048  1.0000
  H   H525      1.0  0.76369  0.22642  0.56096  1.0000
  H   H526      1.0  0.76847  0.48728  0.51089  1.0000
  H   H527      1.0  0.60179  0.32507  0.54269  1.0000
  C   C306      1.0  0.97867  0.05226  0.58601  1.0000
  Fe  Fe50      1.0  0.55713  0.12345  0.37683  1.0000
  S   S91       1.0  0.87133  0.16757  0.66734  1.0000
  C   C307      1.0  0.70198  0.34177  0.50914  1.0000
  H   H528      1.0  0.77570  0.16131  0.46196  1.0000
  N   N20       1.0  0.94358  0.47691  0.62022  1.0000
  H   H529      1.0  0.64768  0.33427  0.57255  1.0000
  C   C308      1.0  0.97858  0.13566  0.57573  1.0000
  C   C309      1.0  0.67122  0.29845  0.50370  1.0000
  H   H530      1.0  0.57572  0.44605  0.37777  1.0000
  S   S92       1.0  0.99653  0.07383  0.37200  1.0000
  H   H531      1.0  0.63992  0.36654  0.64858  1.0000
  C   C310      1.0  0.92636  0.43615  0.55827  1.0000
  S   S93       1.0  0.79613  0.48498  0.43650  1.0000
  H   H532      1.0  0.79227  0.08485  0.42387  1.0000
  H   H533      1.0  0.61544  0.20927  0.66688  1.0000
  H   H534      1.0  0.88956  0.08899  0.36402  1.0000
  H   H535      1.0  0.51852  0.49499  0.42599  1.0000
  H   H536      1.0  0.95279  0.50461  0.56648  1.0000
  H   H537      1.0  0.92470  0.10309  0.48220  1.0000
  H   H538      1.0  0.95309  0.10318  0.62433  1.0000
  C   C311      1.0  0.96854  0.09763  0.59798  1.0000
  H   H539      1.0  0.83026  0.17708  0.37271  1.0000
  H   H540      1.0  0.77377  0.39782  0.60535  1.0000
  H   H541      1.0  0.89706  0.43865  0.53916  1.0000
  H   H542      1.0  0.85888  0.42177  0.60998  1.0000
  H   H543      1.0  0.70266  0.44788  0.48775  1.0000
  N   N21       1.0  0.65660  0.27387  0.53792  1.0000
  C   C312      1.0  0.73524  0.23222  0.54148  1.0000
  C   C313      1.0  0.87746  0.41952  0.63608  1.0000
  C   C314      1.0  0.53689  0.08834  0.52776  1.0000
  H   H544      1.0  0.61775  0.12256  0.65508  1.0000
  C   C315      1.0  0.99810  0.04471  0.55160  1.0000
  H   H545      1.0  0.91496  0.46318  0.67339  1.0000
  S   S94       1.0  0.58573  0.45140  0.67950  1.0000
  H   H546      1.0  0.81913  0.09559  0.46527  1.0000
  H   H547      1.0  0.89996  0.38860  0.63644  1.0000
  Fe  Fe51      1.0  0.51594  0.47648  0.59172  1.0000
  H   H548      1.0  0.69527  0.50557  0.47209  1.0000
  C   C316      1.0  0.99854  0.12806  0.54155  1.0000
  N   N22       1.0  0.52875  0.16910  0.66205  1.0000
  H   H549      1.0  0.87646  0.14209  0.48913  1.0000
  Fe  Fe52      1.0  0.83221  0.23527  0.66914  1.0000
  S   S95       1.0  0.75548  0.24447  0.66231  1.0000
  C   C317      1.0  0.88179  0.05431  0.42669  1.0000
  C   C318      1.0  0.90348  0.46498  0.64459  1.0000
  C   C319      1.0  0.55717  0.15487  0.62957  1.0000
  H   H550      1.0  0.53431  0.24242  0.64939  1.0000
  H   H551      1.0  0.60730  0.49614  0.42447  1.0000
  H   H552      1.0  0.56261  0.04618  0.57135  1.0000
  C   C320      1.0  0.00786  0.08276  0.52936  1.0000
  H   H553      1.0  0.66274  0.48377  0.51101  1.0000
  H   H554      1.0  0.97097  0.02288  0.60328  1.0000
  H   H555      1.0  0.88199  0.04778  0.45640  1.0000
  C   C321      1.0  0.69650  0.48414  0.49693  1.0000
  S   S96       1.0  0.72620  0.09211  0.36040  1.0000
  H   H556      1.0  0.92133  0.40365  0.57364  1.0000
  H   H557      1.0  0.95736  0.43305  0.54075  1.0000
  H   H558      1.0  0.61211  0.49346  0.36356  1.0000
  C   C322      1.0  0.98097  0.44139  0.62545  1.0000
  H   H559      1.0  0.98991  0.43860  0.65475  1.0000
  C   C323      1.0  0.85997  0.10638  0.37770  1.0000
  H   H560      1.0  0.96247  0.51394  0.46924  1.0000
  H   H561      1.0  0.00864  0.05198  0.66648  1.0000
  H   H562      1.0  0.72075  0.05540  0.78741  1.0000
  S   S97       1.0  0.52984  0.20692  0.86921  1.0000
  H   H563      1.0  0.73379  0.43921  0.77003  1.0000
  Fe  Fe53      1.0  0.86418  0.46802  0.93335  1.0000
  S   S98       1.0  0.91155  0.41744  0.96004  1.0000
  S   S99       1.0  0.78825  0.45192  0.92920  1.0000
  Fe  Fe54      1.0  0.94853  0.48100  0.98095  1.0000
  H   H564      1.0  0.65899  0.45586  0.01587  1.0000
  Fe  Fe55      1.0  0.95336  0.42629  0.90922  1.0000
  H   H565      1.0  0.83846  0.15649  0.87489  1.0000
  H   H566      1.0  0.89022  0.15692  0.96712  1.0000
  S   S100      1.0  0.90426  0.47384  0.88165  1.0000
  S   S101      1.0  0.86012  0.25552  0.72323  1.0000
  C   C324      1.0  0.67761  0.29329  0.00488  1.0000
  S   S102      1.0  0.91809  0.16054  0.77317  1.0000
  H   H567      1.0  0.77074  0.11932  0.74990  1.0000
  Fe  Fe56      1.0  0.66038  0.22827  0.88680  1.0000
  S   S103      1.0  0.60567  0.26496  0.91811  1.0000
  S   S104      1.0  0.73569  0.24199  0.89684  1.0000
  C   C325      1.0  0.80739  0.42796  0.81878  1.0000
  S   S105      1.0  0.62859  0.24175  0.83285  1.0000
  S   S106      1.0  0.62813  0.15752  0.89286  1.0000
  H   H568      1.0  0.94639  0.29376  0.97339  1.0000
  C   C326      1.0  0.80160  0.48004  0.81007  1.0000
  H   H569      1.0  0.76506  0.49077  0.81008  1.0000
  C   C327      1.0  0.93852  0.07041  0.75230  1.0000
  H   H570      1.0  0.83373  0.29070  0.82584  1.0000
  C   C328      1.0  0.51624  0.34119  0.72691  1.0000
  H   H571      1.0  0.86120  0.20105  0.93991  1.0000
  C   C329      1.0  0.93955  0.10424  0.77964  1.0000
  C   C330      1.0  0.95696  0.09300  0.81381  1.0000
  H   H572      1.0  0.60138  0.40228  0.95858  1.0000
  H   H573      1.0  0.95727  0.11889  0.83517  1.0000
  S   S107      1.0  0.98120  0.36546  0.87773  1.0000
  H   H574      1.0  0.80582  0.21538  0.98838  1.0000
  H   H575      1.0  0.83248  0.14922  0.95316  1.0000
  H   H576      1.0  0.72111  0.37941  0.76608  1.0000
  C   C331      1.0  0.85770  0.17583  0.96241  1.0000
  C   C332      1.0  0.77459  0.39385  0.91814  1.0000
  C   C333      1.0  0.80841  0.35942  0.91704  1.0000
  C   C334      1.0  0.79624  0.31291  0.91016  1.0000
  C   C335      1.0  0.75033  0.30069  0.90375  1.0000
  C   C336      1.0  0.71687  0.33538  0.90304  1.0000
  C   C337      1.0  0.72892  0.38177  0.91055  1.0000
  H   H577      1.0  0.84392  0.36843  0.92160  1.0000
  H   H578      1.0  0.82248  0.28638  0.90971  1.0000
  H   H579      1.0  0.68158  0.32651  0.89699  1.0000
  H   H580      1.0  0.70273  0.40837  0.91048  1.0000
  C   C338      1.0  0.96627  0.36550  0.83153  1.0000
  H   H581      1.0  0.76898  0.37996  0.71004  1.0000
  C   C339      1.0  0.59840  0.20828  0.69368  1.0000
  C   C340      1.0  0.94598  0.36458  0.75700  1.0000
  C   C341      1.0  0.94653  0.40660  0.77624  1.0000
  H   H582      1.0  0.69498  0.20949  0.76142  1.0000
  H   H583      1.0  0.51411  0.43591  0.95153  1.0000
  H   H584      1.0  0.95465  0.29035  0.76050  1.0000
  H   H585      1.0  0.73891  0.25189  0.75469  1.0000
  H   H586      1.0  0.57090  0.13926  0.70486  1.0000
  H   H587      1.0  0.95891  0.43979  0.82752  1.0000
  H   H588      1.0  0.69681  0.13339  0.77426  1.0000
  H   H589      1.0  0.51578  0.26667  0.73187  1.0000
  C   C342      1.0  0.83864  0.19910  0.99692  1.0000
  H   H590      1.0  0.78296  0.32970  0.73656  1.0000
  H   H591      1.0  0.61407  0.46310  0.95843  1.0000
  C   C343      1.0  0.78818  0.34615  0.80880  1.0000
  H   H592      1.0  0.92525  0.23977  0.95447  1.0000
  C   C344      1.0  0.73283  0.21438  0.76002  1.0000
  S   S108      1.0  0.54324  0.34225  0.84875  1.0000
  H   H593      1.0  0.83514  0.06985  0.76083  1.0000
  H   H594      1.0  0.85004  0.39173  0.76126  1.0000
  H   H595      1.0  0.66982  0.06816  0.81189  1.0000
  H   H596      1.0  0.67403  0.34914  0.96697  1.0000
  N   N23       1.0  0.75992  0.14933  0.80331  1.0000
  C   C345      1.0  0.51753  0.12734  0.98734  1.0000
  C   C346      1.0  0.82300  0.17040  0.84971  1.0000
  H   H597      1.0  0.72230  0.06673  0.83616  1.0000
  H   H598      1.0  0.84872  0.16715  0.82770  1.0000
  C   C347      1.0  0.53178  0.34182  0.80207  1.0000
  H   H599      1.0  0.85317  0.31940  0.78584  1.0000
  C   C348      1.0  0.81753  0.08377  0.78531  1.0000
  C   C349      1.0  0.77821  0.14356  0.84124  1.0000
  C   C350      1.0  0.65486  0.42514  0.99756  1.0000
  H   H600      1.0  0.71663  0.43272  0.83892  1.0000
  C   C351      1.0  0.83660  0.32518  0.81253  1.0000
  H   H601      1.0  0.68877  0.14800  0.82066  1.0000
  H   H602      1.0  0.53079  0.26709  0.79777  1.0000
  C   C352      1.0  0.52776  0.29959  0.78338  1.0000
  C   C353      1.0  0.60991  0.43230  0.97628  1.0000
  H   H603      1.0  0.85931  0.34685  0.82984  1.0000
  H   H604      1.0  0.73671  0.21845  0.81833  1.0000
  H   H605      1.0  0.90419  0.29407  0.93922  1.0000
  H   H606      1.0  0.82574  0.35477  0.70875  1.0000
  S   S109      1.0  0.99598  0.48337  0.93310  1.0000
  C   C354      1.0  0.71202  0.12903  0.80164  1.0000
  H   H607      1.0  0.81832  0.48984  0.78416  1.0000
  C   C355      1.0  0.70702  0.07684  0.80995  1.0000
  Fe  Fe57      1.0  0.59064  0.17440  0.84110  1.0000
  S   S110      1.0  0.58980  0.12709  0.79179  1.0000
  H   H608      1.0  0.78463  0.10657  0.84775  1.0000
  H   H609      1.0  0.51685  0.41568  0.73125  1.0000
  H   H610      1.0  0.88498  0.30731  0.01010  1.0000
  H   H611      1.0  0.92454  0.07870  0.72600  1.0000
  C   C356      1.0  0.65623  0.33987  0.99259  1.0000
  C   C357      1.0  0.91534  0.27484  0.96373  1.0000
  H   H612      1.0  0.61993  0.33263  0.98475  1.0000
  C   C358      1.0  0.96573  0.32354  0.81218  1.0000
  H   H613      1.0  0.79385  0.42247  0.84668  1.0000
  C   C359      1.0  0.53810  0.06620  0.75140  1.0000
  H   H614      1.0  0.89757  0.04434  0.97168  1.0000
  H   H615      1.0  0.53657  0.18524  0.71909  1.0000
  C   C360      1.0  0.95518  0.32301  0.77509  1.0000
  H   H616      1.0  0.81739  0.15326  0.76543  1.0000
  C   C361      1.0  0.92691  0.04258  0.98954  1.0000
  H   H617      1.0  0.74700  0.19494  0.73655  1.0000
  H   H618      1.0  0.93372  0.19874  0.00273  1.0000
  Fe  Fe58      1.0  0.57083  0.27286  0.86471  1.0000
  H   H619      1.0  0.81872  0.50078  0.83167  1.0000
  Fe  Fe59      1.0  0.57021  0.19557  0.92040  1.0000
  C   C362      1.0  0.55776  0.17350  0.69568  1.0000
  N   N24       1.0  0.78609  0.39404  0.79235  1.0000
  S   S111      1.0  0.96263  0.23076  0.69156  1.0000
  C   C363      1.0  0.96799  0.02207  0.97716  1.0000
  Fe  Fe60      1.0  0.90482  0.19265  0.71879  1.0000
  H   H620      1.0  0.51036  0.50976  0.92913  1.0000
  C   C364      1.0  0.75602  0.20086  0.79605  1.0000
  C   C365      1.0  0.70459  0.40760  0.81816  1.0000
  S   S112      1.0  0.93373  0.36441  0.71042  1.0000
  H   H621      1.0  0.81605  0.20781  0.85458  1.0000
  C   C366      1.0  0.73659  0.40562  0.78475  1.0000
  H   H622      1.0  0.54918  0.09051  0.94297  1.0000
  C   C367      1.0  0.81251  0.39644  0.75718  1.0000
  H   H623      1.0  0.84489  0.09159  0.80528  1.0000
  H   H624      1.0  0.71118  0.28764  0.99109  1.0000
  C   C368      1.0  0.87657  0.27678  0.99260  1.0000
  C   C369      1.0  0.95647  0.40701  0.81344  1.0000
  H   H625      1.0  0.81041  0.43189  0.74545  1.0000
  H   H626      1.0  0.56942  0.05990  0.73630  1.0000
  H   H627      1.0  0.77326  0.34650  0.83657  1.0000
  H   H628      1.0  0.66993  0.41908  0.80943  1.0000
  C   C370      1.0  0.51935  0.29932  0.74597  1.0000
  C   C371      1.0  0.97414  0.04849  0.82064  1.0000
  H   H629      1.0  0.75206  0.15479  0.86155  1.0000
  C   C372      1.0  0.79075  0.12794  0.77472  1.0000
  H   H630      1.0  0.58718  0.24404  0.70082  1.0000
  H   H631      1.0  0.98709  0.04020  0.84721  1.0000
  H   H632      1.0  0.75067  0.42414  0.00564  1.0000
  H   H633      1.0  0.79063  0.21757  0.79540  1.0000
  C   C373      1.0  0.79616  0.36343  0.72663  1.0000
  H   H634      1.0  0.84508  0.42204  0.82094  1.0000
  C   C374      1.0  0.52780  0.08762  0.96692  1.0000
  C   C375      1.0  0.53836  0.09786  0.78046  1.0000
  H   H635      1.0  0.93985  0.43892  0.76234  1.0000
  H   H636      1.0  0.84420  0.28612  0.97844  1.0000
  C   C376      1.0  0.51989  0.38335  0.74569  1.0000
  H   H637      1.0  0.97332  0.29130  0.82592  1.0000
  H   H638      1.0  0.76639  0.32087  0.79374  1.0000
  S   S113      1.0  0.53942  0.18249  0.97579  1.0000
  H   H639      1.0  0.70000  0.37278  0.83050  1.0000
  H   H640      1.0  0.79550  0.05569  0.79612  1.0000
  H   H641      1.0  0.52995  0.41650  0.79763  1.0000
  C   C377      1.0  0.52716  0.38373  0.78328  1.0000
  Fe  Fe61      1.0  0.91548  0.29190  0.69234  1.0000
  H   H642      1.0  0.62548  0.19735  0.71298  1.0000
  N   N25       1.0  0.86931  0.23405  0.01573  1.0000
  H   H643      1.0  0.68295  0.42797  0.97710  1.0000
  H   H644      1.0  0.58077  0.44025  0.99472  1.0000
  H   H645      1.0  0.74807  0.36333  0.99323  1.0000
  C   C378      1.0  0.74700  0.38819  0.01619  1.0000
  C   C379      1.0  0.51091  0.04393  0.97798  1.0000
  C   C380      1.0  0.95512  0.02542  0.75937  1.0000
  N   N26       1.0  0.65853  0.38033  0.01871  1.0000
  H   H646      1.0  0.65524  0.26420  0.99555  1.0000
  H   H647      1.0  0.82900  0.17062  0.01599  1.0000
  H   H648      1.0  0.00678  0.11974  0.70492  1.0000
  C   C381      1.0  0.00579  0.01879  0.00031  1.0000
  H   H649      1.0  0.65108  0.95783  0.32716  1.0000
  C   C382      1.0  0.58950  0.89106  0.21256  1.0000
  H   H650      1.0  0.64422  0.89978  0.25038  1.0000
  H   H651      1.0  0.99751  0.95111  0.08588  1.0000
  C   C383      1.0  0.99538  0.88412  0.32822  1.0000
  S   S114      1.0  0.71683  0.52717  0.19658  1.0000
  H   H652      1.0  0.92749  0.58428  0.24446  1.0000
  C   C384      1.0  0.95578  0.58121  0.26312  1.0000
  H   H653      1.0  0.63990  0.52843  0.24624  1.0000
  S   S115      1.0  0.58362  0.52474  0.16850  1.0000
  H   H654      1.0  0.99815  0.63092  0.23498  1.0000
  H   H655      1.0  0.68706  0.93838  0.28990  1.0000
  H   H656      1.0  0.98294  0.91421  0.34288  1.0000
  C   C385      1.0  0.66837  0.96835  0.30163  1.0000
  H   H657      1.0  0.99162  0.86455  0.15816  1.0000
  H   H658      1.0  0.93968  0.86464  0.13387  1.0000
  H   H659      1.0  0.99212  0.65400  0.34636  1.0000
  C   C386      1.0  0.94408  0.52102  0.17054  1.0000
  H   H660      1.0  0.89776  0.93014  0.14814  1.0000
  C   C387      1.0  0.90021  0.57695  0.13543  1.0000
  C   C388      1.0  0.99946  0.86270  0.10017  1.0000
  N   N27       1.0  0.97168  0.93289  0.13954  1.0000
  C   C389      1.0  0.55005  0.96222  0.31793  1.0000
  H   H661      1.0  0.95002  0.94605  0.21889  1.0000
  C   C390      1.0  0.97053  0.58264  0.03700  1.0000
  C   C391      1.0  0.00268  0.63335  0.08362  1.0000
  H   H662      1.0  0.87193  0.54269  0.20717  1.0000
  H   H663      1.0  0.51804  0.55989  0.21900  1.0000
  H   H664      1.0  0.53371  0.96547  0.23072  1.0000
  H   H665      1.0  0.93772  0.88794  0.20210  1.0000
  H   H666      1.0  0.97935  0.86946  0.07530  1.0000
  C   C392      1.0  0.92917  0.94405  0.16153  1.0000
  N   N28       1.0  0.59847  0.95802  0.25910  1.0000
  H   H667      1.0  0.00305  0.82432  0.10222  1.0000
  H   H668      1.0  0.97019  0.99696  0.10913  1.0000
  H   H669      1.0  0.91284  0.91284  0.08283  1.0000
  H   H670      1.0  0.89312  0.61802  0.18605  1.0000
  H   H671      1.0  0.89234  0.92814  0.21151  1.0000
  H   H672      1.0  0.90588  0.65122  0.14621  1.0000
  H   H673      1.0  0.56604  0.91046  0.19457  1.0000
  H   H674      1.0  0.53490  0.93893  0.33882  1.0000
  H   H675      1.0  0.86638  0.58614  0.12347  1.0000
  C   C393      1.0  0.62173  0.92325  0.23453  1.0000
  C   C394      1.0  0.57307  0.60597  0.34098  1.0000
  C   C395      1.0  0.92370  0.94980  0.08241  1.0000
  H   H676      1.0  0.92927  0.95992  0.05368  1.0000
  H   H677      1.0  0.97394  0.71137  0.33990  1.0000
  H   H678      1.0  0.56913  0.86758  0.23025  1.0000
  H   H679      1.0  0.78263  0.55340  0.31658  1.0000
  N   N29       1.0  0.89816  0.52953  0.15292  1.0000
  H   H680      1.0  0.92501  0.57707  0.11237  1.0000
  H   H681      1.0  0.83130  0.55287  0.17280  1.0000
  H   H682      1.0  0.59728  0.90748  0.30273  1.0000
  C   C396      1.0  0.92786  0.92506  0.20063  1.0000
  H   H683      1.0  0.54647  0.90939  0.27726  1.0000
  C   C397      1.0  0.95203  0.55115  0.29269  1.0000
  C   C398      1.0  0.63457  0.99018  0.27446  1.0000
  H   H684      1.0  0.78627  0.54835  0.24985  1.0000
  C   C399      1.0  0.67114  0.53348  0.26153  1.0000
  H   H685      1.0  0.95059  0.61865  0.16634  1.0000
  C   C400      1.0  0.57377  0.93197  0.28878  1.0000
  C   C401      1.0  0.91994  0.65973  0.34010  1.0000
  H   H686      1.0  0.63636  0.53377  0.31293  1.0000
  H   H687      1.0  0.92310  0.65618  0.31021  1.0000
  C   C402      1.0  0.75143  0.54767  0.30144  1.0000
  H   H688      1.0  0.69469  0.99473  0.30917  1.0000
  H   H689      1.0  0.85937  0.53011  0.07734  1.0000
  C   C403      1.0  0.91317  0.61808  0.16044  1.0000
  C   C404      1.0  0.56406  0.98675  0.23864  1.0000
  C   C405      1.0  0.97679  0.62713  0.05200  1.0000
  H   H690      1.0  0.61060  0.86839  0.19472  1.0000
  C   C406      1.0  0.96814  0.95874  0.10418  1.0000
  H   H691      1.0  0.64521  0.94095  0.21498  1.0000
  C   C407      1.0  0.75350  0.54495  0.26351  1.0000
  H   H692      1.0  0.52118  0.98235  0.30652  1.0000
  H   H693      1.0  0.89518  0.97163  0.09296  1.0000
  C   C408      1.0  0.71350  0.53657  0.24356  1.0000
  H   H694      1.0  0.98548  0.52458  0.34018  1.0000
  H   H695      1.0  0.51769  0.59776  0.11111  1.0000
  C   C409      1.0  0.00489  0.84293  0.34676  1.0000
  H   H696      1.0  0.92420  0.98234  0.16333  1.0000
  C   C410      1.0  0.66904  0.53687  0.29942  1.0000
  C   C411      1.0  0.70929  0.54280  0.31956  1.0000
  C   C412      1.0  0.97457  0.88077  0.13451  1.0000
  H   H697      1.0  0.96112  0.65685  0.03915  1.0000
  C   C413      1.0  0.98802  0.54829  0.31754  1.0000
  H   H698      1.0  0.60619  0.62477  0.33710  1.0000
  C   C414      1.0  0.99553  0.60812  0.25803  1.0000
  S   S116      1.0  0.90316  0.51568  0.29657  1.0000
  H   H699      1.0  0.89044  0.68303  0.34521  1.0000
  H   H700      1.0  0.56912  0.58198  0.31767  1.0000
  H   H701      1.0  0.59481  0.98639  0.18351  1.0000
  C   C415      1.0  0.58234  0.01122  0.20430  1.0000
  H   H702      1.0  0.97218  0.52295  0.15001  1.0000
  H   H703      1.0  0.65617  0.00487  0.25231  1.0000
  H   H704      1.0  0.00551  0.99955  0.25180  1.0000
  H   H705      1.0  0.95223  0.54830  0.19080  1.0000
  H   H706      1.0  0.91256  0.62449  0.35074  1.0000
  C   C416      1.0  0.98957  0.54380  0.05379  1.0000
  C   C417      1.0  0.85963  0.52897  0.18064  1.0000
  H   H707      1.0  0.57413  0.98614  0.33193  1.0000
  H   H708      1.0  0.54559  0.63261  0.34029  1.0000
  C   C418      1.0  0.00222  0.88659  0.29063  1.0000
  H   H709      1.0  0.99534  0.91865  0.27650  1.0000
  S   S117      1.0  0.00785  0.68982  0.10189  1.0000
  H   H710      1.0  0.54997  0.01483  0.25621  1.0000
  H   H711      1.0  0.00905  0.98973  0.16454  1.0000
  H   H712      1.0  0.53052  0.51793  0.32974  1.0000
  H   H713      1.0  0.00524  0.59737  0.43020  1.0000
  S   S118      1.0  0.87981  0.56886  0.48331  1.0000
  H   H714      1.0  0.91025  0.77719  0.44350  1.0000
  C   C419      1.0  0.58583  0.52081  0.43997  1.0000
  H   H715      1.0  0.92327  0.72175  0.46225  1.0000
  S   S119      1.0  0.84007  0.56553  0.38314  1.0000
  C   C420      1.0  0.53788  0.52831  0.42320  1.0000
  N   N30       1.0  0.73767  0.54889  0.53409  1.0000
  S   S120      1.0  0.98027  0.96885  0.43475  1.0000
  C   C421      1.0  0.96913  0.53751  0.49153  1.0000
  H   H716      1.0  0.99334  0.62097  0.57232  1.0000
  H   H717      1.0  0.68199  0.53340  0.57159  1.0000
  H   H718      1.0  0.75245  0.64979  0.48247  1.0000
  C   C422      1.0  0.69514  0.56301  0.55505  1.0000
  H   H719      1.0  0.86990  0.98023  0.41910  1.0000
  C   C423      1.0  0.93475  0.56779  0.50348  1.0000
  S   S121      1.0  0.70757  0.54110  0.36724  1.0000
  H   H720      1.0  0.96880  0.76214  0.44967  1.0000
  H   H721      1.0  0.90494  0.56307  0.65584  1.0000
  C   C424      1.0  0.94378  0.59781  0.53269  1.0000
  H   H722      1.0  0.91741  0.62141  0.54206  1.0000
  H   H723      1.0  0.95351  0.65407  0.44678  1.0000
  H   H724      1.0  0.94192  0.75772  0.38448  1.0000
  H   H725      1.0  0.52067  0.55315  0.44197  1.0000
  H   H726      1.0  0.64302  0.55785  0.51108  1.0000
  Fe  Fe62      1.0  0.77811  0.51934  0.38423  1.0000
  H   H727      1.0  0.78229  0.59114  0.56809  1.0000
  H   H728      1.0  0.90979  0.56742  0.60676  1.0000
  C   C425      1.0  0.96273  0.52323  0.63270  1.0000
  C   C426      1.0  0.93441  0.72798  0.40297  1.0000
  H   H729      1.0  0.89818  0.71779  0.39755  1.0000
  H   H730      1.0  0.79422  0.63375  0.51536  1.0000
  C   C427      1.0  0.57405  0.58062  0.37782  1.0000
  N   N31       1.0  0.53589  0.54595  0.38463  1.0000
  C   C428      1.0  0.77925  0.55467  0.55818  1.0000
  C   C429      1.0  0.65409  0.58156  0.53298  1.0000
  S   S122      1.0  0.00054  0.84085  0.39409  1.0000
  H   H731      1.0  0.77471  0.56364  0.48438  1.0000
  N   N32       1.0  0.96683  0.68815  0.39546  1.0000
  C   C430      1.0  0.93476  0.74773  0.44199  1.0000
  C   C431      1.0  0.74576  0.57804  0.50070  1.0000
  C   C432      1.0  0.98683  0.59763  0.54991  1.0000
  H   H732      1.0  0.91307  0.64038  0.41357  1.0000
  S   S123      1.0  0.57411  0.52217  0.61015  1.0000
  C   C433      1.0  0.95056  0.64690  0.41723  1.0000
  H   H733      1.0  0.71581  0.57722  0.48220  1.0000
  H   H734      1.0  0.57349  0.60815  0.39921  1.0000
  C   C434      1.0  0.92903  0.56457  0.63247  1.0000
  H   H735      1.0  0.73561  0.64522  0.52925  1.0000
  H   H736      1.0  0.53796  0.98013  0.40246  1.0000
  H   H737      1.0  0.94898  0.59738  0.63565  1.0000
  C   C435      1.0  0.75747  0.62966  0.50779  1.0000
  H   H738      1.0  0.70324  0.59078  0.57521  1.0000
  H   H739      1.0  0.66147  0.61626  0.52128  1.0000
  H   H740      1.0  0.99220  0.53423  0.61533  1.0000
  H   H741      1.0  0.62416  0.58604  0.55145  1.0000
  H   H742      1.0  0.74778  0.52625  0.60828  1.0000
  H   H743      1.0  0.54219  0.63858  0.51046  1.0000
  Fe  Fe63      1.0  0.86168  0.52676  0.43316  1.0000
  H   H744      1.0  0.60844  0.56452  0.37997  1.0000
  H   H745      1.0  0.95176  0.57137  0.41564  1.0000
  H   H746      1.0  0.98855  0.59596  0.38318  1.0000
  H   H747      1.0  0.53724  0.56485  0.54484  1.0000
  H   H748      1.0  0.81151  0.54770  0.54265  1.0000
  C   C436      1.0  0.97602  0.60073  0.41110  1.0000
  H   H749      1.0  0.80839  0.53637  0.61046  1.0000
  H   H750      1.0  0.60461  0.55420  0.44347  1.0000
  H   H751      1.0  0.97674  0.52062  0.66074  1.0000
  H   H752      1.0  0.51318  0.00745  0.44120  1.0000
  C   C437      1.0  0.85480  0.01340  0.40958  1.0000
  H   H753      1.0  0.85769  0.01314  0.37958  1.0000
  H   H754      1.0  0.81811  0.01311  0.41774  1.0000
  H   H755      1.0  0.51246  0.94474  0.43672  1.0000
  C   C438      1.0  0.96558  0.67904  0.35513  1.0000
  C   C439      1.0  0.78025  0.52410  0.59250  1.0000
  C   C440      1.0  0.51334  0.61531  0.50627  1.0000
  C   C441      1.0  0.51061  0.57358  0.52581  1.0000
  H   H756      1.0  0.51952  0.01312  0.96257  1.0000
  S   S124      1.0  0.97807  0.60678  0.71370  1.0000
  C   C442      1.0  0.00076  0.77563  0.75762  1.0000
  H   H757      1.0  0.91550  0.55765  0.83071  1.0000
  C   C443      1.0  0.94422  0.57383  0.81688  1.0000
  S   S125      1.0  0.89763  0.53145  0.95830  1.0000
  C   C444      1.0  0.98057  0.59968  0.76092  1.0000
  H   H758      1.0  0.53439  0.54329  0.99958  1.0000
  H   H759      1.0  0.97857  0.80709  0.75894  1.0000
  S   S126      1.0  0.53227  0.57683  0.70087  1.0000
  H   H760      1.0  0.97017  0.00820  0.94991  1.0000
  H   H761      1.0  0.95107  0.78926  0.81762  1.0000
  C   C445      1.0  0.98028  0.59323  0.83688  1.0000
  H   H762      1.0  0.91532  0.56408  0.76366  1.0000
  C   C446      1.0  0.94407  0.57765  0.77897  1.0000
  H   H763      1.0  0.98016  0.76946  0.70114  1.0000
  H   H764      1.0  0.95010  0.57843  0.01287  1.0000
  S   S127      1.0  0.97888  0.59311  0.88443  1.0000
  H   H765      1.0  0.97814  0.74582  0.76547  1.0000
  H   H766      1.0  0.95419  0.99913  0.73834  1.0000
  S   S128      1.0  0.99589  0.95890  0.80176  1.0000
  Fe  Fe64      1.0  0.94371  0.53090  0.90919  1.0000
  H   H767      1.0  0.97175  0.77860  0.86219  1.0000
  C   C447      1.0  0.98150  0.79319  0.83538  1.0000
  H   H768      1.0  0.98903  0.83060  0.83991  1.0000
  C   C448      1.0  0.97347  0.01458  0.79348  1.0000
