data_image0
_chemical_formula_structural       H3FeSFeS2FeSFeS3C7H5C2H4C2H4NC3H2C3H2CH6C2H5CH4NC5H2CH3SCH8CH4NHCHCHCH2C3H7C2H12SFeS2FeS2FeHFeS4HC5H2SHC2HCH2CHCH4CH8CH2CH2CHCH2CHCHCH3CHCH2C2HC2H2CSC2SH2NH3CH4CHFeHCFeS2FeS2Fe2S4CH5C6H2CHCH7C3H5NC2HCHNC2H4C2FeHC2H2CH3SHCHC2H2CH4C3SHCHCH5C2HCNFeC2H6CHCH2S2HCH3CH2CFeS2FeSCFeSFeS4CHCH4NH2CH2CSCHC3H2C2HC3H4SH2C4HC2H5CHCSFeH4C3H13SH2CHNHCHCH2SH2CH2C2H3C2HFeSHCSH2SHSCS2C2H2C6H4C2HNSHSCHFeCHSH2CH4CHC3HCH3CHCH2NC4HC2H16NH5CH5CH2FeSCH3CHCFeH5SCH2C2NC3H5CHCHC2FeHCSHSHCHCSCHSFeCFeHCH6CH2C4H2CSHCH2FeH2CH4NH4C2HFeCH4SCNH3CFeHCHCHC2SC4H2SCH2SH3NH3C2HCH5CFeCHSCH2CH3CH3SH2S2HSHSH5CFeNHC6H4FeH2CH2CHCH2C2SHCH3SNH2CHCFeC3NH2CHCH2C2SH3SH6SCFeHC3H2CH2CH3CH3C2H5FeHCH4CH2CH2CSNSCH4FeSHC2HC3H3C5HC2H2C2NCH6CH3C2HC3H3CHCSH2CH2CH2CH8C2H3C2H4CH2SCH2CHNCH3NH2CHFeH2SHC2HCHFeS2FeS2FeS2HSHCHC2SH4CH2CNCSH2C6H4SC3SC2H10CNHFeH2CH4CH2CH2CHC2H4CH2CHCFe2HCH2C2H2CHC4HFeSHFeSHFeSFeS3FeCSCH2SC2HCHCH3C2H3SH3C3H2C3H2C2H3CH5C2HSNC4H6CHCH2CSHC2HCH2C3HCHCH3NHC2H3CH6CFeHCHFeH3FeS2FeSFeS3H2S3HFeNC6H4CHCH2C2SH7CH2CH3CH4C2H3CSHCFeH2CH3CHCH3CH2CHCNC8H10C2H4CH4C3H2CH3SH4FeS2FeHFeHFeS3HFeC2HFeCSH2C2H2CHC3H2NHCH3C3H5NCHC3HCSHCH9FeCSH3SH2NHC3HC3HCH6FeCHCH2CHCSCHCH3C2H5CH2C2SH3CHSCH2CH2CH
_chemical_formula_sum              "H768 Fe64 S128 C448 N32"
_cell_length_a       28.1504
_cell_length_b       28.0032
_cell_length_c       27.8268
_cell_angle_alpha    90.2916
_cell_angle_beta     90.0502
_cell_angle_gamma    87.784

_space_group_name_H-M_alt    "P 1"
_space_group_IT_number       1

loop_
  _space_group_symop_operation_xyz
  'x, y, z'

loop_
  _atom_site_type_symbol
  _atom_site_label
  _atom_site_symmetry_multiplicity
  _atom_site_fract_x
  _atom_site_fract_y
  _atom_site_fract_z
  _atom_site_occupancy
  H   H1        1.0  0.04952  0.11586  0.45102  1.0000
  H   H2        1.0  0.10550  0.28077  0.11832  1.0000
  H   H3        1.0  0.11531  0.37995  0.04971  1.0000
  Fe  Fe1       1.0  0.30526  0.24366  0.28167  1.0000
  S   S1        1.0  0.25464  0.18510  0.29415  1.0000
  Fe  Fe2       1.0  0.22451  0.31825  0.27073  1.0000
  S   S2        1.0  0.16816  0.26447  0.28327  1.0000
  S   S3        1.0  0.19706  0.39266  0.24941  1.0000
  Fe  Fe3       1.0  0.21712  0.23808  0.34259  1.0000
  S   S4        1.0  0.19002  0.21177  0.41380  1.0000
  Fe  Fe4       1.0  0.21102  0.21599  0.23365  1.0000
  S   S5        1.0  0.19085  0.16813  0.17039  1.0000
  S   S6        1.0  0.26980  0.29541  0.33395  1.0000
  S   S7        1.0  0.26483  0.27129  0.21727  1.0000
  C   C1        1.0  0.14008  0.41386  0.47700  1.0000
  C   C2        1.0  0.13814  0.14067  0.15063  1.0000
  C   C3        1.0  0.13986  0.11276  0.10837  1.0000
  C   C4        1.0  0.09923  0.09001  0.09121  1.0000
  C   C5        1.0  0.05632  0.09445  0.11650  1.0000
  C   C6        1.0  0.05456  0.12253  0.15869  1.0000
  C   C7        1.0  0.09506  0.14577  0.17550  1.0000
  H   H4        1.0  0.17284  0.10894  0.08852  1.0000
  H   H5        1.0  0.10110  0.06929  0.05834  1.0000
  H   H6        1.0  0.08507  0.03947  0.34361  1.0000
  H   H7        1.0  0.09284  0.16787  0.20737  1.0000
  H   H8        1.0  0.31388  0.21959  0.12268  1.0000
  C   C8        1.0  0.21221  0.23362  0.46882  1.0000
  C   C9        1.0  0.25307  0.26038  0.47026  1.0000
  H   H9        1.0  0.10094  0.41138  0.48098  1.0000
  H   H10       1.0  0.27385  0.26478  0.43804  1.0000
  H   H11       1.0  0.01736  0.03918  0.28875  1.0000
  H   H12       1.0  0.33017  0.45954  0.24571  1.0000
  C   C10       1.0  0.21916  0.44837  0.26737  1.0000
  C   C11       1.0  0.25203  0.45220  0.30470  1.0000
  H   H13       1.0  0.03155  0.43622  0.15818  1.0000
  H   H14       1.0  0.26553  0.42052  0.32290  1.0000
  H   H15       1.0  0.32001  0.10147  0.18674  1.0000
  H   H16       1.0  0.15828  0.29209  0.15287  1.0000
  N   N1        1.0  0.15560  0.39332  0.42902  1.0000
  C   C12       1.0  0.11962  0.40898  0.39122  1.0000
  C   C13       1.0  0.15752  0.33954  0.42891  1.0000
  C   C14       1.0  0.20321  0.41106  0.41389  1.0000
  H   H17       1.0  0.02146  0.12658  0.17828  1.0000
  H   H18       1.0  0.27853  0.41282  0.42934  1.0000
  C   C15       1.0  0.11029  0.31628  0.44092  1.0000
  C   C16       1.0  0.06786  0.20167  0.38903  1.0000
  C   C17       1.0  0.29486  0.41040  0.17508  1.0000
  H   H19       1.0  0.12525  0.38802  0.35732  1.0000
  H   H20       1.0  0.08278  0.40174  0.40309  1.0000
  C   C18       1.0  0.11619  0.39866  0.12689  1.0000
  H   H21       1.0  0.16983  0.32520  0.39341  1.0000
  H   H22       1.0  0.21219  0.39669  0.37757  1.0000
  H   H23       1.0  0.20230  0.45063  0.41107  1.0000
  H   H24       1.0  0.01774  0.38958  0.19828  1.0000
  H   H25       1.0  0.27230  0.44135  0.18717  1.0000
  H   H26       1.0  0.03491  0.16792  0.32938  1.0000
  C   C19       1.0  0.32365  0.18102  0.12688  1.0000
  C   C20       1.0  0.13966  0.37747  0.08101  1.0000
  H   H27       1.0  0.23786  0.39258  0.12702  1.0000
  H   H28       1.0  0.18385  0.32527  0.45474  1.0000
  H   H29       1.0  0.14528  0.40323  0.15347  1.0000
  H   H30       1.0  0.05104  0.45689  0.24009  1.0000
  H   H31       1.0  0.15350  0.34037  0.08548  1.0000
  C   C21       1.0  0.04258  0.35520  0.11037  1.0000
  H   H32       1.0  0.12145  0.34456  0.20584  1.0000
  H   H33       1.0  0.28315  0.42408  0.09769  1.0000
  H   H34       1.0  0.09689  0.21734  0.36827  1.0000
  H   H35       1.0  0.29246  0.36134  0.11332  1.0000
  N   N2        1.0  0.08594  0.11567  0.35824  1.0000
  C   C22       1.0  0.12081  0.12974  0.32019  1.0000
  C   C23       1.0  0.04966  0.15630  0.36474  1.0000
  C   C24       1.0  0.06040  0.07153  0.34392  1.0000
  C   C25       1.0  0.11302  0.10501  0.40392  1.0000
  C   C26       1.0  0.15728  0.09043  0.30380  1.0000
  H   H36       1.0  0.06637  0.31819  0.20393  1.0000
  H   H37       1.0  0.17040  0.39924  0.07146  1.0000
  C   C27       1.0  0.08313  0.09435  0.44870  1.0000
  H   H38       1.0  0.10200  0.14335  0.28763  1.0000
  H   H39       1.0  0.14200  0.16005  0.33295  1.0000
  H   H40       1.0  0.11642  0.27727  0.44546  1.0000
  S   S8        1.0  0.04088  0.44725  0.00699  1.0000
  C   C28       1.0  0.27691  0.39643  0.12500  1.0000
  H   H41       1.0  0.10315  0.10405  0.48156  1.0000
  H   H42       1.0  0.13736  0.07310  0.39904  1.0000
  H   H43       1.0  0.13745  0.13363  0.41332  1.0000
  H   H44       1.0  0.18197  0.07967  0.33322  1.0000
  H   H45       1.0  0.17934  0.10500  0.27458  1.0000
  H   H46       1.0  0.14694  0.45245  0.47871  1.0000
  H   H47       1.0  0.02627  0.38649  0.09107  1.0000
  H   H48       1.0  0.08532  0.47165  0.35776  1.0000
  C   C29       1.0  0.04779  0.40687  0.18036  1.0000
  H   H49       1.0  0.14026  0.05866  0.28869  1.0000
  H   H50       1.0  0.11259  0.25524  0.17551  1.0000
  H   H51       1.0  0.32576  0.36847  0.26422  1.0000
  H   H52       1.0  0.10377  0.43563  0.11688  1.0000
  N   N3        1.0  0.07597  0.37188  0.14892  1.0000
  H   H53       1.0  0.29904  0.02775  0.34141  1.0000
  C   C30       1.0  0.11920  0.28807  0.15469  1.0000
  H   H54       1.0  0.28592  0.38046  0.19891  1.0000
  C   C31       1.0  0.09470  0.33151  0.18011  1.0000
  H   H55       1.0  0.10482  0.45242  0.20667  1.0000
  C   C32       1.0  0.07557  0.43130  0.22087  1.0000
  H   H56       1.0  0.24289  0.41813  0.48166  1.0000
  H   H57       1.0  0.07963  0.19505  0.42658  1.0000
  C   C33       1.0  0.33290  0.01535  0.35835  1.0000
  C   C34       1.0  0.24608  0.39933  0.44656  1.0000
  C   C35       1.0  0.20389  0.48985  0.24261  1.0000
  H   H58       1.0  0.07531  0.05589  0.45003  1.0000
  H   H59       1.0  0.14844  0.46901  0.35127  1.0000
  H   H60       1.0  0.05942  0.07856  0.26461  1.0000
  H   H61       1.0  0.06129  0.33389  0.08208  1.0000
  H   H62       1.0  0.17948  0.48730  0.21277  1.0000
  H   H63       1.0  0.25252  0.36053  0.45134  1.0000
  H   H64       1.0  0.31951  0.08803  0.10169  1.0000
  C   C36       1.0  0.11910  0.46221  0.37675  1.0000
  C   C37       1.0  0.03462  0.07372  0.29497  1.0000
  H   H65       1.0  0.12179  0.48636  0.40814  1.0000
  H   H66       1.0  0.08363  0.32132  0.41186  1.0000
  H   H67       1.0  0.03849  0.22923  0.39061  1.0000
  H   H68       1.0  0.08940  0.40543  0.24797  1.0000
  H   H69       1.0  0.09555  0.32991  0.47526  1.0000
  H   H70       1.0  0.29500  0.16564  0.14839  1.0000
  H   H71       1.0  0.03305  0.06336  0.37126  1.0000
  H   H72       1.0  0.32468  0.16557  0.09011  1.0000
  H   H73       1.0  0.01819  0.14493  0.38532  1.0000
  H   H74       1.0  0.01512  0.29055  0.14437  1.0000
  H   H75       1.0  0.23182  0.00714  0.39145  1.0000
  H   H76       1.0  0.27812  0.17518  0.87268  1.0000
  S   S9        1.0  0.03772  0.02360  0.54380  1.0000
  Fe  Fe5       1.0  0.21729  0.34539  0.78073  1.0000
  S   S10       1.0  0.28084  0.31732  0.73972  1.0000
  S   S11       1.0  0.21781  0.41246  0.82755  1.0000
  Fe  Fe6       1.0  0.15931  0.25978  0.75416  1.0000
  S   S12       1.0  0.21914  0.22502  0.71096  1.0000
  S   S13       1.0  0.09277  0.21627  0.75862  1.0000
  Fe  Fe7       1.0  0.26715  0.24554  0.77165  1.0000
  H   H77       1.0  0.29332  0.28965  0.90184  1.0000
  Fe  Fe8       1.0  0.22890  0.29828  0.68190  1.0000
  S   S14       1.0  0.25390  0.31301  0.60612  1.0000
  S   S15       1.0  0.20680  0.27465  0.81750  1.0000
  S   S16       1.0  0.16567  0.33225  0.72044  1.0000
  S   S17       1.0  0.03585  0.44564  0.58434  1.0000
  H   H78       1.0  0.05651  0.11451  0.80235  1.0000
  C   C38       1.0  0.26708  0.47274  0.96953  1.0000
  C   C39       1.0  0.32435  0.12894  0.91585  1.0000
  C   C40       1.0  0.22084  0.47998  0.98846  1.0000
  C   C41       1.0  0.23887  0.27906  0.55501  1.0000
  C   C42       1.0  0.19953  0.25005  0.55437  1.0000
  H   H79       1.0  0.10231  0.10776  0.84624  1.0000
  H   H80       1.0  0.17829  0.24655  0.58647  1.0000
  S   S18       1.0  0.33453  0.20011  0.78838  1.0000
  H   H81       1.0  0.27155  0.45559  0.93486  1.0000
  C   C43       1.0  0.25273  0.47523  0.76091  1.0000
  C   C44       1.0  0.31314  0.15817  0.87594  1.0000
  H   H82       1.0  0.08048  0.13044  0.70731  1.0000
  C   C45       1.0  0.05816  0.08024  0.65403  1.0000
  H   H83       1.0  0.05411  0.01692  0.75801  1.0000
  H   H84       1.0  0.07245  0.05612  0.82661  1.0000
  C   C46       1.0  0.23484  0.46904  0.80718  1.0000
  H   H85       1.0  0.04045  0.33083  0.55246  1.0000
  C   C47       1.0  0.03384  0.24091  0.75797  1.0000
  H   H86       1.0  0.04866  0.24783  0.58311  1.0000
  H   H87       1.0  0.28899  0.13299  0.60513  1.0000
  H   H88       1.0  0.05222  0.31285  0.77554  1.0000
  H   H89       1.0  0.03159  0.41976  0.78081  1.0000
  C   C48       1.0  0.15145  0.05329  0.69672  1.0000
  H   H90       1.0  0.20422  0.10804  0.70851  1.0000
  H   H91       1.0  0.25771  0.44469  0.73719  1.0000
  H   H92       1.0  0.17133  0.41859  0.54882  1.0000
  H   H93       1.0  0.03754  0.09163  0.72723  1.0000
  H   H94       1.0  0.15583  0.06345  0.79114  1.0000
  H   H95       1.0  0.19043  0.46796  0.96857  1.0000
  H   H96       1.0  0.06633  0.18660  0.88492  1.0000
  H   H97       1.0  0.29569  0.21726  0.62387  1.0000
  C   C49       1.0  0.16155  0.39028  0.52292  1.0000
  H   H98       1.0  0.08749  0.08783  0.62894  1.0000
  H   H99       1.0  0.27325  0.14322  0.66627  1.0000
  C   C50       1.0  0.03619  0.19814  0.90858  1.0000
  H   H100      1.0  0.13459  0.36920  0.54165  1.0000
  H   H101      1.0  0.15198  0.13072  0.67789  1.0000
  C   C51       1.0  0.30339  0.14307  0.64068  1.0000
  H   H102      1.0  0.29646  0.30582  0.51322  1.0000
  C   C52       1.0  0.14169  0.48382  0.69501  1.0000
  H   H103      1.0  0.19316  0.09364  0.64599  1.0000
  H   H104      1.0  0.06660  0.49143  0.70694  1.0000
  C   C53       1.0  0.02878  0.25502  0.55044  1.0000
  H   H105      1.0  0.14733  0.45836  0.72512  1.0000
  C   C54       1.0  0.02355  0.28906  0.76870  1.0000
  H   H106      1.0  0.13824  0.11985  0.76787  1.0000
  C   C55       1.0  0.00866  0.21703  0.52551  1.0000
  H   H107      1.0  0.26707  0.33857  0.93521  1.0000
  H   H108      1.0  0.19383  0.36731  0.51780  1.0000
  H   H109      1.0  0.04780  0.04271  0.64984  1.0000
  C   C56       1.0  0.18614  0.22753  0.51129  1.0000
  H   H110      1.0  0.13790  0.46153  0.66219  1.0000
  C   C57       1.0  0.29336  0.32903  0.90664  1.0000
  H   H111      1.0  0.30477  0.18140  0.54238  1.0000
  H   H112      1.0  0.29765  0.12366  0.94305  1.0000
  C   C58       1.0  0.08641  0.09049  0.81437  1.0000
  C   C59       1.0  0.07106  0.09233  0.70636  1.0000
  H   H113      1.0  0.28038  0.34653  0.87342  1.0000
  C   C60       1.0  0.12493  0.08365  0.77518  1.0000
  C   C61       1.0  0.32402  0.19352  0.63996  1.0000
  H   H114      1.0  0.04133  0.23620  0.91760  1.0000
  H   H115      1.0  0.15437  0.20695  0.51052  1.0000
  C   C62       1.0  0.26590  0.28350  0.51302  1.0000
  S   S19       1.0  0.01438  0.46102  0.87331  1.0000
  C   C63       1.0  0.17647  0.09913  0.68185  1.0000
  C   C64       1.0  0.02373  0.30221  0.53344  1.0000
  S   S20       1.0  0.01560  0.15869  0.54955  1.0000
  H   H116      1.0  0.02709  0.10331  0.64301  1.0000
  H   H117      1.0  0.01563  0.30808  0.64350  1.0000
  N   N4        1.0  0.10905  0.06046  0.72924  1.0000
  H   H118      1.0  0.03860  0.17607  0.94150  1.0000
  H   H119      1.0  0.32655  0.20593  0.67794  1.0000
  H   H120      1.0  0.32895  0.11461  0.65250  1.0000
  C   C65       1.0  0.30712  0.48728  0.99527  1.0000
  H   H121      1.0  0.31686  0.42551  0.86894  1.0000
  H   H122      1.0  0.08745  0.49407  0.79131  1.0000
  H   H123      1.0  0.33865  0.35286  0.81986  1.0000
  H   H124      1.0  0.17944  0.03050  0.71449  1.0000
  C   C66       1.0  0.08837  0.01249  0.73867  1.0000
  H   H125      1.0  0.14269  0.03250  0.66384  1.0000
  Fe  Fe9       1.0  0.01217  0.49573  0.94779  1.0000
  H   H126      1.0  0.33820  0.38301  0.93598  1.0000
  C   C67       1.0  0.22115  0.53475  0.25509  1.0000
  Fe  Fe10      1.0  0.22672  0.73038  0.19322  1.0000
  S   S21       1.0  0.29361  0.68488  0.19953  1.0000
  S   S22       1.0  0.18651  0.72927  0.12269  1.0000
  Fe  Fe11      1.0  0.23228  0.76779  0.29691  1.0000
  S   S23       1.0  0.30108  0.72588  0.30900  1.0000
  S   S24       1.0  0.20872  0.80445  0.36692  1.0000
  Fe  Fe12      1.0  0.32236  0.74967  0.23578  1.0000
  Fe  Fe13      1.0  0.26554  0.66508  0.27205  1.0000
  S   S25       1.0  0.27464  0.59438  0.31136  1.0000
  S   S26       1.0  0.25646  0.79661  0.22579  1.0000
  S   S27       1.0  0.19582  0.70555  0.26357  1.0000
  S   S28       1.0  0.04760  0.96608  0.40648  1.0000
  C   C68       1.0  0.15013  0.94367  0.08043  1.0000
  H   H127      1.0  0.05764  0.73505  0.43034  1.0000
  H   H128      1.0  0.14263  0.72343  0.36070  1.0000
  H   H129      1.0  0.27318  0.91726  0.44813  1.0000
  H   H130      1.0  0.33870  0.84833  0.46579  1.0000
  H   H131      1.0  0.08981  0.69054  0.36166  1.0000
  C   C69       1.0  0.16282  0.84843  0.37703  1.0000
  C   C70       1.0  0.13800  0.87067  0.33926  1.0000
  C   C71       1.0  0.10270  0.90645  0.34909  1.0000
  C   C72       1.0  0.09138  0.91984  0.39666  1.0000
  C   C73       1.0  0.11613  0.89748  0.43443  1.0000
  C   C74       1.0  0.15195  0.86222  0.42457  1.0000
  H   H132      1.0  0.14615  0.86052  0.30253  1.0000
  H   H133      1.0  0.08380  0.92366  0.31964  1.0000
  C   C75       1.0  0.30035  0.51009  0.03958  1.0000
  H   H134      1.0  0.17119  0.84542  0.45406  1.0000
  C   C76       1.0  0.25297  0.53871  0.29331  1.0000
  H   H135      1.0  0.07561  0.77411  0.38409  1.0000
  H   H136      1.0  0.20964  0.95274  0.41685  1.0000
  H   H137      1.0  0.20949  0.56632  0.23537  1.0000
  H   H138      1.0  0.29254  0.50009  0.34808  1.0000
  H   H139      1.0  0.08196  0.85531  0.08453  1.0000
  H   H140      1.0  0.11183  0.76834  0.43601  1.0000
  H   H141      1.0  0.15451  0.95519  0.11840  1.0000
  C   C77       1.0  0.26009  0.76325  0.06794  1.0000
  C   C78       1.0  0.21522  0.74342  0.06822  1.0000
  C   C79       1.0  0.15765  0.85927  0.10756  1.0000
  H   H142      1.0  0.27891  0.76819  0.10143  1.0000
  H   H143      1.0  0.15065  0.87610  0.14332  1.0000
  H   H144      1.0  0.16699  0.97246  0.05978  1.0000
  H   H145      1.0  0.26240  0.95871  0.31944  1.0000
  H   H146      1.0  0.10252  0.80969  0.12488  1.0000
  N   N5        1.0  0.14150  0.66982  0.41640  1.0000
  C   C80       1.0  0.16638  0.63389  0.38332  1.0000
  C   C81       1.0  0.17973  0.69312  0.44535  1.0000
  H   H147      1.0  0.24935  0.53428  0.09326  1.0000
  C   C82       1.0  0.16877  0.87772  0.02134  1.0000
  H   H148      1.0  0.16319  0.53661  0.47400  1.0000
  N   N6        1.0  0.30496  0.93116  0.37907  1.0000
  C   C83       1.0  0.10621  0.64425  0.44699  1.0000
  C   C84       1.0  0.08921  0.74806  0.41131  1.0000
  H   H149      1.0  0.19486  0.65099  0.36237  1.0000
  H   H150      1.0  0.18475  0.60499  0.40426  1.0000
  H   H151      1.0  0.23199  0.68032  0.50214  1.0000
  H   H152      1.0  0.20394  0.71239  0.42106  1.0000
  C   C85       1.0  0.24301  0.91234  0.13202  1.0000
  C   C86       1.0  0.11664  0.70698  0.38523  1.0000
  Fe  Fe14      1.0  0.08428  0.50990  0.02758  1.0000
  H   H153      1.0  0.13153  0.86997  0.01325  1.0000
  C   C87       1.0  0.09614  0.94721  0.07142  1.0000
  C   C88       1.0  0.23923  0.53165  0.46339  1.0000
  H   H154      1.0  0.09591  0.70672  0.49804  1.0000
  H   H155      1.0  0.18732  0.97477  0.36122  1.0000
  C   C89       1.0  0.21433  0.50146  0.03361  1.0000
  H   H156      1.0  0.12306  0.63205  0.31719  1.0000
  H   H157      1.0  0.08527  0.98482  0.06335  1.0000
  H   H158      1.0  0.12061  0.60785  0.45604  1.0000
  S   S29       1.0  0.15798  0.50692  0.06196  1.0000
  H   H159      1.0  0.15584  0.57816  0.33018  1.0000
  C   C90       1.0  0.28029  0.77772  0.02432  1.0000
  H   H160      1.0  0.22874  0.94771  0.14444  1.0000
  C   C91       1.0  0.11296  0.83183  0.09389  1.0000
  C   C92       1.0  0.13462  0.60809  0.34698  1.0000
  H   H161      1.0  0.18579  0.83101  0.11400  1.0000
  H   H162      1.0  0.10799  0.90766  0.47117  1.0000
  C   C93       1.0  0.33306  0.51254  0.16589  1.0000
  H   H163      1.0  0.12043  0.80646  0.06379  1.0000
  H   H164      1.0  0.07284  0.63860  0.42644  1.0000
  H   H165      1.0  0.15670  0.72175  0.02435  1.0000
  H   H166      1.0  0.23328  0.88428  0.15778  1.0000
  C   C94       1.0  0.25430  0.51675  0.05880  1.0000
  C   C95       1.0  0.22014  0.97064  0.38328  1.0000
  C   C96       1.0  0.32574  0.97680  0.39683  1.0000
  S   S30       1.0  0.02732  0.53785  0.07788  1.0000
  H   H167      1.0  0.24124  0.92992  0.05739  1.0000
  C   C97       1.0  0.19737  0.53021  0.49083  1.0000
  H   H168      1.0  0.24091  0.90647  0.34551  1.0000
  C   C98       1.0  0.25771  0.94067  0.35457  1.0000
  H   H169      1.0  0.31482  0.79345  0.02457  1.0000
  H   H170      1.0  0.23721  0.53886  0.42525  1.0000
  H   H171      1.0  0.24771  0.86763  0.06900  1.0000
  H   H172      1.0  0.18835  0.84279  0.01654  1.0000
  H   H173      1.0  0.28242  0.91367  0.13301  1.0000
  C   C99       1.0  0.29756  0.89930  0.42168  1.0000
  C   C100      1.0  0.03590  0.71274  0.00675  1.0000
  H   H174      1.0  0.23765  0.63853  0.45380  1.0000
  C   C101      1.0  0.22749  0.90092  0.08006  1.0000
  N   N7        1.0  0.17483  0.89561  0.07212  1.0000
  Fe  Fe15      1.0  0.00998  0.99142  0.47547  1.0000
  C   C102      1.0  0.19141  0.73710  0.02439  1.0000
  C   C103      1.0  0.28393  0.52405  0.48499  1.0000
  H   H175      1.0  0.27854  0.86660  0.41155  1.0000
  H   H176      1.0  0.16514  0.72132  0.46973  1.0000
  H   H177      1.0  0.29385  0.51131  0.16388  1.0000
  H   H178      1.0  0.07607  0.93585  0.10347  1.0000
  H   H179      1.0  0.10337  0.59245  0.36421  1.0000
  H   H180      1.0  0.29214  0.85153  0.31615  1.0000
  C   C104      1.0  0.21132  0.65901  0.47629  1.0000
  H   H181      1.0  0.08496  0.92684  0.03959  1.0000
  C   C105      1.0  0.32883  0.85556  0.32949  1.0000
  H   H182      1.0  0.33057  0.52312  0.05872  1.0000
  H   H183      1.0  0.19033  0.63387  0.49740  1.0000
  S   S31       1.0  0.33537  0.52945  0.44961  1.0000
  S   S32       1.0  0.04544  0.49826  0.47810  1.0000
  H   H184      1.0  0.30397  0.99314  0.42644  1.0000
  C   C106      1.0  0.09190  0.66773  0.49566  1.0000
  H   H185      1.0  0.33829  0.92810  0.30871  1.0000
  H   H186      1.0  0.05371  0.66162  0.50244  1.0000
  H   H187      1.0  0.33574  0.83102  0.36009  1.0000
  C   C107      1.0  0.33862  0.90775  0.34299  1.0000
  H   H188      1.0  0.28175  0.66270  0.00606  1.0000
  H   H189      1.0  0.28405  0.59945  0.00513  1.0000
  C   C108      1.0  0.26801  0.49732  0.31829  1.0000
  Fe  Fe16      1.0  0.24277  0.69339  0.77781  1.0000
  S   S33       1.0  0.19565  0.72313  0.83735  1.0000
  S   S34       1.0  0.26254  0.61880  0.74953  1.0000
  Fe  Fe17      1.0  0.27520  0.79172  0.74512  1.0000
  S   S35       1.0  0.23155  0.83005  0.80208  1.0000
  C   C109      1.0  0.04183  0.75634  0.74006  1.0000
  Fe  Fe18      1.0  0.25538  0.77182  0.85286  1.0000
  S   S36       1.0  0.28248  0.79203  0.92685  1.0000
  Fe  Fe19      1.0  0.17316  0.78002  0.78387  1.0000
  S   S37       1.0  0.10060  0.81818  0.78746  1.0000
  S   S38       1.0  0.30451  0.73757  0.79783  1.0000
  S   S39       1.0  0.21477  0.74619  0.72266  1.0000
  S   S40       1.0  0.05896  0.55707  0.96664  1.0000
  C   C110      1.0  0.30323  0.66528  0.62648  1.0000
  H   H190      1.0  0.17609  0.89435  0.94582  1.0000
  C   C111      1.0  0.24472  0.51312  0.56164  1.0000
  H   H191      1.0  0.29265  0.88219  0.87803  1.0000
  H   H192      1.0  0.12735  0.98970  0.80443  1.0000
  H   H193      1.0  0.13518  0.57902  0.83882  1.0000
  H   H194      1.0  0.31186  0.91284  0.72007  1.0000
  N   N8        1.0  0.32917  0.63118  0.95159  1.0000
  H   H195      1.0  0.08931  0.53324  0.66636  1.0000
  H   H196      1.0  0.07391  0.73911  0.72605  1.0000
  C   C112      1.0  0.33414  0.91279  0.68844  1.0000
  H   H197      1.0  0.26847  0.61243  0.57988  1.0000
  H   H198      1.0  0.22359  0.91557  0.98118  1.0000
  C   C113      1.0  0.12804  0.63842  0.75168  1.0000
  S   S41       1.0  0.14874  0.52279  0.57683  1.0000
  C   C114      1.0  0.22837  0.50915  0.83751  1.0000
  H   H199      1.0  0.19254  0.74695  0.94738  1.0000
  C   C115      1.0  0.25475  0.56154  0.77432  1.0000
  C   C116      1.0  0.23737  0.55537  0.82082  1.0000
  C   C117      1.0  0.26309  0.52122  0.74478  1.0000
  H   H200      1.0  0.22963  0.58620  0.84339  1.0000
  H   H201      1.0  0.27591  0.52567  0.70849  1.0000
  C   C118      1.0  0.27928  0.95860  0.87440  1.0000
  C   C119      1.0  0.04510  0.79601  0.77035  1.0000
  H   H202      1.0  0.14703  0.51060  0.78552  1.0000
  C   C120      1.0  0.03824  0.69016  0.88130  1.0000
  C   C121      1.0  0.10657  0.55329  0.83517  1.0000
  C   C122      1.0  0.25612  0.77206  0.98056  1.0000
  H   H203      1.0  0.22896  0.64923  0.61554  1.0000
  H   H204      1.0  0.24257  0.94822  0.88313  1.0000
  H   H205      1.0  0.29657  0.69613  0.60248  1.0000
  H   H206      1.0  0.21420  0.50464  0.87329  1.0000
  S   S42       1.0  0.32674  0.81341  0.68599  1.0000
  H   H207      1.0  0.11124  0.64975  0.52579  1.0000
  H   H208      1.0  0.09956  0.94325  0.77239  1.0000
  C   C123      1.0  0.21177  0.75121  0.98069  1.0000
  C   C124      1.0  0.11011  0.52556  0.78731  1.0000
  C   C125      1.0  0.26404  0.62964  0.61556  1.0000
  C   C126      1.0  0.30935  0.91326  0.86100  1.0000
  H   H209      1.0  0.16521  0.94621  0.98219  1.0000
  C   C127      1.0  0.09615  0.51578  0.70167  1.0000
  C   C128      1.0  0.23674  0.63148  0.95332  1.0000
  H   H210      1.0  0.16991  0.57373  0.73890  1.0000
  H   H211      1.0  0.11244  0.52726  0.86486  1.0000
  H   H212      1.0  0.20689  0.63662  0.97920  1.0000
  H   H213      1.0  0.26192  0.60175  0.64351  1.0000
  H   H214      1.0  0.23357  0.66089  0.92696  1.0000
  C   C129      1.0  0.02608  0.59604  0.70076  1.0000
  H   H215      1.0  0.02345  0.54881  0.76121  1.0000
  C   C130      1.0  0.28656  0.51400  0.53408  1.0000
  S   S43       1.0  0.01638  0.56129  0.57347  1.0000
  Fe  Fe20      1.0  0.07383  0.50765  0.55272  1.0000
  H   H216      1.0  0.24703  0.50591  0.59977  1.0000
  H   H217      1.0  0.27733  0.98398  0.84385  1.0000
  H   H218      1.0  0.04013  0.65992  0.90682  1.0000
  H   H219      1.0  0.09721  0.65852  0.73603  1.0000
  C   C131      1.0  0.13407  0.58803  0.72933  1.0000
  C   C132      1.0  0.33316  0.68056  0.93129  1.0000
  C   C133      1.0  0.11954  0.97647  0.76778  1.0000
  H   H220      1.0  0.23148  0.59675  0.93503  1.0000
  H   H221      1.0  0.31938  0.62379  0.51162  1.0000
  H   H222      1.0  0.05125  0.61758  0.68025  1.0000
  H   H223      1.0  0.30285  0.90750  0.82201  1.0000
  H   H224      1.0  0.33039  0.68246  0.53455  1.0000
  H   H225      1.0  0.12460  0.63840  0.79112  1.0000
  H   H226      1.0  0.04747  0.60433  0.77419  1.0000
  H   H227      1.0  0.30808  0.56198  0.92592  1.0000
  H   H228      1.0  0.07105  0.57046  0.84161  1.0000
  H   H229      1.0  0.15995  0.65876  0.74305  1.0000
  H   H230      1.0  0.29155  0.97727  0.90690  1.0000
  H   H231      1.0  0.04725  0.67748  0.84447  1.0000
  H   H232      1.0  0.13586  0.59373  0.68974  1.0000
  S   S44       1.0  0.04304  0.85428  0.97797  1.0000
  H   H233      1.0  0.06648  0.71485  0.89192  1.0000
  H   H234      1.0  0.31101  0.89402  0.95745  1.0000
  C   C134      1.0  0.20000  0.52130  0.54017  1.0000
  H   H235      1.0  0.07961  0.99415  0.70440  1.0000
  N   N9        1.0  0.09730  0.55231  0.74180  1.0000
  H   H236      1.0  0.30266  0.68935  0.90709  1.0000
  C   C135      1.0  0.04826  0.57515  0.74710  1.0000
  H   H237      1.0  0.29614  0.68033  0.66311  1.0000
  C   C136      1.0  0.28416  0.63121  0.98138  1.0000
  H   H238      1.0  0.32976  0.70806  0.96005  1.0000
  H   H239      1.0  0.32076  0.50715  0.55089  1.0000
  S   S45       1.0  0.02897  0.99321  0.96804  1.0000
  H   H240      1.0  0.33617  0.57815  0.65659  1.0000
  H   H241      1.0  0.30132  0.60857  0.88291  1.0000
  C   C137      1.0  0.18467  0.91104  0.98098  1.0000
  H   H242      1.0  0.15293  0.96583  0.74887  1.0000
  H   H243      1.0  0.05932  0.68129  0.00391  1.0000
  C   C138      1.0  0.32504  0.59444  0.91199  1.0000
  C   C139      1.0  0.02187  0.79881  0.99649  1.0000
  H   H244      1.0  0.01339  0.56698  0.67752  1.0000
  H   H245      1.0  0.08807  0.76085  0.98059  1.0000
  H   H246      1.0  0.17362  0.50522  0.69001  1.0000
  C   C140      1.0  0.05214  0.75781  0.99369  1.0000
  C   C141      1.0  0.49555  0.00613  0.21777  1.0000
  H   H247      1.0  0.61797  0.42038  0.05743  1.0000
  Fe  Fe21      1.0  0.64589  0.26102  0.25407  1.0000
  S   S46       1.0  0.57650  0.29625  0.22980  1.0000
  H   H248      1.0  0.50097  0.04849  0.33313  1.0000
  C   C142      1.0  0.61170  0.36912  0.49021  1.0000
  S   S47       1.0  0.48550  0.43721  0.02864  1.0000
  H   H249      1.0  0.34464  0.03686  0.13312  1.0000
  H   H250      1.0  0.61961  0.39985  0.42103  1.0000
  S   S48       1.0  0.49241  0.43665  0.16649  1.0000
  H   H251      1.0  0.52605  0.06787  0.25058  1.0000
  S   S49       1.0  0.52687  0.06998  0.43610  1.0000
  C   C143      1.0  0.43425  0.27961  0.47363  1.0000
  S   S50       1.0  0.37974  0.21202  0.28935  1.0000
  S   S51       1.0  0.45362  0.45121  0.44674  1.0000
  C   C144      1.0  0.49249  0.43964  0.26472  1.0000
  C   C145      1.0  0.50569  0.45693  0.31010  1.0000
  H   H252      1.0  0.46776  0.41114  0.26231  1.0000
  H   H253      1.0  0.49025  0.44258  0.34222  1.0000
  C   C146      1.0  0.52200  0.27292  0.24698  1.0000
  C   C147      1.0  0.47943  0.29467  0.23015  1.0000
  C   C148      1.0  0.43535  0.27661  0.24322  1.0000
  C   C149      1.0  0.43377  0.23752  0.27399  1.0000
  C   C150      1.0  0.47636  0.21571  0.29060  1.0000
  C   C151      1.0  0.52039  0.23314  0.27686  1.0000
  H   H254      1.0  0.48078  0.32525  0.20663  1.0000
  H   H255      1.0  0.40267  0.29212  0.22905  1.0000
  H   H256      1.0  0.47527  0.18496  0.31398  1.0000
  H   H257      1.0  0.55299  0.21561  0.28923  1.0000
  C   C152      1.0  0.49216  0.02508  0.30370  1.0000
  C   C153      1.0  0.50633  0.03601  0.25673  1.0000
  H   H258      1.0  0.64888  0.35459  0.01130  1.0000
  N   N10       1.0  0.38939  0.12655  0.16590  1.0000
  S   S52       1.0  0.41655  0.05210  0.47279  1.0000
  H   H259      1.0  0.36019  0.04736  0.07234  1.0000
  S   S53       1.0  0.44223  0.18400  0.45500  1.0000
  C   C154      1.0  0.37798  0.37873  0.16455  1.0000
  H   H260      1.0  0.61330  0.08681  0.10956  1.0000
  Fe  Fe22      1.0  0.49429  0.47876  0.09731  1.0000
  C   C155      1.0  0.37269  0.17620  0.15123  1.0000
  H   H261      1.0  0.61351  0.39311  0.20815  1.0000
  S   S54       1.0  0.51025  0.05596  0.03207  1.0000
  H   H262      1.0  0.47952  0.13952  0.12427  1.0000
  H   H263      1.0  0.43315  0.15037  0.22497  1.0000
  C   C156      1.0  0.47606  0.15462  0.16107  1.0000
  H   H264      1.0  0.60578  0.43950  0.11636  1.0000
  H   H265      1.0  0.39711  0.47058  0.15256  1.0000
  H   H266      1.0  0.35858  0.00286  0.33037  1.0000
  H   H267      1.0  0.51079  0.14803  0.17942  1.0000
  C   C157      1.0  0.61179  0.34540  0.12045  1.0000
  H   H268      1.0  0.39909  0.48825  0.31162  1.0000
  C   C158      1.0  0.64688  0.41094  0.19959  1.0000
  C   C159      1.0  0.35679  0.43277  0.23149  1.0000
  C   C160      1.0  0.61418  0.37325  0.33208  1.0000
  H   H269      1.0  0.40754  0.28034  0.44559  1.0000
  C   C161      1.0  0.45726  0.23612  0.48612  1.0000
  H   H270      1.0  0.42750  0.35546  0.48727  1.0000
  H   H271      1.0  0.64853  0.38871  0.34228  1.0000
  H   H272      1.0  0.63411  0.02897  0.37191  1.0000
  C   C162      1.0  0.43699  0.13078  0.19030  1.0000
  H   H273      1.0  0.37197  0.20059  0.18307  1.0000
  C   C163      1.0  0.35830  0.46479  0.15055  1.0000
  H   H274      1.0  0.34842  0.04701  0.37577  1.0000
  H   H275      1.0  0.35059  0.45953  0.11192  1.0000
  N   N11       1.0  0.58840  0.33090  0.40899  1.0000
  C   C164      1.0  0.62133  0.36301  0.43598  1.0000
  C   C165      1.0  0.60727  0.32568  0.35860  1.0000
  C   C166      1.0  0.59084  0.28290  0.43351  1.0000
  C   C167      1.0  0.53859  0.35291  0.41031  1.0000
  H   H276      1.0  0.65905  0.34988  0.43198  1.0000
  C   C168      1.0  0.56408  0.24207  0.40982  1.0000
  C   C169      1.0  0.50454  0.33957  0.36907  1.0000
  H   H277      1.0  0.58400  0.30395  0.33578  1.0000
  H   H278      1.0  0.46997  0.19400  0.15978  1.0000
  H   H279      1.0  0.62854  0.27009  0.43710  1.0000
  H   H280      1.0  0.63865  0.44863  0.18969  1.0000
  H   H281      1.0  0.52101  0.34415  0.44457  1.0000
  H   H282      1.0  0.53929  0.39265  0.41016  1.0000
  H   H283      1.0  0.66718  0.48270  0.05448  1.0000
  H   H284      1.0  0.62351  0.31311  0.14122  1.0000
  H   H285      1.0  0.64222  0.30567  0.35885  1.0000
  H   H286      1.0  0.57345  0.23617  0.37167  1.0000
  H   H287      1.0  0.52519  0.24723  0.41427  1.0000
  H   H288      1.0  0.57377  0.20824  0.42878  1.0000
  H   H289      1.0  0.46839  0.35477  0.37721  1.0000
  H   H290      1.0  0.50108  0.30078  0.36412  1.0000
  H   H291      1.0  0.42473  0.06664  0.12838  1.0000
  H   H292      1.0  0.55473  0.30786  0.08672  1.0000
  N   N12       1.0  0.65305  0.37730  0.11248  1.0000
  H   H293      1.0  0.41874  0.40229  0.10230  1.0000
  H   H294      1.0  0.61502  0.36682  0.29281  1.0000
  H   H295      1.0  0.62501  0.01287  0.31067  1.0000
  H   H296      1.0  0.58351  0.36398  0.14232  1.0000
  H   H297      1.0  0.45202  0.09507  0.19995  1.0000
  C   C170      1.0  0.58662  0.32705  0.07529  1.0000
  H   H298      1.0  0.39196  0.44946  0.23485  1.0000
  H   H299      1.0  0.58508  0.39996  0.33925  1.0000
  H   H300      1.0  0.57646  0.28568  0.47068  1.0000
  H   H301      1.0  0.57389  0.35646  0.05148  1.0000
  H   H302      1.0  0.41236  0.37841  0.18438  1.0000
  C   C171      1.0  0.63496  0.42460  0.09308  1.0000
  H   H303      1.0  0.39776  0.19163  0.12523  1.0000
  H   H304      1.0  0.39793  0.06967  0.25746  1.0000
  Fe  Fe23      1.0  0.46902  0.11031  0.47661  1.0000
  S   S55       1.0  0.51530  0.02229  0.15982  1.0000
  C   C172      1.0  0.39261  0.37506  0.11106  1.0000
  H   H305      1.0  0.40698  0.11444  0.09065  1.0000
  H   H306      1.0  0.36260  0.37907  0.08563  1.0000
  H   H307      1.0  0.60960  0.30071  0.05533  1.0000
  C   C173      1.0  0.51102  0.45900  0.22260  1.0000
  H   H308      1.0  0.51537  0.35483  0.33425  1.0000
  C   C174      1.0  0.39551  0.09399  0.12258  1.0000
  Fe  Fe24      1.0  0.47596  0.00999  0.43677  1.0000
  H   H309      1.0  0.41056  0.33962  0.10442  1.0000
  H   H310      1.0  0.39006  0.36750  0.26284  1.0000
  H   H311      1.0  0.38911  0.03510  0.20347  1.0000
  H   H312      1.0  0.36112  0.34481  0.17441  1.0000
  H   H313      1.0  0.66875  0.48968  0.11792  1.0000
  S   S56       1.0  0.66261  0.20711  0.31184  1.0000
  C   C175      1.0  0.37223  0.06164  0.22843  1.0000
  H   H314      1.0  0.65641  0.15263  0.08265  1.0000
  H   H315      1.0  0.35828  0.40477  0.30431  1.0000
  C   C176      1.0  0.54445  0.49452  0.22620  1.0000
  C   C177      1.0  0.64952  0.07821  0.09525  1.0000
  N   N13       1.0  0.34666  0.42135  0.17945  1.0000
  C   C178      1.0  0.35209  0.06546  0.10712  1.0000
  C   C179      1.0  0.35745  0.39048  0.26700  1.0000
  C   C180      1.0  0.35533  0.10797  0.20261  1.0000
  H   H316      1.0  0.34789  0.13530  0.23112  1.0000
  H   H317      1.0  0.66788  0.41186  0.23336  1.0000
  H   H318      1.0  0.64507  0.06559  0.05777  1.0000
  H   H319      1.0  0.57418  0.37995  0.49724  1.0000
  H   H320      1.0  0.66452  0.04891  0.11804  1.0000
  C   C181      1.0  0.44560  0.32218  0.49710  1.0000
  H   H321      1.0  0.66085  0.99898  0.45696  1.0000
  C   C182      1.0  0.53952  0.49195  0.31386  1.0000
  H   H322      1.0  0.34142  0.04512  0.24572  1.0000
  C   C183      1.0  0.67292  0.46279  0.08860  1.0000
  C   C184      1.0  0.63426  0.99814  0.34661  1.0000
  Fe  Fe25      1.0  0.43349  0.49688  0.00839  1.0000
  H   H323      1.0  0.63386  0.39787  0.50464  1.0000
  C   C185      1.0  0.38822  0.29013  0.87009  1.0000
  S   S57       1.0  0.38094  0.06845  0.97098  1.0000
  H   H324      1.0  0.43877  0.09642  0.88847  1.0000
  S   S58       1.0  0.61000  0.45847  0.95979  1.0000
  H   H325      1.0  0.55236  0.09617  0.78102  1.0000
  C   C186      1.0  0.58431  0.18131  0.62354  1.0000
  H   H326      1.0  0.43211  0.23946  0.82872  1.0000
  C   C187      1.0  0.35077  0.42275  0.84882  1.0000
  S   S59       1.0  0.49506  0.08751  0.54886  1.0000
  C   C188      1.0  0.57295  0.14720  0.72415  1.0000
  H   H327      1.0  0.46477  0.28835  0.85040  1.0000
  S   S60       1.0  0.49751  0.37494  0.56077  1.0000
  Fe  Fe26      1.0  0.54163  0.48286  0.99804  1.0000
  C   C189      1.0  0.37700  0.16517  0.57206  1.0000
  Fe  Fe27      1.0  0.48285  0.44484  0.52182  1.0000
  H   H328      1.0  0.52027  0.11642  0.65019  1.0000
  C   C190      1.0  0.49164  0.23525  0.52245  1.0000
  H   H329      1.0  0.41041  0.29144  0.65010  1.0000
  H   H330      1.0  0.49072  0.03937  0.67246  1.0000
  H   H331      1.0  0.53018  0.27736  0.57356  1.0000
  H   H332      1.0  0.62169  0.33625  0.51057  1.0000
  H   H333      1.0  0.60930  0.12244  0.79013  1.0000
  H   H334      1.0  0.45948  0.29546  0.93605  1.0000
  C   C191      1.0  0.63172  0.33083  0.85586  1.0000
  H   H335      1.0  0.64665  0.15498  0.66147  1.0000
  H   H336      1.0  0.55571  0.15702  0.79997  1.0000
  C   C192      1.0  0.61725  0.40891  0.92015  1.0000
  C   C193      1.0  0.57865  0.38296  0.90459  1.0000
  C   C194      1.0  0.58589  0.34413  0.87262  1.0000
  C   C195      1.0  0.39235  0.14217  0.84498  1.0000
  H   H337      1.0  0.54326  0.39315  0.91676  1.0000
  H   H338      1.0  0.55584  0.32430  0.86058  1.0000
  C   C196      1.0  0.36961  0.10626  0.92070  1.0000
  S   S61       1.0  0.40092  0.01235  0.60846  1.0000
  H   H339      1.0  0.36666  0.32405  0.61599  1.0000
  C   C197      1.0  0.40376  0.11345  0.88522  1.0000
  H   H340      1.0  0.60925  0.05482  0.73457  1.0000
  H   H341      1.0  0.66826  0.05402  0.64211  1.0000
  Fe  Fe28      1.0  0.44743  0.02510  0.54248  1.0000
  H   H342      1.0  0.40978  0.00612  0.88203  1.0000
  H   H343      1.0  0.56950  0.49469  0.81318  1.0000
  C   C198      1.0  0.37354  0.24898  0.59571  1.0000
  H   H344      1.0  0.39264  0.26677  0.90218  1.0000
  H   H345      1.0  0.39769  0.37122  0.81473  1.0000
  H   H346      1.0  0.50979  0.20188  0.53184  1.0000
  H   H347      1.0  0.41882  0.14689  0.81743  1.0000
  N   N14       1.0  0.38104  0.34189  0.88443  1.0000
  H   H348      1.0  0.53689  0.16295  0.71620  1.0000
  H   H349      1.0  0.57031  0.20777  0.65021  1.0000
  H   H350      1.0  0.55829  0.06925  0.62920  1.0000
  H   H351      1.0  0.40541  0.25253  0.57268  1.0000
  C   C199      1.0  0.62443  0.07538  0.70468  1.0000
  C   C200      1.0  0.54707  0.08896  0.66234  1.0000
  H   H352      1.0  0.60777  0.20066  0.59877  1.0000
  Fe  Fe29      1.0  0.54996  0.04220  0.50863  1.0000
  C   C201      1.0  0.64448  0.03790  0.66852  1.0000
  H   H353      1.0  0.59641  0.17842  0.72559  1.0000
  H   H354      1.0  0.62566  0.11637  0.61644  1.0000
  H   H355      1.0  0.44930  0.13949  0.69468  1.0000
  H   H356      1.0  0.65538  0.09350  0.72019  1.0000
  S   S62       1.0  0.63870  0.28180  0.81537  1.0000
  C   C202      1.0  0.41210  0.19043  0.64859  1.0000
  N   N15       1.0  0.58897  0.11211  0.68513  1.0000
  H   H357      1.0  0.40018  0.02053  0.82047  1.0000
  H   H358      1.0  0.35260  0.32394  0.95411  1.0000
  H   H359      1.0  0.42623  0.33262  0.97893  1.0000
  C   C203      1.0  0.37459  0.28916  0.63376  1.0000
  Fe  Fe30      1.0  0.55731  0.00475  0.98965  1.0000
  H   H360      1.0  0.48244  0.34981  0.95748  1.0000
  C   C204      1.0  0.57250  0.12894  0.77647  1.0000
  H   H361      1.0  0.55488  0.16798  0.60135  1.0000
  C   C205      1.0  0.42591  0.36151  0.90506  1.0000
  H   H362      1.0  0.38696  0.13715  0.69931  1.0000
  C   C206      1.0  0.42995  0.27861  0.83543  1.0000
  C   C207      1.0  0.44919  0.33263  0.94661  1.0000
  S   S63       1.0  0.62287  0.04620  0.54390  1.0000
  C   C208      1.0  0.61375  0.13979  0.64672  1.0000
  C   C209      1.0  0.34265  0.34576  0.92216  1.0000
  C   C210      1.0  0.50308  0.27795  0.54594  1.0000
  C   C211      1.0  0.48050  0.32160  0.53287  1.0000
  H   H363      1.0  0.45330  0.36544  0.87665  1.0000
  H   H364      1.0  0.41898  0.39827  0.91941  1.0000
  S   S64       1.0  0.36492  0.47710  0.97084  1.0000
  C   C212      1.0  0.52024  0.05400  0.69390  1.0000
  H   H365      1.0  0.42423  0.29579  0.79997  1.0000
  H   H366      1.0  0.41014  0.21645  0.67892  1.0000
  S   S65       1.0  0.62435  0.02654  0.95183  1.0000
  H   H367      1.0  0.37426  0.12721  0.58262  1.0000
  H   H368      1.0  0.35248  0.20559  0.50843  1.0000
  H   H369      1.0  0.41346  0.16721  0.55686  1.0000
  N   N16       1.0  0.37094  0.19862  0.61448  1.0000
  H   H370      1.0  0.44638  0.19628  0.62979  1.0000
  H   H371      1.0  0.37790  0.44357  0.86756  1.0000
  H   H372      1.0  0.34749  0.28487  0.66205  1.0000
  C   C213      1.0  0.66305  0.39577  0.90335  1.0000
  C   C214      1.0  0.36732  0.37025  0.84022  1.0000
  H   H373      1.0  0.41813  0.11128  0.64712  1.0000
  C   C215      1.0  0.41617  0.14137  0.67312  1.0000
  H   H374      1.0  0.35595  0.27736  0.85173  1.0000
  H   H375      1.0  0.61642  0.01822  0.64990  1.0000
  H   H376      1.0  0.54316  0.02298  0.70518  1.0000
  H   H377      1.0  0.34267  0.14318  0.50556  1.0000
  H   H378      1.0  0.50388  0.07208  0.72555  1.0000
  C   C216      1.0  0.67032  0.35687  0.87146  1.0000
  Fe  Fe31      1.0  0.44888  0.02593  0.99198  1.0000
  C   C217      1.0  0.38602  0.99993  0.85095  1.0000
  H   H379      1.0  0.35018  0.01526  0.85895  1.0000
  S   S66       1.0  0.54362  0.49348  0.50871  1.0000
  C   C218      1.0  0.34701  0.16466  0.84006  1.0000
  H   H380      1.0  0.66658  0.01083  0.68800  1.0000
  H   H381      1.0  0.34385  0.44011  0.81356  1.0000
  C   C219      1.0  0.34186  0.17459  0.53013  1.0000
  H   H382      1.0  0.34265  0.25806  0.57226  1.0000
  H   H383      1.0  0.62588  0.47745  0.83769  1.0000
  H   H384      1.0  0.46406  0.61465  0.21334  1.0000
  C   C220      1.0  0.41122  0.64545  0.26525  1.0000
  H   H385      1.0  0.66115  0.76522  0.43049  1.0000
  H   H386      1.0  0.37564  0.64877  0.50332  1.0000
  H   H387      1.0  0.55232  0.68742  0.40619  1.0000
  S   S67       1.0  0.55469  0.94532  0.04315  1.0000
  H   H388      1.0  0.53903  0.62504  0.41222  1.0000
  H   H389      1.0  0.38696  0.68354  0.40155  1.0000
  S   S68       1.0  0.59315  0.75664  0.30831  1.0000
  S   S69       1.0  0.39127  0.77730  0.20729  1.0000
  H   H390      1.0  0.38432  0.68877  0.01609  1.0000
  S   S70       1.0  0.55420  0.51992  0.06850  1.0000
  H   H391      1.0  0.55053  0.90882  0.42866  1.0000
  S   S71       1.0  0.43841  0.53521  0.07917  1.0000
  H   H392      1.0  0.51382  0.66829  0.45298  1.0000
  H   H393      1.0  0.34371  0.54124  0.14121  1.0000
  H   H394      1.0  0.36121  0.96934  0.41344  1.0000
  H   H395      1.0  0.43712  0.52198  0.34927  1.0000
  H   H396      1.0  0.58595  0.53703  0.27436  1.0000
  C   C221      1.0  0.63729  0.60376  0.41117  1.0000
  Fe  Fe32      1.0  0.51017  0.50443  0.43594  1.0000
  N   N17       1.0  0.59862  0.91513  0.33673  1.0000
  H   H397      1.0  0.42306  0.54705  0.25829  1.0000
  C   C222      1.0  0.53769  0.76537  0.27940  1.0000
  C   C223      1.0  0.49644  0.77050  0.30767  1.0000
  C   C224      1.0  0.45127  0.77437  0.28608  1.0000
  C   C225      1.0  0.44715  0.77335  0.23605  1.0000
  C   C226      1.0  0.48848  0.77012  0.20785  1.0000
  C   C227      1.0  0.53367  0.76587  0.22938  1.0000
  H   H398      1.0  0.49939  0.77086  0.34642  1.0000
  H   H399      1.0  0.41969  0.77845  0.30799  1.0000
  H   H400      1.0  0.48542  0.77008  0.16908  1.0000
  H   H401      1.0  0.56518  0.76221  0.20722  1.0000
  Fe  Fe33      1.0  0.49819  0.57399  0.04474  1.0000
  H   H402      1.0  0.64478  0.89441  0.42328  1.0000
  H   H403      1.0  0.58147  0.85078  0.41932  1.0000
  C   C228      1.0  0.63271  0.73954  0.43678  1.0000
  H   H404      1.0  0.37610  0.90852  0.35528  1.0000
  H   H405      1.0  0.46176  0.94160  0.19670  1.0000
  C   C229      1.0  0.59153  0.92654  0.28402  1.0000
  H   H406      1.0  0.51644  0.82398  0.06037  1.0000
  C   C230      1.0  0.55282  0.87582  0.40658  1.0000
  H   H407      1.0  0.55932  0.85012  0.33503  1.0000
  H   H408      1.0  0.58333  0.89470  0.21293  1.0000
  C   C231      1.0  0.57831  0.88460  0.25111  1.0000
  C   C232      1.0  0.40312  0.56277  0.28952  1.0000
  S   S72       1.0  0.43847  0.96773  0.04638  1.0000
  H   H409      1.0  0.66583  0.82896  0.05044  1.0000
  C   C233      1.0  0.50840  0.79183  0.04073  1.0000
  H   H410      1.0  0.61119  0.60945  0.38148  1.0000
  H   H411      1.0  0.41093  0.70336  0.34644  1.0000
  H   H412      1.0  0.42652  0.68051  0.27269  1.0000
  S   S73       1.0  0.55668  0.51450  0.37047  1.0000
  N   N18       1.0  0.63694  0.64652  0.44463  1.0000
  H   H413      1.0  0.60045  0.85201  0.25826  1.0000
  H   H414      1.0  0.37215  0.65299  0.26363  1.0000
  C   C234      1.0  0.42726  0.63022  0.21416  1.0000
  H   H415      1.0  0.58507  0.67935  0.49445  1.0000
  C   C235      1.0  0.59775  0.96212  0.36359  1.0000
  Fe  Fe34      1.0  0.66463  0.76289  0.27140  1.0000
  C   C236      1.0  0.55963  0.50996  0.27177  1.0000
  C   C237      1.0  0.41244  0.67363  0.37235  1.0000
  C   C238      1.0  0.37717  0.65189  0.02765  1.0000
  N   N19       1.0  0.42300  0.60999  0.30446  1.0000
  H   H416      1.0  0.52357  0.90258  0.34022  1.0000
  H   H417      1.0  0.55927  0.50942  0.19396  1.0000
  C   C239      1.0  0.46808  0.98335  0.31257  1.0000
  H   H418      1.0  0.62387  0.94198  0.26828  1.0000
  C   C240      1.0  0.50553  0.70465  0.03750  1.0000
  H   H419      1.0  0.54026  0.87630  0.25536  1.0000
  H   H420      1.0  0.44788  0.66991  0.38949  1.0000
  C   C241      1.0  0.47584  0.60262  0.31235  1.0000
  C   C242      1.0  0.50720  0.64607  0.30558  1.0000
  S   S74       1.0  0.45492  0.96558  0.37204  1.0000
  H   H421      1.0  0.48316  0.58821  0.34889  1.0000
  H   H422      1.0  0.49075  0.57534  0.28699  1.0000
  H   H423      1.0  0.51893  0.85764  0.41241  1.0000
  S   S75       1.0  0.46411  0.56678  0.46070  1.0000
  H   H424      1.0  0.50801  0.65813  0.26769  1.0000
  H   H425      1.0  0.54446  0.63559  0.31520  1.0000
  H   H426      1.0  0.49646  0.67655  0.32868  1.0000
  H   H427      1.0  0.60346  0.95753  0.40263  1.0000
  H   H428      1.0  0.35330  0.84378  0.30002  1.0000
  H   H429      1.0  0.43839  0.92095  0.28006  1.0000
  S   S76       1.0  0.51543  0.64930  0.06698  1.0000
  C   C243      1.0  0.55766  0.88579  0.35255  1.0000
  Fe  Fe35      1.0  0.40967  0.51291  0.47744  1.0000
  H   H430      1.0  0.65311  0.97228  0.03597  1.0000
  C   C244      1.0  0.47008  0.96507  0.22630  1.0000
  C   C245      1.0  0.54640  0.65836  0.43212  1.0000
  C   C246      1.0  0.51664  0.74678  0.06198  1.0000
  H   H431      1.0  0.56300  0.95457  0.27927  1.0000
  H   H432      1.0  0.37548  0.88233  0.42878  1.0000
  C   C247      1.0  0.40356  0.52371  0.32846  1.0000
  H   H433      1.0  0.40280  0.60415  0.19848  1.0000
  H   H434      1.0  0.53128  0.74458  0.09790  1.0000
  C   C248      1.0  0.39798  0.62602  0.35012  1.0000
  H   H435      1.0  0.58129  0.61740  0.48816  1.0000
  H   H436      1.0  0.42601  0.66208  0.19038  1.0000
  H   H437      1.0  0.40338  0.59942  0.37925  1.0000
  C   C249      1.0  0.45662  0.95363  0.27361  1.0000
  H   H438      1.0  0.62599  0.57127  0.43050  1.0000
  H   H439      1.0  0.36572  0.56785  0.27699  1.0000
  H   H440      1.0  0.64105  0.84904  0.33172  1.0000
  C   C250      1.0  0.64509  0.88701  0.34238  1.0000
  C   C251      1.0  0.58825  0.65039  0.46735  1.0000
  H   H441      1.0  0.35896  0.62883  0.34417  1.0000
  H   H442      1.0  0.67185  0.90078  0.31725  1.0000
  H   H443      1.0  0.62509  0.74052  0.47566  1.0000
  H   H444      1.0  0.34829  0.91018  0.48065  1.0000
  H   H445      1.0  0.40880  0.63912  0.04848  1.0000
  Fe  Fe36      1.0  0.50338  0.99480  0.08368  1.0000
  H   H446      1.0  0.34663  0.65247  0.05283  1.0000
  C   C252      1.0  0.64889  0.69011  0.41592  1.0000
  H   H447      1.0  0.37322  0.52976  0.35341  1.0000
  H   H448      1.0  0.63263  0.68816  0.37943  1.0000
  H   H449      1.0  0.64412  0.88366  0.02560  1.0000
  H   H450      1.0  0.60126  0.75430  0.41690  1.0000
  C   C253      1.0  0.66890  0.88784  0.39257  1.0000
  H   H451      1.0  0.34376  0.52412  0.20231  1.0000
  H   H452      1.0  0.67085  0.98219  0.34585  1.0000
  C   C254      1.0  0.34269  0.88460  0.45065  1.0000
  H   H453      1.0  0.56192  0.98009  0.36094  1.0000
  H   H454      1.0  0.66600  0.60218  0.50183  1.0000
  C   C255      1.0  0.66410  0.85001  0.01667  1.0000
  S   S77       1.0  0.47797  0.85092  0.96639  1.0000
  N   N20       1.0  0.63515  0.84110  0.92802  1.0000
  S   S78       1.0  0.48941  0.54009  0.97193  1.0000
  C   C256      1.0  0.61042  0.91722  0.88093  1.0000
  H   H455      1.0  0.38525  0.72973  0.90607  1.0000
  H   H456      1.0  0.63270  0.56732  0.95202  1.0000
  H   H457      1.0  0.58587  0.73996  0.87518  1.0000
  H   H458      1.0  0.47936  0.67550  0.97143  1.0000
  Fe  Fe37      1.0  0.49339  0.55229  0.53443  1.0000
  S   S79       1.0  0.50897  0.61816  0.57942  1.0000
  H   H459      1.0  0.61603  0.71192  0.67903  1.0000
  C   C257      1.0  0.56450  0.62874  0.60694  1.0000
  C   C258      1.0  0.60403  0.59757  0.60056  1.0000
  H   H460      1.0  0.46529  0.75520  0.93325  1.0000
  C   C259      1.0  0.37498  0.87036  0.62390  1.0000
  C   C260      1.0  0.61288  0.67996  0.65743  1.0000
  C   C261      1.0  0.56917  0.66996  0.63542  1.0000
  H   H461      1.0  0.60092  0.56563  0.57894  1.0000
  H   H462      1.0  0.41311  0.75290  0.61238  1.0000
  H   H463      1.0  0.40054  0.71551  0.56269  1.0000
  C   C262      1.0  0.60083  0.81143  0.89991  1.0000
  C   C263      1.0  0.41019  0.58600  0.66965  1.0000
  C   C264      1.0  0.38764  0.68442  0.63382  1.0000
  C   C265      1.0  0.64775  0.60766  0.62238  1.0000
  C   C266      1.0  0.63878  0.82065  0.97809  1.0000
  H   H464      1.0  0.39621  0.80816  0.80792  1.0000
  C   C267      1.0  0.38020  0.95682  0.62939  1.0000
  C   C268      1.0  0.48937  0.79507  0.99445  1.0000
  H   H465      1.0  0.36160  0.54986  0.85883  1.0000
  H   H466      1.0  0.53883  0.69438  0.64045  1.0000
  C   C269      1.0  0.48734  0.70775  0.99078  1.0000
  C   C270      1.0  0.36506  0.62118  0.57570  1.0000
  N   N21       1.0  0.36199  0.91330  0.87103  1.0000
  C   C271      1.0  0.63244  0.59649  0.92480  1.0000
  H   H467      1.0  0.35272  0.74631  0.59652  1.0000
  H   H468      1.0  0.40448  0.61561  0.96530  1.0000
  H   H469      1.0  0.64609  0.92227  0.86524  1.0000
  H   H470      1.0  0.58299  0.53020  0.89316  1.0000
  H   H471      1.0  0.39103  0.60380  0.86971  1.0000
  H   H472      1.0  0.57715  0.89126  0.94528  1.0000
  C   C272      1.0  0.34608  0.64609  0.52951  1.0000
  H   H473      1.0  0.60190  0.74216  0.93722  1.0000
  H   H474      1.0  0.42035  0.86030  0.87373  1.0000
  H   H475      1.0  0.36369  0.83663  0.88370  1.0000
  C   C273      1.0  0.38758  0.72673  0.59875  1.0000
  C   C274      1.0  0.38243  0.86331  0.86203  1.0000
  H   H476      1.0  0.58771  0.89893  0.85469  1.0000
  C   C275      1.0  0.37806  0.69113  0.90221  1.0000
  C   C276      1.0  0.37123  0.57563  0.88743  1.0000
  C   C277      1.0  0.38069  0.84521  0.80949  1.0000
  H   H477      1.0  0.43460  0.61150  0.68631  1.0000
  H   H478      1.0  0.55384  0.60553  0.92566  1.0000
  H   H479      1.0  0.36556  0.85739  0.96064  1.0000
  C   C278      1.0  0.35124  0.95613  0.67069  1.0000
  H   H480      1.0  0.42507  0.67016  0.63382  1.0000
  C   C279      1.0  0.35017  0.89447  0.96105  1.0000
  S   S80       1.0  0.49647  0.97970  0.94506  1.0000
  H   H481      1.0  0.41415  0.91349  0.57440  1.0000
  H   H482      1.0  0.64681  0.74624  0.89086  1.0000
  C   C280      1.0  0.58577  0.62645  0.93224  1.0000
  H   H483      1.0  0.56838  0.57272  0.84814  1.0000
  H   H484      1.0  0.39483  0.55548  0.91264  1.0000
  C   C281      1.0  0.37290  0.92585  0.92258  1.0000
  H   H485      1.0  0.36234  0.96334  0.93165  1.0000
  H   H486      1.0  0.41198  0.92378  0.92860  1.0000
  C   C282      1.0  0.65244  0.64887  0.65087  1.0000
  H   H487      1.0  0.66183  0.98757  0.76873  1.0000
  H   H488      1.0  0.56367  0.81816  0.91283  1.0000
  H   H489      1.0  0.59386  0.95342  0.88648  1.0000
  H   H490      1.0  0.38075  0.69958  0.67046  1.0000
  H   H491      1.0  0.40822  0.55544  0.69478  1.0000
  H   H492      1.0  0.60051  0.82136  0.86124  1.0000
  H   H493      1.0  0.42579  0.57177  0.63577  1.0000
  H   H494      1.0  0.58419  0.65877  0.90960  1.0000
  C   C283      1.0  0.61001  0.75683  0.90127  1.0000
  C   C284      1.0  0.39190  0.91361  0.60607  1.0000
  H   H495      1.0  0.40198  0.86683  0.78481  1.0000
  H   H496      1.0  0.41065  0.67218  0.91508  1.0000
  H   H497      1.0  0.40421  0.61583  0.57137  1.0000
  C   C285      1.0  0.37011  0.61792  0.98454  1.0000
  C   C286      1.0  0.47945  0.75286  0.96931  1.0000
  H   H498      1.0  0.63295  0.91473  0.95420  1.0000
  H   H499      1.0  0.37127  0.94423  0.80034  1.0000
  H   H500      1.0  0.64569  0.68329  0.54210  1.0000
  H   H501      1.0  0.37278  0.68330  0.86349  1.0000
  C   C287      1.0  0.61362  0.89124  0.92972  1.0000
  H   H502      1.0  0.34898  0.62443  0.69805  1.0000
  H   H503      1.0  0.42491  0.93564  0.83360  1.0000
  S   S81       1.0  0.43474  0.50303  0.55339  1.0000
  C   C288      1.0  0.38651  0.94653  0.83724  1.0000
  H   H504      1.0  0.34383  0.84358  0.79578  1.0000
  H   H505      1.0  0.58387  0.63882  0.97028  1.0000
  C   C289      1.0  0.59770  0.54825  0.86118  1.0000
  H   H506      1.0  0.36574  0.58141  0.99913  1.0000
  N   N22       1.0  0.35373  0.64527  0.62322  1.0000
  C   C290      1.0  0.34602  0.86955  0.66511  1.0000
  H   H507      1.0  0.38443  0.83730  0.60550  1.0000
  H   H508      1.0  0.65798  0.78515  0.97745  1.0000
  H   H509      1.0  0.61306  0.63893  0.83773  1.0000
  N   N23       1.0  0.64072  0.57607  0.87494  1.0000
  H   H510      1.0  0.35110  0.58451  0.57517  1.0000
  H   H511      1.0  0.35798  0.90927  0.99717  1.0000
  C   C291      1.0  0.35973  0.60859  0.66270  1.0000
  H   H512      1.0  0.60253  0.81448  0.99249  1.0000
  Fe  Fe38      1.0  0.49044  0.92303  0.00158  1.0000
  H   H513      1.0  0.62131  0.52083  0.78965  1.0000
  H   H514      1.0  0.66146  0.62030  0.93539  1.0000
  S   S82       1.0  0.50372  0.97800  0.50661  1.0000
  H   H515      1.0  0.63030  0.59984  0.76567  1.0000
  C   C292      1.0  0.64680  0.61721  0.84099  1.0000
  C   C293      1.0  0.60473  0.50839  0.82305  1.0000
  H   H516      1.0  0.67197  0.64327  0.85553  1.0000
  C   C294      1.0  0.66179  0.60496  0.78896  1.0000
  H   H517      1.0  0.34190  0.98935  0.68897  1.0000
  Fe  Fe39      1.0  0.71198  0.17145  0.25732  1.0000
  S   S83       1.0  0.83429  0.01052  0.46574  1.0000
  S   S84       1.0  0.71047  0.09517  0.22910  1.0000
  Fe  Fe40      1.0  0.72479  0.25300  0.32791  1.0000
  S   S85       1.0  0.70491  0.30931  0.27286  1.0000
  S   S86       1.0  0.74076  0.28394  0.40253  1.0000
  Fe  Fe41      1.0  0.75017  0.26711  0.22044  1.0000
  S   S87       1.0  0.78624  0.29320  0.15223  1.0000
  S   S88       1.0  0.77576  0.21387  0.27613  1.0000
  H   H518      1.0  0.69429  0.22231  0.08931  1.0000
  S   S89       1.0  0.94127  0.45024  0.11711  1.0000
  H   H519      1.0  0.87802  0.27260  0.37838  1.0000
  C   C295      1.0  0.87082  0.23398  0.37491  1.0000
  H   H520      1.0  0.87427  0.09384  0.42794  1.0000
  C   C296      1.0  0.99878  0.31197  0.49100  1.0000
  C   C297      1.0  0.85778  0.21496  0.42459  1.0000
  S   S90       1.0  0.96344  0.05646  0.45950  1.0000
  H   H521      1.0  0.90388  0.21613  0.36101  1.0000
  H   H522      1.0  0.96102  0.28091  0.43191  1.0000
  H   H523      1.0  0.68818  0.34861  0.17579  1.0000
  H   H524      1.0  0.89960  0.99991  0.19147  1.0000
  C   C298      1.0  0.79693  0.15986  0.39755  1.0000
  H   H525      1.0  0.71032  0.40341  0.15715  1.0000
  H   H526      1.0  0.83011  0.24005  0.44008  1.0000
  C   C299      1.0  0.98443  0.22649  0.48252  1.0000
  N   N24       1.0  0.84163  0.16427  0.42689  1.0000
  C   C300      1.0  0.75553  0.07915  0.09655  1.0000
  S   S91       1.0  0.68950  0.22222  0.19873  1.0000
  H   H527      1.0  0.73782  0.04490  0.09014  1.0000
  H   H528      1.0  0.84134  0.23148  0.34902  1.0000
  C   C301      1.0  0.82894  0.33746  0.14327  1.0000
  C   C302      1.0  0.84544  0.34567  0.09636  1.0000
  C   C303      1.0  0.87952  0.38024  0.08742  1.0000
  C   C304      1.0  0.89734  0.40711  0.12541  1.0000
  C   C305      1.0  0.88064  0.39905  0.17225  1.0000
  C   C306      1.0  0.84663  0.36448  0.18119  1.0000
  H   H529      1.0  0.83192  0.32503  0.06673  1.0000
  H   H530      1.0  0.89203  0.38599  0.05124  1.0000
  H   H531      1.0  0.89420  0.41963  0.20191  1.0000
  H   H532      1.0  0.83425  0.35868  0.21741  1.0000
  S   S92       1.0  0.99231  0.37092  0.46798  1.0000
  C   C307      1.0  0.73035  0.26008  0.46080  1.0000
  C   C308      1.0  0.70677  0.21748  0.46768  1.0000
  C   C309      1.0  0.82960  0.15461  0.47882  1.0000
  S   S93       1.0  0.00403  0.06570  0.09756  1.0000
  C   C310      1.0  0.75873  0.03750  0.29581  1.0000
  C   C311      1.0  0.72936  0.04020  0.25528  1.0000
  H   H533      1.0  0.75200  0.11347  0.44060  1.0000
  H   H534      1.0  0.77122  0.06990  0.31167  1.0000
  H   H535      1.0  0.79264  0.08145  0.39992  1.0000
  H   H536      1.0  0.91552  0.14076  0.42380  1.0000
  H   H537      1.0  0.78813  0.16662  0.07158  1.0000
  H   H538      1.0  0.77188  0.19003  0.40506  1.0000
  H   H539      1.0  0.75572  0.17074  0.12515  1.0000
  H   H540      1.0  0.87553  0.14791  0.33255  1.0000
  H   H541      1.0  0.97022  0.19727  0.46239  1.0000
  H   H542      1.0  0.72648  0.36353  0.08906  1.0000
  C   C312      1.0  0.88037  0.12900  0.41113  1.0000
  N   N25       1.0  0.72746  0.12042  0.07427  1.0000
  H   H543      1.0  0.70990  0.44775  0.08794  1.0000
  Fe  Fe42      1.0  0.98625  0.01936  0.03200  1.0000
  H   H544      1.0  0.82311  0.03951  0.09912  1.0000
  H   H545      1.0  0.74016  0.11285  0.37812  1.0000
  C   C313      1.0  0.74856  0.28358  0.50122  1.0000
  H   H546      1.0  0.80366  0.16266  0.35870  1.0000
  H   H547      1.0  0.97701  0.34375  0.15233  1.0000
  H   H548      1.0  0.92206  0.10634  0.34876  1.0000
  H   H549      1.0  0.98011  0.31421  0.09588  1.0000
  C   C314      1.0  0.72550  0.21222  0.06664  1.0000
  H   H550      1.0  0.88996  0.21959  0.44675  1.0000
  H   H551      1.0  0.80752  0.05837  0.04038  1.0000
  C   C315      1.0  0.69009  0.01266  0.47730  1.0000
  H   H552      1.0  0.86332  0.08647  0.34723  1.0000
  H   H553      1.0  0.69175  0.19918  0.43723  1.0000
  C   C316      1.0  0.77583  0.02088  0.48813  1.0000
  H   H554      1.0  0.75725  0.08372  0.13631  1.0000
  C   C317      1.0  0.76943  0.11396  0.40484  1.0000
  C   C318      1.0  0.88466  0.11778  0.35673  1.0000
  H   H555      1.0  0.68279  0.13238  0.13714  1.0000
  H   H556      1.0  0.79836  0.17724  0.49044  1.0000
  H   H557      1.0  0.82973  0.10058  0.08447  1.0000
  H   H558      1.0  0.75005  0.24226  0.06855  1.0000
  C   C319      1.0  0.97963  0.27378  0.46527  1.0000
  H   H559      1.0  0.69264  0.99944  0.20197  1.0000
  H   H560      1.0  0.69441  0.39753  0.01563  1.0000
  C   C320      1.0  0.80679  0.06987  0.07856  1.0000
  H   H561      1.0  0.81932  0.11705  0.48358  1.0000
  C   C321      1.0  0.75138  0.16645  0.08551  1.0000
  Fe  Fe43      1.0  0.90609  0.02104  0.50118  1.0000
  Fe  Fe44      1.0  0.98121  0.47924  0.05232  1.0000
  H   H562      1.0  0.76604  0.31696  0.49653  1.0000
  C   C322      1.0  0.71505  0.99775  0.23361  1.0000
  H   H563      1.0  0.00605  0.10208  0.29424  1.0000
  H   H564      1.0  0.69122  0.31339  0.08683  1.0000
  C   C323      1.0  0.67924  0.12337  0.09833  1.0000
  C   C324      1.0  0.73726  0.00433  0.46141  1.0000
  H   H565      1.0  0.71401  0.20897  0.02875  1.0000
  H   H566      1.0  0.71380  0.07437  0.01437  1.0000
  C   C325      1.0  0.67672  0.38402  0.16071  1.0000
  H   H567      1.0  0.70994  0.33592  0.00621  1.0000
  C   C326      1.0  0.72039  0.11242  0.02112  1.0000
  C   C327      1.0  0.68477  0.36081  0.02549  1.0000
  C   C328      1.0  0.68979  0.35259  0.08020  1.0000
  C   C329      1.0  0.00172  0.32425  0.12754  1.0000
  H   H568      1.0  0.68766  0.13221  0.00840  1.0000
  Fe  Fe45      1.0  0.70836  0.25143  0.78324  1.0000
  S   S94       1.0  0.77415  0.22721  0.82353  1.0000
  H   H569      1.0  0.71776  0.02666  0.90871  1.0000
  Fe  Fe46      1.0  0.74640  0.21041  0.68681  1.0000
  S   S95       1.0  0.81518  0.18286  0.72017  1.0000
  H   H570      1.0  0.68715  0.16358  0.51848  1.0000
  Fe  Fe47      1.0  0.77067  0.15832  0.78176  1.0000
  S   S96       1.0  0.79219  0.08877  0.81913  1.0000
  Fe  Fe48      1.0  0.81429  0.25309  0.75945  1.0000
  S   S97       1.0  0.87892  0.29803  0.77142  1.0000
  S   S98       1.0  0.70208  0.18022  0.74608  1.0000
  S   S99       1.0  0.74838  0.28304  0.72162  1.0000
  Fe  Fe49      1.0  0.98677  0.08617  0.53018  1.0000
  C   C330      1.0  0.98622  0.47218  0.81717  1.0000
  S   S100      1.0  0.92561  0.05604  0.57105  1.0000
  C   C331      1.0  0.76093  0.12658  0.98698  1.0000
  H   H571      1.0  0.93506  0.28738  0.67136  1.0000
  H   H572      1.0  0.90979  0.29686  0.54092  1.0000
  S   S101      1.0  0.96471  0.05168  0.85556  1.0000
  C   C332      1.0  0.71967  0.05543  0.54604  1.0000
  C   C333      1.0  0.88682  0.32967  0.53913  1.0000
  H   H573      1.0  0.84234  0.31063  0.67910  1.0000
  C   C334      1.0  0.67974  0.00107  0.97022  1.0000
  H   H574      1.0  0.85819  0.14790  0.55119  1.0000
  C   C335      1.0  0.68107  0.03797  0.51997  1.0000
  H   H575      1.0  0.79588  0.06095  0.55068  1.0000
  H   H576      1.0  0.75084  0.15989  0.96735  1.0000
  H   H577      1.0  0.92285  0.40600  0.65953  1.0000
  C   C336      1.0  0.89003  0.16767  0.97307  1.0000
  C   C337      1.0  0.95642  0.04978  0.75725  1.0000
  H   H578      1.0  0.88587  0.12853  0.87104  1.0000
  H   H579      1.0  0.95606  0.05001  0.67955  1.0000
  H   H580      1.0  0.86345  0.16399  0.82248  1.0000
  S   S102      1.0  0.92204  0.04047  0.98736  1.0000
  H   H581      1.0  0.85641  0.06462  0.70166  1.0000
  H   H582      1.0  0.94887  0.08784  0.76024  1.0000
  H   H583      1.0  0.76581  0.09873  0.95860  1.0000
  C   C338      1.0  0.93825  0.27544  0.76494  1.0000
  C   C339      1.0  0.94855  0.22768  0.75267  1.0000
  C   C340      1.0  0.97592  0.30618  0.77229  1.0000
  H   H584      1.0  0.91994  0.20371  0.74646  1.0000
  H   H585      1.0  0.96830  0.34327  0.78162  1.0000
  C   C341      1.0  0.76491  0.03390  0.80839  1.0000
  C   C342      1.0  0.95594  0.29445  0.89997  1.0000
  C   C343      1.0  0.71849  0.03259  0.79090  1.0000
  H   H586      1.0  0.71323  0.07653  0.57816  1.0000
  H   H587      1.0  0.99070  0.36052  0.61479  1.0000
  C   C344      1.0  0.72408  0.21988  0.55406  1.0000
  C   C345      1.0  0.74523  0.26380  0.54760  1.0000
  H   H588      1.0  0.94337  0.28269  0.60892  1.0000
  H   H589      1.0  0.75943  0.28228  0.57821  1.0000
  H   H590      1.0  0.81709  0.24390  0.63055  1.0000
  C   C346      1.0  0.83211  0.04417  0.67851  1.0000
  H   H591      1.0  0.69316  0.41568  0.91507  1.0000
  H   H592      1.0  0.85967  0.25424  0.58536  1.0000
  H   H593      1.0  0.83743  0.43012  0.64221  1.0000
  H   H594      1.0  0.86042  0.15839  0.94884  1.0000
  H   H595      1.0  0.87833  0.23723  0.64514  1.0000
  C   C347      1.0  0.99609  0.21050  0.74946  1.0000
  C   C348      1.0  0.98550  0.33489  0.64408  1.0000
  H   H596      1.0  0.81858  0.33003  0.62323  1.0000
  S   S103      1.0  0.93997  0.48880  0.52775  1.0000
  N   N26       1.0  0.94428  0.20348  0.90862  1.0000
  C   C349      1.0  0.96325  0.02244  0.79909  1.0000
  C   C350      1.0  0.70402  0.19740  0.51393  1.0000
  C   C351      1.0  0.84838  0.41077  0.67524  1.0000
  C   C352      1.0  0.89313  0.36311  0.58254  1.0000
  H   H597      1.0  0.79571  0.05916  0.68578  1.0000
  H   H598      1.0  0.85452  0.43842  0.70313  1.0000
  H   H599      1.0  0.69810  0.06564  0.78611  1.0000
  H   H600      1.0  0.94299  0.12929  0.93057  1.0000
  H   H601      1.0  0.92473  0.38485  0.57606  1.0000
  H   H602      1.0  0.87586  0.20044  0.52170  1.0000
  C   C353      1.0  0.93815  0.16579  0.94637  1.0000
  H   H603      1.0  0.96624  0.16785  0.97437  1.0000
  C   C354      1.0  0.89435  0.15827  0.84675  1.0000
  H   H604      1.0  0.86297  0.38967  0.57978  1.0000
  H   H605      1.0  0.90480  0.36604  0.70452  1.0000
  C   C355      1.0  0.89498  0.38039  0.66850  1.0000
  S   S104      1.0  0.72396  0.19012  0.61041  1.0000
  H   H606      1.0  0.88205  0.20263  0.99058  1.0000
  C   C356      1.0  0.76677  0.04678  0.53041  1.0000
  C   C357      1.0  0.94964  0.49241  0.72425  1.0000
  H   H607      1.0  0.92480  0.14738  0.82348  1.0000
  C   C358      1.0  0.85039  0.31211  0.64008  1.0000
  H   H608      1.0  0.00008  0.43822  0.69949  1.0000
  H   H609      1.0  0.84189  0.05049  0.64060  1.0000
  C   C359      1.0  0.94637  0.25158  0.93296  1.0000
  C   C360      1.0  0.93843  0.30910  0.63847  1.0000
  C   C361      1.0  0.90305  0.20513  0.87409  1.0000
  H   H610      1.0  0.81879  0.38945  0.68859  1.0000
  C   C362      1.0  0.98934  0.19119  0.88116  1.0000
  H   H611      1.0  0.00352  0.17322  0.74120  1.0000
  C   C363      1.0  0.96068  0.02843  0.71143  1.0000
  H   H612      1.0  0.97164  0.32345  0.92147  1.0000
  H   H613      1.0  0.99025  0.15318  0.86911  1.0000
  H   H614      1.0  0.86939  0.21681  0.89232  1.0000
  N   N27       1.0  0.89419  0.34055  0.63163  1.0000
  H   H615      1.0  0.98748  0.35352  0.67926  1.0000
  C   C364      1.0  0.98541  0.45706  0.73041  1.0000
  C   C365      1.0  0.85227  0.25915  0.62390  1.0000
  H   H616      1.0  0.90820  0.23267  0.84639  1.0000
  H   H617      1.0  0.70573  0.34709  0.85880  1.0000
  H   H618      1.0  0.91196  0.26117  0.95074  1.0000
  C   C366      1.0  0.72070  0.00783  0.94255  1.0000
  H   H619      1.0  0.79723  0.99754  0.93793  1.0000
  H   H620      1.0  0.97237  0.25118  0.96315  1.0000
  H   H621      1.0  0.92265  0.30848  0.88270  1.0000
  H   H622      1.0  0.99091  0.21188  0.84739  1.0000
  H   H623      1.0  0.89833  0.34801  0.50608  1.0000
  H   H624      1.0  0.84910  0.32031  0.53471  1.0000
  C   C367      1.0  0.86948  0.16206  0.51591  1.0000
  Fe  Fe50      1.0  0.96282  0.00871  0.92435  1.0000
  H   H625      1.0  0.76067  0.00847  0.63516  1.0000
  C   C368      1.0  0.00329  0.44675  0.77661  1.0000
  H   H626      1.0  0.98238  0.28599  0.87160  1.0000
  Fe  Fe51      1.0  0.00318  0.43946  0.51077  1.0000
  H   H627      1.0  0.89130  0.14069  0.00217  1.0000
  H   H628      1.0  0.90319  0.14290  0.50585  1.0000
  H   H629      1.0  0.79596  0.13018  0.00397  1.0000
  Fe  Fe52      1.0  0.76295  0.71495  0.28565  1.0000
  S   S105      1.0  0.71945  0.76726  0.32981  1.0000
  S   S106      1.0  0.79343  0.64407  0.31362  1.0000
  Fe  Fe53      1.0  0.74052  0.76883  0.19233  1.0000
  S   S107      1.0  0.76907  0.78316  0.11757  1.0000
  Fe  Fe54      1.0  0.75037  0.82509  0.28534  1.0000
  S   S108      1.0  0.77405  0.89412  0.31967  1.0000
  S   S109      1.0  0.79970  0.77284  0.24660  1.0000
  S   S110      1.0  0.70660  0.70705  0.22895  1.0000
  H   H630      1.0  0.93120  0.84696  0.10167  1.0000
  H   H631      1.0  0.88012  0.88481  0.08814  1.0000
  S   S111      1.0  0.96542  0.61615  0.46070  1.0000
  S   S112      1.0  0.95873  0.94665  0.04707  1.0000
  S   S113      1.0  0.96574  0.65264  0.03656  1.0000
  H   H632      1.0  0.90991  0.57845  0.12127  1.0000
  Fe  Fe55      1.0  0.99901  0.58043  0.01609  1.0000
  N   N28       1.0  0.87552  0.90098  0.18468  1.0000
  C   C369      1.0  0.84034  0.63743  0.35570  1.0000
  C   C370      1.0  0.85345  0.59141  0.37220  1.0000
  C   C371      1.0  0.89138  0.58433  0.40474  1.0000
  C   C372      1.0  0.91661  0.62332  0.42094  1.0000
  C   C373      1.0  0.90328  0.66939  0.40473  1.0000
  C   C374      1.0  0.86519  0.67650  0.37235  1.0000
  H   H633      1.0  0.83445  0.56098  0.35938  1.0000
  H   H634      1.0  0.90143  0.54868  0.41681  1.0000
  H   H635      1.0  0.92267  0.69974  0.41707  1.0000
  H   H636      1.0  0.85544  0.71208  0.35989  1.0000
  C   C375      1.0  0.75732  0.95015  0.29400  1.0000
  H   H637      1.0  0.89277  0.54526  0.21044  1.0000
  C   C376      1.0  0.72893  0.95306  0.25281  1.0000
  H   H638      1.0  0.85079  0.94874  0.12751  1.0000
  H   H639      1.0  0.71712  0.92098  0.23581  1.0000
  C   C377      1.0  0.75828  0.75869  0.06000  1.0000
  C   C378      1.0  0.72878  0.95970  0.02980  1.0000
  S   S114      1.0  0.69321  0.82425  0.22962  1.0000
  H   H640      1.0  0.87011  0.61795  0.04960  1.0000
  H   H641      1.0  0.79477  0.99080  0.34703  1.0000
  H   H642      1.0  0.85613  0.73730  0.15858  1.0000
  H   H643      1.0  0.76749  0.61429  0.20667  1.0000
  H   H644      1.0  0.85909  0.55604  0.05318  1.0000
  H   H645      1.0  0.69982  0.62125  0.36693  1.0000
  H   H646      1.0  0.90581  0.83076  0.25736  1.0000
  C   C379      1.0  0.73038  0.71895  0.05314  1.0000
  H   H647      1.0  0.81302  0.59837  0.07006  1.0000
  H   H648      1.0  0.85238  0.92944  0.25398  1.0000
  C   C380      1.0  0.87969  0.85249  0.16097  1.0000
  H   H649      1.0  0.77767  0.88664  0.17898  1.0000
  H   H650      1.0  0.92308  0.74683  0.03901  1.0000
  H   H651      1.0  0.88373  0.86672  0.30586  1.0000
  C   C381      1.0  0.86167  0.89450  0.23643  1.0000
  H   H652      1.0  0.71376  0.70265  0.08367  1.0000
  H   H653      1.0  0.73953  0.62403  0.14899  1.0000
  H   H654      1.0  0.78218  0.57695  0.15521  1.0000
  H   H655      1.0  0.91706  0.74231  0.14321  1.0000
  C   C382      1.0  0.89858  0.86825  0.26890  1.0000
  C   C383      1.0  0.77942  0.77962  0.01992  1.0000
  H   H656      1.0  0.73147  0.94075  0.06344  1.0000
  H   H657      1.0  0.67874  0.56260  0.35845  1.0000
  H   H658      1.0  0.93222  0.88734  0.27177  1.0000
  C   C384      1.0  0.86983  0.57399  0.22706  1.0000
  S   S115      1.0  0.82528  0.94780  0.02715  1.0000
  H   H659      1.0  0.93134  0.93053  0.14247  1.0000
  C   C385      1.0  0.97541  0.79468  0.01317  1.0000
  Fe  Fe56      1.0  0.98490  0.54767  0.50083  1.0000
  H   H660      1.0  0.82882  0.87399  0.23853  1.0000
  H   H661      1.0  0.83216  0.56457  0.22486  1.0000
  C   C386      1.0  0.89221  0.85196  0.10696  1.0000
  H   H662      1.0  0.70968  0.63109  0.46727  1.0000
  H   H663      1.0  0.83484  0.58674  0.49059  1.0000
  H   H664      1.0  0.84702  0.83201  0.16620  1.0000
  C   C387      1.0  0.77249  0.99261  0.31528  1.0000
  H   H665      1.0  0.76283  0.93668  0.14164  1.0000
  C   C388      1.0  0.68496  0.59055  0.38603  1.0000
  H   H666      1.0  0.68757  0.85277  0.39883  1.0000
  H   H667      1.0  0.90799  0.82993  0.17843  1.0000
  H   H668      1.0  0.69727  0.91433  0.39345  1.0000
  C   C389      1.0  0.83764  0.93263  0.16120  1.0000
  H   H669      1.0  0.92096  0.97038  0.24568  1.0000
  H   H670      1.0  0.71166  0.57485  0.41130  1.0000
  C   C390      1.0  0.68407  0.97691  0.01388  1.0000
  H   H671      1.0  0.91853  0.62669  0.20770  1.0000
  C   C391      1.0  0.92570  0.97315  0.20626  1.0000
  N   N29       1.0  0.86244  0.63208  0.15399  1.0000
  C   C392      1.0  0.89221  0.67066  0.13321  1.0000
  C   C393      1.0  0.87107  0.58796  0.12321  1.0000
  C   C394      1.0  0.87929  0.62314  0.20496  1.0000
  C   C395      1.0  0.81123  0.64990  0.15334  1.0000
  C   C396      1.0  0.89148  0.71866  0.16071  1.0000
  C   C397      1.0  0.85198  0.59107  0.07123  1.0000
  C   C398      1.0  0.95934  0.74980  0.02684  1.0000
  C   C399      1.0  0.77357  0.61391  0.16721  1.0000
  H   H672      1.0  0.93018  0.65799  0.13085  1.0000
  H   H673      1.0  0.88090  0.67972  0.09595  1.0000
  H   H674      1.0  0.85516  0.55598  0.13882  1.0000
  H   H675      1.0  0.86344  0.65059  0.22996  1.0000
  H   H676      1.0  0.80577  0.68046  0.17870  1.0000
  H   H677      1.0  0.80118  0.66588  0.11798  1.0000
  H   H678      1.0  0.90262  0.71466  0.19873  1.0000
  H   H679      1.0  0.87400  0.82236  0.08871  1.0000
  H   H680      1.0  0.95211  0.90031  0.19406  1.0000
  H   H681      1.0  0.79458  0.88606  0.11634  1.0000
  C   C400      1.0  0.92260  0.92432  0.18074  1.0000
  C   C401      1.0  0.79070  0.90860  0.14915  1.0000
  H   H682      1.0  0.80095  0.81050  0.02485  1.0000
  H   H683      1.0  0.82798  0.96396  0.18456  1.0000
  H   H684      1.0  0.87919  0.57490  0.26586  1.0000
  H   H685      1.0  0.70129  0.85697  0.00735  1.0000
  C   C402      1.0  0.98934  0.70863  0.02322  1.0000
  H   H686      1.0  0.74394  0.98478  0.42828  1.0000
  H   H687      1.0  0.95168  0.82597  0.01478  1.0000
  H   H688      1.0  0.96157  0.98718  0.19997  1.0000
  H   H689      1.0  0.68794  0.69071  0.40954  1.0000
  C   C403      1.0  0.72420  0.70015  0.00654  1.0000
  C   C404      1.0  0.67362  0.63623  0.48317  1.0000
  C   C405      1.0  0.72017  0.87413  0.91757  1.0000
  H   H690      1.0  0.79229  0.63707  0.55192  1.0000
  H   H691      1.0  0.84131  0.65378  0.69999  1.0000
  C   C406      1.0  0.83745  0.61134  0.63285  1.0000
  H   H692      1.0  0.93457  0.52501  0.84244  1.0000
  H   H693      1.0  0.78938  0.77755  0.94296  1.0000
  H   H694      1.0  0.85382  0.71263  0.64411  1.0000
  S   S116      1.0  0.93330  0.93559  0.93185  1.0000
  H   H695      1.0  0.88852  0.58692  0.52456  1.0000
  H   H696      1.0  0.87984  0.62663  0.95492  1.0000
  H   H697      1.0  0.92195  0.61368  0.59302  1.0000
  H   H698      1.0  0.68178  0.63508  0.77437  1.0000
  Fe  Fe57      1.0  0.82627  0.75604  0.76006  1.0000
  S   S117      1.0  0.79640  0.79840  0.82336  1.0000
  S   S118      1.0  0.89981  0.73890  0.72863  1.0000
  Fe  Fe58      1.0  0.72907  0.71776  0.73025  1.0000
  H   H699      1.0  0.83508  0.59115  0.70814  1.0000
  Fe  Fe59      1.0  0.73671  0.81874  0.77266  1.0000
  H   H700      1.0  0.88020  0.96477  0.61672  1.0000
  Fe  Fe60      1.0  0.75252  0.73444  0.83836  1.0000
  S   S119      1.0  0.73678  0.69655  0.90855  1.0000
  S   S120      1.0  0.76973  0.78158  0.70816  1.0000
  S   S121      1.0  0.78690  0.69062  0.77962  1.0000
  H   H701      1.0  0.79078  0.72782  0.55493  1.0000
  Fe  Fe61      1.0  0.89750  0.96621  0.99800  1.0000
  C   C407      1.0  0.94885  0.50613  0.81137  1.0000
  C   C408      1.0  0.85237  0.61820  0.68570  1.0000
  H   H702      1.0  0.86675  0.88252  0.59540  1.0000
  Fe  Fe62      1.0  0.97583  0.49904  0.59933  1.0000
  C   C409      1.0  0.83085  0.69705  0.61611  1.0000
  S   S122      1.0  0.69105  0.75670  0.79071  1.0000
  H   H703      1.0  0.85302  0.57572  0.62233  1.0000
  H   H704      1.0  0.79808  0.60798  0.63235  1.0000
  C   C410      1.0  0.77047  0.94650  0.80633  1.0000
  C   C411      1.0  0.72451  0.94538  0.78726  1.0000
  H   H705      1.0  0.74916  0.85645  0.93877  1.0000
  H   H706      1.0  0.79104  0.91358  0.81188  1.0000
  C   C412      1.0  0.84302  0.91084  0.57962  1.0000
  H   H707      1.0  0.99199  0.74743  0.85627  1.0000
  C   C413      1.0  0.74528  0.72128  0.96648  1.0000
  C   C414      1.0  0.77281  0.76114  0.97338  1.0000
  C   C415      1.0  0.89401  0.62779  0.91768  1.0000
  H   H708      1.0  0.93620  0.68130  0.94977  1.0000
  H   H709      1.0  0.67781  0.84169  0.86308  1.0000
  N   N30       1.0  0.85202  0.64966  0.59839  1.0000
  H   H710      1.0  0.86641  0.85108  0.70678  1.0000
  C   C416      1.0  0.67909  0.67478  0.52229  1.0000
  H   H711      1.0  0.89127  0.61226  0.69030  1.0000
  H   H712      1.0  0.97235  0.68098  0.80157  1.0000
  H   H713      1.0  0.69620  0.95432  0.61874  1.0000
  C   C417      1.0  0.95501  0.76316  0.74391  1.0000
  C   C418      1.0  0.95823  0.80326  0.77370  1.0000
  C   C419      1.0  0.79020  0.99067  0.81776  1.0000
  H   H714      1.0  0.92629  0.82172  0.78676  1.0000
  H   H715      1.0  0.98045  0.62894  0.83771  1.0000
  H   H716      1.0  0.80755  0.89654  0.57344  1.0000
  H   H717      1.0  0.70275  0.66930  0.00158  1.0000
  H   H718      1.0  0.73653  0.88929  0.88501  1.0000
  N   N31       1.0  0.94595  0.68948  0.87396  1.0000
  C   C420      1.0  0.95510  0.65937  0.82960  1.0000
  H   H719      1.0  0.91134  0.68628  0.52752  1.0000
  C   C421      1.0  0.90486  0.72493  0.86646  1.0000
  C   C422      1.0  0.93816  0.65883  0.91718  1.0000
  C   C423      1.0  0.91215  0.63766  0.80467  1.0000
  H   H720      1.0  0.81092  0.77042  0.59744  1.0000
  C   C424      1.0  0.89549  0.76136  0.90770  1.0000
  S   S123      1.0  0.69913  0.89159  0.76821  1.0000
  H   H721      1.0  0.67926  0.51476  0.90477  1.0000
  C   C425      1.0  0.97254  0.97316  0.79474  1.0000
  H   H722      1.0  0.74465  0.94583  0.57870  1.0000
  H   H723      1.0  0.98507  0.91391  0.74582  1.0000
  H   H724      1.0  0.91053  0.74577  0.83335  1.0000
  H   H725      1.0  0.87087  0.70739  0.86028  1.0000
  H   H726      1.0  0.96930  0.63405  0.92355  1.0000
  H   H727      1.0  0.99447  0.61924  0.70997  1.0000
  H   H728      1.0  0.92467  0.62147  0.77029  1.0000
  H   H729      1.0  0.89669  0.60866  0.82550  1.0000
  H   H730      1.0  0.88444  0.66473  0.79491  1.0000
  Fe  Fe63      1.0  0.97502  0.99208  0.58041  1.0000
  C   C426      1.0  0.76581  0.99150  0.95913  1.0000
  S   S124      1.0  0.70890  0.66048  0.67581  1.0000
  H   H731      1.0  0.88677  0.74379  0.94201  1.0000
  H   H732      1.0  0.86437  0.78492  0.89849  1.0000
  H   H733      1.0  0.92537  0.78557  0.91293  1.0000
  S   S125      1.0  0.94963  0.52334  0.99202  1.0000
  H   H734      1.0  0.86391  0.64152  0.89565  1.0000
  H   H735      1.0  0.96561  0.67123  0.55545  1.0000
  N   N32       1.0  0.81509  0.95601  0.65745  1.0000
  H   H736      1.0  0.85759  0.91900  0.54364  1.0000
  C   C427      1.0  0.81712  0.90748  0.68095  1.0000
  C   C428      1.0  0.93003  0.51545  0.76510  1.0000
  C   C429      1.0  0.97172  0.97945  0.70713  1.0000
  H   H737      1.0  0.89505  0.89578  0.67252  1.0000
  C   C430      1.0  0.86663  0.88998  0.69913  1.0000
  C   C431      1.0  0.73392  0.94127  0.61671  1.0000
  C   C432      1.0  0.97675  0.95184  0.74892  1.0000
  H   H738      1.0  0.83638  0.55839  0.54755  1.0000
  C   C433      1.0  0.84218  0.95683  0.61060  1.0000
  H   H739      1.0  0.80403  0.87939  0.65667  1.0000
  H   H740      1.0  0.79273  0.90722  0.71245  1.0000
  H   H741      1.0  0.87582  0.90809  0.73334  1.0000
  H   H742      1.0  0.70629  0.90498  0.93848  1.0000
  H   H743      1.0  0.82830  0.98649  0.58749  1.0000
  H   H744      1.0  0.69964  0.80184  0.90694  1.0000
  Fe  Fe64      1.0  0.99625  0.92183  0.98026  1.0000
  C   C434      1.0  0.84931  0.58948  0.52761  1.0000
  H   H745      1.0  0.90086  0.54126  0.76077  1.0000
  C   C435      1.0  0.92870  0.68459  0.56311  1.0000
  H   H746      1.0  0.79599  0.69222  0.63401  1.0000
  H   H747      1.0  0.91887  0.66076  0.63430  1.0000
  C   C436      1.0  0.83180  0.63752  0.54978  1.0000
  H   H748      1.0  0.85259  0.74364  0.55624  1.0000
  C   C437      1.0  0.82115  0.73655  0.57847  1.0000
  S   S126      1.0  0.98026  0.95152  0.65046  1.0000
  C   C438      1.0  0.68450  0.54328  0.87766  1.0000
  H   H749      1.0  0.93008  0.72106  0.57885  1.0000
  C   C439      1.0  0.00315  0.81958  0.78679  1.0000
  H   H750      1.0  0.98797  0.73585  0.91858  1.0000
  H   H751      1.0  0.90371  0.59058  0.90639  1.0000
  H   H752      1.0  0.73461  0.90308  0.62688  1.0000
  C   C440      1.0  0.99695  0.74020  0.72665  1.0000
  C   C441      1.0  0.90555  0.65014  0.59826  1.0000
  H   H753      1.0  0.69403  0.70761  0.50735  1.0000
  H   H754      1.0  0.68666  0.57366  0.78565  1.0000
  H   H755      1.0  0.99474  0.70971  0.70289  1.0000
  H   H756      1.0  0.97805  0.95166  0.82660  1.0000
  H   H757      1.0  0.76099  0.54009  0.88890  1.0000
  C   C442      1.0  0.98975  0.71800  0.88288  1.0000
  H   H758      1.0  0.82108  0.98742  0.72837  1.0000
  H   H759      1.0  0.87527  0.98245  0.69666  1.0000
  C   C443      1.0  0.76372  0.97189  0.65046  1.0000
  C   C444      1.0  0.73136  0.56745  0.89002  1.0000
  S   S127      1.0  0.95134  0.95443  0.51320  1.0000
  H   H760      1.0  0.69128  0.52353  0.84361  1.0000
  H   H761      1.0  0.73991  0.59533  0.86357  1.0000
  H   H762      1.0  0.70495  0.66110  0.54958  1.0000
  C   C445      1.0  0.69813  0.98846  0.78122  1.0000
  H   H763      1.0  0.82590  0.99143  0.83224  1.0000
  S   S128      1.0  0.92967  0.50964  0.66613  1.0000
  C   C446      1.0  0.68258  0.83800  0.90266  1.0000
  H   H764      1.0  0.73112  0.58283  0.92681  1.0000
  H   H765      1.0  0.67812  0.58333  0.61719  1.0000
  C   C447      1.0  0.83671  0.99079  0.69205  1.0000
  H   H766      1.0  0.74525  0.97385  0.68587  1.0000
  H   H767      1.0  0.00547  0.85058  0.80999  1.0000
  C   C448      1.0  0.76992  0.96757  0.00306  1.0000
  H   H768      1.0  0.83921  0.66499  0.52254  1.0000
