data_image0
_chemical_formula_structural       HFeS2FeSHSCHSHFeCHCSH2CHC3HSCHFeC3H2CHC4H2CNC2H3CH9SNHC2H2CFeHCHC2HC2SHCSH3SCH5CH2FeH5FeHCH2SFeHSH3CSCHSH6C2H2FeHSHC7HCHC2H3CHCHCHSFeHC2HCHCNHC2H3SH5SHCH2S2CFeHSFeS2CH5C6H2C2HNHCHCHC2H3CH5CH3SC2H3CH3NH2CH2CHCFeHCHC2H4FeH7SHSHFeHC3HCHSCH2CH4CHFeHCH3SH5C4H4CH3SHNHC2HCHCH2C2H4NH4CHC2HC4HC2HCH3FeS2FeS2FeHSHCH2C5H5CNC3H2NCHCH4CSH9C2H2CHCH10SCH2CH3CHC5H2CSHCHCHC2H5C3H4SH4FeS2CS2CHC6H6C2S2H6C2NC2HCH6CHCH3FeCSHC2HCH3C2HC2H2C2HCH2CHCNCH5C2H5CNFeH8S2CH3CHSHCH2C3H3CH2CSH2NC2HCHCHCH4C2H3N2H2CH5CH4C2HSH2C2H2CFeC2HC2FeSHFeS2FeSCSHCHC4HCHC2H2CH2NHC2H4SCHCHSH4C4H7CH3FeCHCH3CH3C3H2CHNFeC2H2SH7CH6CHSHFeS2HCHCSCHS2CH2CHC7H4CHCHSHFeCNHSHCHCH4NC5HC2H8FeHSH5C2HCSCHC2H5FeCH6SHFeS2HSFeS2HSFeHSH2C3H3SC6H8CFeH3C3NC4HC3H6SHFeHCH10C2HCHSHSFeS2HCH3CSC6H4CH5FeHSH2FeHCHFeH2NHCH2CFeC3H2CHCHCHSC2HCH2NH7C2H2CH3SNC2FeSFeS2FeS2H2S2C6H5CFeC2HCH3CH2Fe2H3NHCH2CH3CHCH3CHC2H2SH5CH3CH3C2HSH2
_chemical_formula_sum              "H576 Fe48 S96 C336 N24"
_cell_length_a       29.1781
_cell_length_b       29.1439
_cell_length_c       34.1499
_cell_angle_alpha    89.8914
_cell_angle_beta     89.9787
_cell_angle_gamma    119.979

_space_group_name_H-M_alt    "P 1"
_space_group_IT_number       1

loop_
  _space_group_symop_operation_xyz
  'x, y, z'

loop_
  _atom_site_type_symbol
  _atom_site_label
  _atom_site_symmetry_multiplicity
  _atom_site_fract_x
  _atom_site_fract_y
  _atom_site_fract_z
  _atom_site_occupancy
  H   H1        1.0  0.22192  0.25358  0.10668  1.0000
  Fe  Fe1       1.0  0.17167  0.39010  0.25856  1.0000
  S   S1        1.0  0.25129  0.43505  0.23017  1.0000
  S   S2        1.0  0.09271  0.35129  0.22703  1.0000
  Fe  Fe2       1.0  0.27456  0.38867  0.26999  1.0000
  S   S3        1.0  0.32710  0.35907  0.24622  1.0000
  H   H2        1.0  0.05928  0.47001  0.25187  1.0000
  S   S4        1.0  0.19300  0.33867  0.29449  1.0000
  C   C1        1.0  0.44329  0.04927  0.05287  1.0000
  H   H3        1.0  0.24738  0.27645  0.29584  1.0000
  S   S5        1.0  0.39457  0.08108  0.30489  1.0000
  H   H4        1.0  0.09646  0.19994  0.18872  1.0000
  Fe  Fe3       1.0  0.47387  0.14218  0.28142  1.0000
  C   C2        1.0  0.02931  0.32830  0.11817  1.0000
  H   H5        1.0  0.24290  0.19671  0.32588  1.0000
  C   C3        1.0  0.27664  0.22304  0.30807  1.0000
  S   S6        1.0  0.44061  0.22488  0.07392  1.0000
  H   H6        1.0  0.22219  0.27126  0.21764  1.0000
  H   H7        1.0  0.46204  0.01071  0.29991  1.0000
  C   C4        1.0  0.03773  0.32261  0.15802  1.0000
  H   H8        1.0  0.31696  0.08080  0.05747  1.0000
  C   C5        1.0  0.45984  0.20047  0.11434  1.0000
  C   C6        1.0  0.43710  0.19818  0.15110  1.0000
  C   C7        1.0  0.45117  0.17921  0.18421  1.0000
  H   H9        1.0  0.40844  0.21123  0.15397  1.0000
  S   S7        1.0  0.31523  0.15723  0.32640  1.0000
  C   C8        1.0  0.08519  0.35882  0.17647  1.0000
  H   H10       1.0  0.26491  0.21836  0.20242  1.0000
  Fe  Fe4       1.0  0.27270  0.49069  0.28106  1.0000
  C   C9        1.0  0.06805  0.37075  0.09652  1.0000
  C   C10       1.0  0.11553  0.40713  0.11504  1.0000
  C   C11       1.0  0.12424  0.40106  0.15481  1.0000
  H   H11       1.0  0.14570  0.44010  0.09845  1.0000
  H   H12       1.0  0.16079  0.42942  0.16881  1.0000
  C   C12       1.0  0.32276  0.30245  0.26820  1.0000
  H   H13       1.0  0.43306  0.17741  0.21225  1.0000
  C   C13       1.0  0.06548  0.46900  0.21977  1.0000
  C   C14       1.0  0.27919  0.26827  0.29118  1.0000
  C   C15       1.0  0.36086  0.24587  0.27884  1.0000
  C   C16       1.0  0.36318  0.29073  0.26161  1.0000
  H   H14       1.0  0.39193  0.23707  0.27324  1.0000
  H   H15       1.0  0.39645  0.31650  0.24321  1.0000
  C   C17       1.0  0.23779  0.37112  0.12673  1.0000
  N   N1        1.0  0.19850  0.27844  0.15905  1.0000
  C   C18       1.0  0.15279  0.28456  0.17369  1.0000
  C   C19       1.0  0.18588  0.25128  0.11978  1.0000
  H   H16       1.0  0.15089  0.16768  0.13849  1.0000
  H   H17       1.0  0.25468  0.22063  0.15113  1.0000
  H   H18       1.0  0.17965  0.20965  0.19542  1.0000
  C   C20       1.0  0.30036  0.00573  0.08614  1.0000
  H   H19       1.0  0.13103  0.28972  0.14881  1.0000
  H   H20       1.0  0.28017  0.33136  0.14139  1.0000
  H   H21       1.0  0.25932  0.35315  0.18268  1.0000
  H   H22       1.0  0.13838  0.17731  0.08897  1.0000
  H   H23       1.0  0.20436  0.37636  0.13608  1.0000
  H   H24       1.0  0.16750  0.32127  0.19154  1.0000
  H   H25       1.0  0.37490  0.06352  0.18851  1.0000
  H   H26       1.0  0.29840  0.28049  0.17820  1.0000
  H   H27       1.0  0.10301  0.18836  0.12666  1.0000
  S   S8        1.0  0.19088  0.44927  0.30681  1.0000
  N   N2        1.0  0.35604  0.01625  0.09178  1.0000
  H   H28       1.0  0.17317  0.27184  0.09863  1.0000
  C   C21       1.0  0.26051  0.24237  0.17894  1.0000
  C   C22       1.0  0.38197  0.05180  0.12648  1.0000
  H   H29       1.0  0.38919  0.09237  0.12054  1.0000
  H   H30       1.0  0.27392  0.41088  0.12777  1.0000
  C   C23       1.0  0.29429  0.05526  0.08253  1.0000
  Fe  Fe5       1.0  0.38938  0.15092  0.32735  1.0000
  H   H31       1.0  0.30600  0.07918  0.10972  1.0000
  C   C24       1.0  0.14196  0.19281  0.11920  1.0000
  H   H32       1.0  0.23233  0.35814  0.09574  1.0000
  C   C25       1.0  0.11137  0.24026  0.20033  1.0000
  C   C26       1.0  0.31792  0.21220  0.30253  1.0000
  H   H33       1.0  0.25197  0.04229  0.07720  1.0000
  C   C27       1.0  0.38791  0.04361  0.05563  1.0000
  C   C28       1.0  0.35188  0.03347  0.16577  1.0000
  S   S9        1.0  0.30293  0.44810  0.31871  1.0000
  H   H34       1.0  0.36604  0.02316  0.02868  1.0000
  C   C29       1.0  0.21311  0.24989  0.18914  1.0000
  S   S10       1.0  0.46535  0.21128  0.29944  1.0000
  H   H35       1.0  0.44135  0.01040  0.05086  1.0000
  H   H36       1.0  0.39445  0.08460  0.05320  1.0000
  H   H37       1.0  0.07668  0.24600  0.20376  1.0000
  S   S11       1.0  0.05818  0.38063  0.04678  1.0000
  C   C30       1.0  0.24587  0.33319  0.15380  1.0000
  H   H38       1.0  0.09718  0.45854  0.21715  1.0000
  H   H39       1.0  0.12771  0.24269  0.23013  1.0000
  H   H40       1.0  0.48800  0.34241  0.29191  1.0000
  H   H41       1.0  0.46914  0.07250  0.07752  1.0000
  H   H42       1.0  0.31245  0.03029  0.16457  1.0000
  C   C31       1.0  0.48802  0.16209  0.18086  1.0000
  H   H43       1.0  0.05854  0.49260  0.04274  1.0000
  H   H44       1.0  0.42175  0.05672  0.13195  1.0000
  Fe  Fe6       1.0  0.46608  0.22686  0.01063  1.0000
  H   H45       1.0  0.46967  0.01826  0.24774  1.0000
  H   H46       1.0  0.46274  0.07130  0.02557  1.0000
  H   H47       1.0  0.06602  0.49214  0.14176  1.0000
  H   H48       1.0  0.02026  0.41456  0.17148  1.0000
  H   H49       1.0  0.00219  0.44279  0.09021  1.0000
  Fe  Fe7       1.0  0.21928  0.40180  0.34072  1.0000
  H   H50       1.0  0.00705  0.38515  0.21885  1.0000
  C   C32       1.0  0.01514  0.42157  0.20264  1.0000
  H   H51       1.0  0.00719  0.28995  0.17462  1.0000
  H   H52       1.0  0.37511  0.03568  0.52449  1.0000
  S   S12       1.0  0.19311  0.37730  0.40366  1.0000
  Fe  Fe8       1.0  0.32029  0.40860  0.60862  1.0000
  H   H53       1.0  0.01192  0.24754  0.52707  1.0000
  S   S13       1.0  0.35189  0.43369  0.54659  1.0000
  H   H54       1.0  0.31211  0.16412  0.43564  1.0000
  H   H55       1.0  0.36956  0.45562  0.46441  1.0000
  H   H56       1.0  0.34121  0.31208  0.36040  1.0000
  C   C33       1.0  0.31724  0.23889  0.41992  1.0000
  S   S14       1.0  0.36772  0.45365  0.66157  1.0000
  C   C34       1.0  0.42492  0.30803  0.37607  1.0000
  H   H57       1.0  0.35608  0.21690  0.46684  1.0000
  S   S15       1.0  0.42555  0.15187  0.38565  1.0000
  H   H58       1.0  0.17575  0.35381  0.48558  1.0000
  H   H59       1.0  0.07662  0.25957  0.47320  1.0000
  H   H60       1.0  0.36494  0.36339  0.46051  1.0000
  H   H61       1.0  0.27859  0.22457  0.43505  1.0000
  H   H62       1.0  0.40709  0.06504  0.45663  1.0000
  H   H63       1.0  0.42375  0.30248  0.43882  1.0000
  C   C35       1.0  0.07627  0.31743  0.58961  1.0000
  C   C36       1.0  0.11362  0.30617  0.60601  1.0000
  H   H64       1.0  0.15351  0.32559  0.59476  1.0000
  H   H65       1.0  0.39739  0.26763  0.36515  1.0000
  Fe  Fe9       1.0  0.22841  0.32951  0.65822  1.0000
  H   H66       1.0  0.08790  0.34622  0.56620  1.0000
  S   S16       1.0  0.24590  0.40560  0.62921  1.0000
  H   H67       1.0  0.24807  0.26069  0.38340  1.0000
  C   C37       1.0  0.34179  0.31928  0.46027  1.0000
  C   C38       1.0  0.23799  0.39271  0.44284  1.0000
  C   C39       1.0  0.29277  0.42113  0.43699  1.0000
  C   C40       1.0  0.32723  0.43312  0.46904  1.0000
  C   C41       1.0  0.30727  0.41654  0.50705  1.0000
  C   C42       1.0  0.25253  0.38776  0.51281  1.0000
  C   C43       1.0  0.21807  0.37592  0.48082  1.0000
  H   H68       1.0  0.30854  0.43428  0.40789  1.0000
  C   C44       1.0  0.34223  0.20696  0.43633  1.0000
  H   H69       1.0  0.23668  0.37467  0.54193  1.0000
  C   C45       1.0  0.39418  0.02470  0.46544  1.0000
  C   C46       1.0  0.40838  0.31899  0.41645  1.0000
  H   H70       1.0  0.32665  0.25849  0.50447  1.0000
  H   H71       1.0  0.35470  0.36630  0.39130  1.0000
  H   H72       1.0  0.02721  0.27462  0.45864  1.0000
  C   C47       1.0  0.02412  0.29159  0.60344  1.0000
  H   H73       1.0  0.39681  0.30660  0.49772  1.0000
  C   C48       1.0  0.27274  0.30389  0.38851  1.0000
  H   H74       1.0  0.43134  0.36271  0.42100  1.0000
  C   C49       1.0  0.37605  0.00792  0.50395  1.0000
  H   H75       1.0  0.37552  0.21165  0.41787  1.0000
  S   S17       1.0  0.29968  0.32920  0.63382  1.0000
  Fe  Fe10      1.0  0.43736  0.08692  0.36134  1.0000
  H   H76       1.0  0.30692  0.22551  0.38904  1.0000
  C   C50       1.0  0.33243  0.32216  0.38976  1.0000
  C   C51       1.0  0.00914  0.25372  0.63318  1.0000
  H   H77       1.0  0.02312  0.21290  0.44348  1.0000
  C   C52       1.0  0.03344  0.24156  0.46778  1.0000
  H   H78       1.0  0.29985  0.30851  0.46438  1.0000
  C   C53       1.0  0.04641  0.24205  0.64926  1.0000
  N   N3        1.0  0.34996  0.29858  0.42190  1.0000
  H   H79       1.0  0.25852  0.31463  0.41499  1.0000
  C   C54       1.0  0.35617  0.30039  0.49797  1.0000
  C   C55       1.0  0.09901  0.26923  0.63638  1.0000
  H   H80       1.0  0.35428  0.32388  0.52296  1.0000
  H   H81       1.0  0.26540  0.32406  0.36367  1.0000
  H   H82       1.0  0.03479  0.21289  0.67240  1.0000
  S   S18       1.0  0.42289  0.01025  0.39084  1.0000
  H   H83       1.0  0.12135  0.39232  0.65676  1.0000
  H   H84       1.0  0.42779  0.33732  0.35393  1.0000
  H   H85       1.0  0.48628  0.00669  0.51351  1.0000
  H   H86       1.0  0.23547  0.48710  0.47915  1.0000
  H   H87       1.0  0.02232  0.19344  0.51799  1.0000
  S   S19       1.0  0.14628  0.25844  0.65993  1.0000
  H   H88       1.0  0.46482  0.31215  0.37831  1.0000
  C   C56       1.0  0.00308  0.21512  0.50590  1.0000
  H   H89       1.0  0.23731  0.49736  0.42780  1.0000
  H   H90       1.0  0.28122  0.10029  0.90289  1.0000
  S   S20       1.0  0.26747  0.36702  0.71514  1.0000
  S   S21       1.0  0.39914  0.35377  0.71921  1.0000
  C   C57       1.0  0.12480  0.28845  0.77359  1.0000
  Fe  Fe11      1.0  0.44405  0.25698  0.92844  1.0000
  H   H91       1.0  0.45530  0.13118  0.79768  1.0000
  S   S22       1.0  0.39541  0.28828  0.89813  1.0000
  Fe  Fe12      1.0  0.44976  0.15611  0.94058  1.0000
  S   S23       1.0  0.41966  0.07269  0.91915  1.0000
  S   S24       1.0  0.39975  0.18587  0.96752  1.0000
  C   C58       1.0  0.42074  0.11568  0.81775  1.0000
  H   H92       1.0  0.04450  0.33051  0.79461  1.0000
  H   H93       1.0  0.40483  0.07241  0.82040  1.0000
  H   H94       1.0  0.18342  0.37027  0.78196  1.0000
  H   H95       1.0  0.18096  0.45018  0.76561  1.0000
  H   H96       1.0  0.40185  0.17307  0.79612  1.0000
  C   C59       1.0  0.39576  0.33332  0.76862  1.0000
  C   C60       1.0  0.36109  0.33593  0.79560  1.0000
  C   C61       1.0  0.36147  0.32180  0.83504  1.0000
  C   C62       1.0  0.39613  0.30454  0.84794  1.0000
  C   C63       1.0  0.43029  0.30113  0.82085  1.0000
  C   C64       1.0  0.43027  0.31576  0.78145  1.0000
  H   H97       1.0  0.33452  0.34958  0.78620  1.0000
  H   H98       1.0  0.33489  0.32456  0.85577  1.0000
  C   C65       1.0  0.13936  0.34574  0.78322  1.0000
  C   C66       1.0  0.12906  0.43529  0.81491  1.0000
  H   H99       1.0  0.14145  0.47764  0.81962  1.0000
  N   N4        1.0  0.11475  0.37037  0.75813  1.0000
  H   H100      1.0  0.27767  0.17857  0.77189  1.0000
  C   C67       1.0  0.13163  0.37196  0.71611  1.0000
  H   H101      1.0  0.27123  0.14599  0.87277  1.0000
  C   C68       1.0  0.13751  0.42712  0.77136  1.0000
  H   H102      1.0  0.31702  0.16978  0.91186  1.0000
  C   C69       1.0  0.30823  0.17830  0.79114  1.0000
  C   C70       1.0  0.30086  0.13959  0.88831  1.0000
  H   H103      1.0  0.13454  0.28359  0.74310  1.0000
  H   H104      1.0  0.31074  0.20152  0.81754  1.0000
  H   H105      1.0  0.15409  0.42652  0.83447  1.0000
  C   C71       1.0  0.30590  0.05577  0.83771  1.0000
  H   H106      1.0  0.12013  0.44735  0.75443  1.0000
  H   H107      1.0  0.26865  0.04355  0.85420  1.0000
  H   H108      1.0  0.37090  0.18964  0.85414  1.0000
  H   H109      1.0  0.25261  0.10190  0.81577  1.0000
  H   H110      1.0  0.04019  0.36939  0.75625  1.0000
  C   C72       1.0  0.35988  0.02351  0.93969  1.0000
  H   H111      1.0  0.37298  0.13858  0.88051  1.0000
  H   H112      1.0  0.08699  0.41169  0.82398  1.0000
  H   H113      1.0  0.33478  0.07703  0.96069  1.0000
  S   S25       1.0  0.48967  0.22415  0.89849  1.0000
  C   C73       1.0  0.32571  0.03646  0.95914  1.0000
  C   C74       1.0  0.29200  0.12039  0.80119  1.0000
  H   H114      1.0  0.07175  0.38815  0.68977  1.0000
  H   H115      1.0  0.45726  0.28803  0.83037  1.0000
  H   H116      1.0  0.28474  0.09948  0.77265  1.0000
  C   C75       1.0  0.48418  0.49023  0.75577  1.0000
  H   H117      1.0  0.43588  0.13443  0.84652  1.0000
  H   H118      1.0  0.47396  0.00618  0.91796  1.0000
  H   H119      1.0  0.12817  0.34458  0.81449  1.0000
  N   N5        1.0  0.33114  0.11303  0.82536  1.0000
  H   H120      1.0  0.34622  0.19900  0.77497  1.0000
  H   H121      1.0  0.14849  0.27720  0.79265  1.0000
  C   C76       1.0  0.05535  0.34203  0.76336  1.0000
  H   H122      1.0  0.08272  0.26013  0.78038  1.0000
  H   H123      1.0  0.11727  0.33196  0.70402  1.0000
  C   C77       1.0  0.34684  0.14684  0.86168  1.0000
  H   H124      1.0  0.36942  0.11198  0.77097  1.0000
  C   C78       1.0  0.02216  0.29201  0.73822  1.0000
  Fe  Fe13      1.0  0.29074  0.44362  0.68397  1.0000
  H   H125      1.0  0.45731  0.31373  0.76079  1.0000
  C   C79       1.0  0.38000  0.12941  0.80086  1.0000
  H   H126      1.0  0.33168  0.04969  0.85866  1.0000
  C   C80       1.0  0.29093  0.01528  0.80418  1.0000
  C   C81       1.0  0.11433  0.40104  0.68712  1.0000
  H   H127      1.0  0.32516  0.02298  0.78557  1.0000
  H   H128      1.0  0.04312  0.27152  0.72819  1.0000
  H   H129      1.0  0.25892  0.01357  0.78564  1.0000
  H   H130      1.0  0.17556  0.39133  0.71411  1.0000
  Fe  Fe14      1.0  0.34100  0.37339  0.68884  1.0000
  H   H131      1.0  0.13863  0.44466  0.69065  1.0000
  H   H132      1.0  0.47335  0.42404  0.81878  1.0000
  H   H133      1.0  0.00468  0.30136  0.71266  1.0000
  H   H134      1.0  0.44922  0.45931  0.77170  1.0000
  H   H135      1.0  0.25341  0.00689  0.99229  1.0000
  H   H136      1.0  0.49282  0.39977  0.88274  1.0000
  H   H137      1.0  0.49303  0.47189  0.73062  1.0000
  S   S26       1.0  0.31680  0.57817  0.26723  1.0000
  H   H138      1.0  0.11345  0.69800  0.13210  1.0000
  S   S27       1.0  0.04186  0.64544  0.06614  1.0000
  H   H139      1.0  0.12900  0.50709  0.15866  1.0000
  Fe  Fe15      1.0  0.23575  0.73720  0.02359  1.0000
  H   H140      1.0  0.49200  0.67330  0.18278  1.0000
  C   C82       1.0  0.03125  0.65030  0.11688  1.0000
  C   C83       1.0  0.07324  0.67748  0.14299  1.0000
  C   C84       1.0  0.06321  0.67769  0.18339  1.0000
  H   H141      1.0  0.17441  0.52529  0.23700  1.0000
  C   C85       1.0  0.35401  0.96420  0.09889  1.0000
  H   H142      1.0  0.05171  0.57459  0.18885  1.0000
  S   S28       1.0  0.19161  0.76901  0.05735  1.0000
  C   C86       1.0  0.45561  0.76156  0.19396  1.0000
  H   H143      1.0  0.40451  0.74418  0.06652  1.0000
  H   H144      1.0  0.09597  0.69870  0.20335  1.0000
  C   C87       1.0  0.36389  0.61660  0.30295  1.0000
  H   H145      1.0  0.36471  0.66213  0.20193  1.0000
  H   H146      1.0  0.19746  0.56958  0.19515  1.0000
  H   H147      1.0  0.38379  0.57180  0.19763  1.0000
  H   H148      1.0  0.35193  0.94040  0.03676  1.0000
  C   C88       1.0  0.40050  0.66991  0.29518  1.0000
  H   H149      1.0  0.44436  0.66608  0.21770  1.0000
  Fe  Fe16      1.0  0.11847  0.69965  0.03282  1.0000
  H   H150      1.0  0.39871  0.68766  0.26789  1.0000
  C   C89       1.0  0.45446  0.73221  0.15606  1.0000
  H   H151      1.0  0.39568  0.60704  0.11713  1.0000
  H   H152      1.0  0.34262  0.60935  0.16841  1.0000
  H   H153      1.0  0.06546  0.54737  0.01481  1.0000
  S   S29       1.0  0.00107  0.65081  0.24951  1.0000
  H   H154      1.0  0.44029  0.74753  0.13185  1.0000
  H   H155      1.0  0.15923  0.60639  0.15148  1.0000
  H   H156      1.0  0.13646  0.60469  0.21550  1.0000
  H   H157      1.0  0.40576  0.66653  0.09589  1.0000
  H   H158      1.0  0.33677  0.88948  0.07215  1.0000
  C   C90       1.0  0.33649  0.67515  0.14694  1.0000
  C   C91       1.0  0.42242  0.65075  0.11787  1.0000
  C   C92       1.0  0.44856  0.65398  0.18766  1.0000
  C   C93       1.0  0.42851  0.72695  0.01135  1.0000
  H   H159      1.0  0.44737  0.58519  0.21338  1.0000
  H   H160      1.0  0.42805  0.95412  0.27015  1.0000
  H   H161      1.0  0.33361  0.66536  0.11537  1.0000
  H   H162      1.0  0.47060  0.64221  0.07302  1.0000
  C   C94       1.0  0.33170  0.92390  0.06501  1.0000
  H   H163      1.0  0.27403  0.98060  0.11025  1.0000
  H   H164      1.0  0.28276  0.98229  0.05910  1.0000
  H   H165      1.0  0.03874  0.56038  0.26100  1.0000
  S   S30       1.0  0.30519  0.73827  0.05337  1.0000
  H   H166      1.0  0.32852  0.94342  0.12458  1.0000
  N   N6        1.0  0.08261  0.52214  0.20112  1.0000
  H   H167      1.0  0.29533  0.65682  0.15825  1.0000
  C   C95       1.0  0.42637  0.59361  0.18978  1.0000
  C   C96       1.0  0.12375  0.57419  0.13703  1.0000
  H   H168      1.0  0.09426  0.58705  0.13214  1.0000
  C   C97       1.0  0.17950  0.56281  0.22471  1.0000
  H   H169      1.0  0.47830  0.80491  0.18828  1.0000
  C   C98       1.0  0.36666  0.65326  0.17050  1.0000
  H   H170      1.0  0.20882  0.59514  0.24367  1.0000
  H   H171      1.0  0.41908  0.90066  0.02607  1.0000
  C   C99       1.0  0.36559  0.59448  0.33893  1.0000
  C   C100      1.0  0.12730  0.56435  0.22492  1.0000
  H   H172      1.0  0.39381  0.97054  0.10667  1.0000
  H   H173      1.0  0.11562  0.56157  0.25624  1.0000
  H   H174      1.0  0.28859  0.90793  0.06143  1.0000
  H   H175      1.0  0.43303  0.57764  0.16229  1.0000
  N   N7        1.0  0.42304  0.67258  0.15801  1.0000
  H   H176      1.0  0.35416  0.71857  0.15029  1.0000
  H   H177      1.0  0.13657  0.56875  0.10759  1.0000
  H   H178      1.0  0.05032  0.54443  0.06569  1.0000
  H   H179      1.0  0.46798  0.74149  0.31641  1.0000
  C   C101      1.0  0.43961  0.70053  0.32276  1.0000
  H   H180      1.0  0.41566  0.75202  0.20388  1.0000
  C   C102      1.0  0.39411  0.73381  0.03618  1.0000
  C   C103      1.0  0.34657  0.72793  0.02177  1.0000
  H   H181      1.0  0.46428  0.73013  0.02301  1.0000
  C   C104      1.0  0.46588  0.99217  0.27280  1.0000
  C   C105      1.0  0.01118  0.65103  0.19817  1.0000
  C   C106      1.0  0.04267  0.51995  0.03910  1.0000
  C   C107      1.0  0.47669  0.66325  0.10132  1.0000
  H   H182      1.0  0.47651  0.75390  0.21800  1.0000
  C   C108      1.0  0.09991  0.52120  0.15964  1.0000
  C   C109      1.0  0.03781  0.53392  0.20016  1.0000
  H   H183      1.0  0.00645  0.50702  0.17950  1.0000
  C   C110      1.0  0.01098  0.53067  0.23985  1.0000
  H   H184      1.0  0.49257  0.87435  0.04161  1.0000
  H   H185      1.0  0.34802  0.99566  0.17616  1.0000
  H   H186      1.0  0.35304  0.57672  0.55166  1.0000
  Fe  Fe17      1.0  0.30077  0.75946  0.62685  1.0000
  S   S31       1.0  0.34051  0.84326  0.64880  1.0000
  S   S32       1.0  0.34739  0.71710  0.62032  1.0000
  Fe  Fe18      1.0  0.19710  0.75586  0.61332  1.0000
  S   S33       1.0  0.22808  0.83913  0.63426  1.0000
  S   S34       1.0  0.11365  0.70323  0.59214  1.0000
  Fe  Fe19      1.0  0.30049  0.85894  0.59830  1.0000
  H   H187      1.0  0.15907  0.89397  0.49033  1.0000
  S   S35       1.0  0.26640  0.77690  0.57368  1.0000
  H   H188      1.0  0.22840  0.88203  0.49066  1.0000
  C   C111      1.0  0.06736  0.71027  0.62045  1.0000
  H   H189      1.0  0.46388  0.60926  0.48255  1.0000
  H   H190      1.0  0.40504  0.64404  0.46030  1.0000
  C   C112      1.0  0.39383  0.61735  0.48635  1.0000
  C   C113      1.0  0.07717  0.86968  0.48659  1.0000
  C   C114      1.0  0.16086  0.80174  0.50351  1.0000
  C   C115      1.0  0.36108  0.92042  0.48936  1.0000
  C   C116      1.0  0.38008  0.93747  0.45096  1.0000
  H   H191      1.0  0.34846  0.88022  0.49834  1.0000
  H   H192      1.0  0.38192  0.91009  0.43056  1.0000
  H   H193      1.0  0.35148  0.55499  0.65190  1.0000
  H   H194      1.0  0.32538  0.64990  0.46507  1.0000
  H   H195      1.0  0.08809  0.90424  0.50594  1.0000
  C   C117      1.0  0.32489  0.65642  0.64522  1.0000
  N   N8        1.0  0.11801  0.81440  0.51397  1.0000
  C   C118      1.0  0.39665  0.98968  0.43877  1.0000
  C   C119      1.0  0.44136  0.67830  0.35868  1.0000
  C   C120      1.0  0.31013  0.55312  0.45680  1.0000
  H   H196      1.0  0.38354  0.70159  0.51744  1.0000
  H   H197      1.0  0.34405  0.65321  0.55422  1.0000
  N   N9        1.0  0.33449  0.58772  0.49222  1.0000
  C   C121      1.0  0.42022  0.58301  0.48165  1.0000
  H   H198      1.0  0.01646  0.53103  0.62388  1.0000
  C   C122      1.0  0.32174  0.55501  0.52927  1.0000
  H   H199      1.0  0.06405  0.85491  0.56285  1.0000
  H   H200      1.0  0.23697  0.53689  0.53094  1.0000
  H   H201      1.0  0.09567  0.85285  0.60682  1.0000
  H   H202      1.0  0.27367  0.61006  0.49742  1.0000
  C   C123      1.0  0.01403  0.68401  0.60939  1.0000
  S   S36       1.0  0.22838  0.73143  0.66432  1.0000
  H   H203      1.0  0.32487  0.52501  0.45325  1.0000
  H   H204      1.0  0.32235  0.51775  0.52353  1.0000
  H   H205      1.0  0.22756  0.85913  0.54024  1.0000
  H   H206      1.0  0.05803  0.58305  0.56398  1.0000
  H   H207      1.0  0.48785  0.94902  0.45747  1.0000
  H   H208      1.0  0.15793  0.78966  0.47233  1.0000
  H   H209      1.0  0.07728  0.72499  0.45923  1.0000
  H   H210      1.0  0.12450  0.76351  0.66213  1.0000
  H   H211      1.0  0.02242  0.51365  0.55467  1.0000
  C   C124      1.0  0.34282  0.67072  0.52578  1.0000
  C   C125      1.0  0.46375  0.85773  0.54962  1.0000
  H   H212      1.0  0.38141  0.64018  0.61705  1.0000
  H   H213      1.0  0.31961  0.69112  0.53001  1.0000
  C   C126      1.0  0.35945  0.95581  0.51620  1.0000
  H   H214      1.0  0.04974  0.79230  0.58440  1.0000
  C   C127      1.0  0.40422  0.62531  0.36672  1.0000
  H   H215      1.0  0.12565  0.84544  0.45481  1.0000
  H   H216      1.0  0.40949  0.55357  0.50558  1.0000
  H   H217      1.0  0.03819  0.83667  0.49555  1.0000
  H   H218      1.0  0.40600  0.60780  0.39411  1.0000
  H   H219      1.0  0.45060  0.82590  0.52743  1.0000
  H   H220      1.0  0.27516  0.56695  0.57474  1.0000
  H   H221      1.0  0.03223  0.76751  0.52186  1.0000
  H   H222      1.0  0.07099  0.88031  0.45655  1.0000
  H   H223      1.0  0.41414  0.64364  0.51173  1.0000
  H   H224      1.0  0.01040  0.70220  0.47214  1.0000
  S   S37       1.0  0.33884  0.93803  0.56560  1.0000
  C   C128      1.0  0.08351  0.74316  0.65330  1.0000
  H   H225      1.0  0.15641  0.76739  0.52102  1.0000
  H   H226      1.0  0.16098  0.87687  0.55646  1.0000
  C   C129      1.0  0.12788  0.83508  0.55550  1.0000
  H   H227      1.0  0.42959  0.84608  0.56967  1.0000
  H   H228      1.0  0.44396  0.90425  0.51283  1.0000
  H   H229      1.0  0.06592  0.73302  0.53129  1.0000
  C   C130      1.0  0.08118  0.83347  0.57792  1.0000
  H   H230      1.0  0.14088  0.81215  0.57400  1.0000
  C   C131      1.0  0.05011  0.73826  0.47032  1.0000
  C   C132      1.0  0.31698  0.62842  0.49360  1.0000
  C   C133      1.0  0.01762  0.54778  0.56297  1.0000
  C   C134      1.0  0.06583  0.76326  0.51140  1.0000
  C   C135      1.0  0.12177  0.85583  0.48556  1.0000
  H   H231      1.0  0.99870  0.57932  0.61342  1.0000
  H   H232      1.0  0.32189  0.57764  0.42961  1.0000
  C   C136      1.0  0.34925  0.62621  0.63790  1.0000
  S   S38       1.0  0.48915  0.71637  0.39400  1.0000
  H   H233      1.0  0.24571  0.83261  0.50023  1.0000
  C   C137      1.0  0.04646  0.74977  0.67503  1.0000
  H   H234      1.0  0.48040  0.93841  0.55456  1.0000
  C   C138      1.0  0.47891  0.91169  0.53067  1.0000
  H   H235      1.0  0.00159  0.65971  0.58337  1.0000
  C   C139      1.0  0.33243  0.57801  0.65767  1.0000
  C   C140      1.0  0.21847  0.84699  0.50917  1.0000
  H   H236      1.0  0.41126  0.56276  0.45291  1.0000
  H   H237      1.0  0.04699  0.76514  0.44884  1.0000
  H   H238      1.0  0.45860  0.85186  0.46160  1.0000
  H   H239      1.0  0.22904  0.54162  0.45882  1.0000
  H   H240      1.0  0.47046  0.94613  0.34600  1.0000
  C   C141      1.0  0.24947  0.51839  0.45634  1.0000
  C   C142      1.0  0.28382  0.63823  0.67263  1.0000
  C   C143      1.0  0.26876  0.53968  0.55001  1.0000
  H   H241      1.0  0.33703  0.55374  0.34547  1.0000
  H   H242      1.0  0.25337  0.50001  0.56376  1.0000
  H   H243      1.0  0.49583  0.85849  0.56723  1.0000
  H   H244      1.0  0.10887  0.77241  0.75670  1.0000
  S   S39       1.0  0.11808  0.74443  0.97886  1.0000
  H   H245      1.0  0.23694  0.57759  0.71494  1.0000
  H   H246      1.0  0.29145  0.89009  0.95321  1.0000
  H   H247      1.0  0.47264  0.51819  0.74322  1.0000
  H   H248      1.0  0.41935  0.78274  0.80527  1.0000
  Fe  Fe20      1.0  0.16835  0.71550  0.95037  1.0000
  S   S40       1.0  0.15333  0.68451  0.88775  1.0000
  S   S41       1.0  0.24568  0.78457  0.96930  1.0000
  C   C144      1.0  0.26742  0.94365  0.97568  1.0000
  S   S42       1.0  0.26789  0.84269  0.74565  1.0000
  S   S43       1.0  0.46026  0.71011  0.93935  1.0000
  C   C145      1.0  0.26809  0.59092  0.69328  1.0000
  H   H249      1.0  0.34096  0.75585  0.70530  1.0000
  C   C146      1.0  0.18363  0.72901  0.84829  1.0000
  C   C147      1.0  0.17533  0.70943  0.80978  1.0000
  C   C148      1.0  0.20028  0.74380  0.77788  1.0000
  C   C149      1.0  0.23374  0.79806  0.78433  1.0000
  C   C150      1.0  0.24118  0.81763  0.82274  1.0000
  C   C151      1.0  0.21619  0.78334  0.85457  1.0000
  H   H250      1.0  0.14999  0.66745  0.80468  1.0000
  H   H251      1.0  0.19394  0.72831  0.74843  1.0000
  H   H252      1.0  0.26668  0.85957  0.82796  1.0000
  H   H253      1.0  0.22236  0.79900  0.88399  1.0000
  H   H254      1.0  0.28131  0.69628  0.75616  1.0000
  H   H255      1.0  0.07027  0.68315  0.76756  1.0000
  C   C152      1.0  0.36761  0.70762  0.95765  1.0000
  C   C153      1.0  0.41585  0.71478  0.97182  1.0000
  S   S44       1.0  0.21191  0.89540  0.00152  1.0000
  S   S45       1.0  0.27294  0.50250  0.71302  1.0000
  H   H256      1.0  0.44816  0.80531  0.91554  1.0000
  H   H257      1.0  0.35678  0.69651  0.92750  1.0000
  H   H258      1.0  0.01171  0.72902  0.87961  1.0000
  H   H259      1.0  0.37207  0.95988  0.92095  1.0000
  H   H260      1.0  0.08087  0.75672  0.86813  1.0000
  H   H261      1.0  0.05934  0.77596  0.70000  1.0000
  C   C154      1.0  0.39901  0.87965  0.99885  1.0000
  C   C155      1.0  0.30079  0.93064  0.95513  1.0000
  N   N10       1.0  0.33930  0.71516  0.80253  1.0000
  C   C156      1.0  0.32447  0.71173  0.75982  1.0000
  C   C157      1.0  0.31116  0.65954  0.81891  1.0000
  H   H262      1.0  0.32436  0.63460  0.80320  1.0000
  C   C158      1.0  0.32248  0.75040  0.82265  1.0000
  H   H263      1.0  0.23316  0.65188  0.83214  1.0000
  H   H264      1.0  0.02078  0.75969  0.76664  1.0000
  H   H265      1.0  0.11921  0.76897  0.80839  1.0000
  H   H266      1.0  0.44413  0.91359  0.91319  1.0000
  H   H267      1.0  0.32140  0.65884  0.85015  1.0000
  H   H268      1.0  0.23508  0.62018  0.78681  1.0000
  C   C159      1.0  0.35181  0.76441  0.73670  1.0000
  H   H269      1.0  0.33329  0.68338  0.74429  1.0000
  C   C160      1.0  0.02701  0.66874  0.76753  1.0000
  H   H270      1.0  0.34611  0.79201  0.81209  1.0000
  H   H271      1.0  0.28104  0.73799  0.81498  1.0000
  H   H272      1.0  0.33798  0.79178  0.74638  1.0000
  Fe  Fe21      1.0  0.19540  0.81085  0.00102  1.0000
  C   C161      1.0  0.32581  0.75271  0.86760  1.0000
  S   S46       1.0  0.16262  0.66479  0.00232  1.0000
  H   H273      1.0  0.01831  0.68081  0.73875  1.0000
  C   C162      1.0  0.99966  0.60768  0.76752  1.0000
  C   C163      1.0  0.42092  0.72092  0.83905  1.0000
  H   H274      1.0  0.29993  0.71354  0.88133  1.0000
  C   C164      1.0  0.34663  0.97038  0.93689  1.0000
  H   H275      1.0  0.11557  0.82392  0.78843  1.0000
  H   H276      1.0  0.41407  0.72864  0.77805  1.0000
  H   H277      1.0  0.39555  0.78461  0.73813  1.0000
  C   C165      1.0  0.27947  0.99659  0.97693  1.0000
  C   C166      1.0  0.09895  0.78041  0.78636  1.0000
  H   H278      1.0  0.27555  0.97515  0.81708  1.0000
  C   C167      1.0  0.33319  0.71463  0.98246  1.0000
  C   C168      1.0  0.39880  0.73865  0.80476  1.0000
  H   H279      1.0  0.01975  0.59524  0.74589  1.0000
  H   H280      1.0  0.29611  0.70925  0.97130  1.0000
  C   C169      1.0  0.03850  0.75187  0.79297  1.0000
  C   C170      1.0  0.48106  0.93665  0.93055  1.0000
  H   H281      1.0  0.06528  0.67627  0.83484  1.0000
  C   C171      1.0  0.25009  0.62993  0.81724  1.0000
  H   H282      1.0  0.23453  0.59151  0.83288  1.0000
  H   H283      1.0  0.03143  0.77292  0.81715  1.0000
  C   C172      1.0  0.48324  0.98854  0.94349  1.0000
  H   H284      1.0  0.31138  0.77925  0.87828  1.0000
  C   C173      1.0  0.48647  0.84073  0.90809  1.0000
  N   N11       1.0  0.01227  0.69311  0.80075  1.0000
  C   C174      1.0  0.29230  0.56069  0.68582  1.0000
  H   H285      1.0  0.36695  0.76979  0.87790  1.0000
  H   H286      1.0  0.41140  0.67919  0.83541  1.0000
  H   H287      1.0  0.48104  0.86317  0.88408  1.0000
  H   H288      1.0  0.46478  0.74556  0.83943  1.0000
  H   H289      1.0  0.40666  0.72515  0.86795  1.0000
  C   C175      1.0  0.02943  0.68004  0.83898  1.0000
  C   C176      1.0  0.43145  0.86036  0.97590  1.0000
  H   H290      1.0  0.40622  0.83738  0.95076  1.0000
  H   H291      1.0  0.99862  0.64046  0.84995  1.0000
  H   H292      1.0  0.00204  0.59158  0.79642  1.0000
  H   H293      1.0  0.45463  0.98283  0.96685  1.0000
  H   H294      1.0  0.04892  0.70151  0.90011  1.0000
  C   C177      1.0  0.04306  0.71944  0.87317  1.0000
  N   N12       1.0  0.48549  0.90244  0.96216  1.0000
  Fe  Fe22      1.0  0.26505  0.81628  0.68270  1.0000
  H   H295      1.0  0.38872  0.90446  0.98044  1.0000
  H   H296      1.0  0.43460  0.83072  0.99449  1.0000
  H   H297      1.0  0.36098  0.84462  0.00791  1.0000
  H   H298      1.0  0.26481  0.66100  0.67858  1.0000
  H   H299      1.0  0.64256  0.31224  0.18975  1.0000
  H   H300      1.0  0.93012  0.40087  0.13659  1.0000
  H   H301      1.0  0.62769  0.37279  0.16959  1.0000
  H   H302      1.0  0.53046  0.38393  0.22748  1.0000
  S   S47       1.0  0.91216  0.25510  0.03911  1.0000
  S   S48       1.0  0.78152  0.42763  0.30460  1.0000
  C   C178      1.0  0.89103  0.42686  0.04280  1.0000
  H   H303      1.0  0.50608  0.31394  0.16449  1.0000
  H   H304      1.0  0.53799  0.32540  0.30086  1.0000
  H   H305      1.0  0.88477  0.35694  0.09906  1.0000
  C   C179      1.0  0.69087  0.33430  0.31975  1.0000
  H   H306      1.0  0.49991  0.31388  0.22987  1.0000
  S   S49       1.0  0.80297  0.28884  0.03226  1.0000
  H   H307      1.0  0.64498  0.15578  0.28239  1.0000
  C   C180      1.0  0.68723  0.42274  0.22867  1.0000
  H   H308      1.0  0.86023  0.40456  0.06523  1.0000
  H   H309      1.0  0.63402  0.38886  0.27730  1.0000
  C   C181      1.0  0.51076  0.16424  0.14411  1.0000
  C   C182      1.0  0.89829  0.47883  0.11733  1.0000
  C   C183      1.0  0.63287  0.11795  0.29807  1.0000
  H   H310      1.0  0.82863  0.43453  0.01391  1.0000
  H   H311      1.0  0.58920  0.07328  0.24716  1.0000
  H   H312      1.0  0.65890  0.30406  0.23922  1.0000
  C   C184      1.0  0.58190  0.07380  0.27912  1.0000
  H   H313      1.0  0.71635  0.45324  0.24888  1.0000
  H   H314      1.0  0.51466  0.18515  0.08278  1.0000
  C   C185      1.0  0.64077  0.30249  0.33667  1.0000
  S   S50       1.0  0.51782  0.14359  0.33604  1.0000
  H   H315      1.0  0.54744  0.28398  0.15945  1.0000
  H   H316      1.0  0.97958  0.42561  0.20612  1.0000
  N   N13       1.0  0.58591  0.35451  0.22561  1.0000
  C   C186      1.0  0.53520  0.35114  0.23996  1.0000
  C   C187      1.0  0.58961  0.36540  0.18217  1.0000
  H   H317      1.0  0.69948  0.39277  0.22511  1.0000
  C   C188      1.0  0.58295  0.30248  0.23521  1.0000
  H   H318      1.0  0.69308  0.25290  0.04389  1.0000
  C   C189      1.0  0.54617  0.32125  0.15708  1.0000
  H   H319      1.0  0.70888  0.31616  0.30275  1.0000
  C   C190      1.0  0.62612  0.29250  0.21804  1.0000
  H   H320      1.0  0.60859  0.24949  0.21191  1.0000
  H   H321      1.0  0.62480  0.43451  0.24849  1.0000
  H   H322      1.0  0.64864  0.04457  0.24405  1.0000
  H   H323      1.0  0.66621  0.11007  0.29583  1.0000
  C   C191      1.0  0.71812  0.38935  0.32518  1.0000
  C   C192      1.0  0.63149  0.40009  0.24657  1.0000
  H   H324      1.0  0.58410  0.29763  0.26740  1.0000
  H   H325      1.0  0.54394  0.26816  0.22679  1.0000
  H   H326      1.0  0.58884  0.40266  0.17627  1.0000
  N   N14       1.0  0.56025  0.01951  0.29690  1.0000
  N   N15       1.0  0.94537  0.45844  0.06063  1.0000
  H   H327      1.0  0.86603  0.47939  0.10055  1.0000
  H   H328      1.0  0.55301  0.33321  0.12573  1.0000
  C   C193      1.0  0.92663  0.38106  0.10824  1.0000
  H   H329      1.0  0.88293  0.43927  0.13058  1.0000
  H   H330      1.0  0.99275  0.49069  0.25320  1.0000
  H   H331      1.0  0.94070  0.35250  0.11356  1.0000
  H   H332      1.0  0.69109  0.44348  0.20053  1.0000
  H   H333      1.0  0.96589  0.39731  0.05277  1.0000
  C   C194      1.0  0.52940  0.35327  0.28486  1.0000
  H   H334      1.0  0.88942  0.39584  0.02302  1.0000
  H   H335      1.0  0.55214  0.08699  0.28089  1.0000
  H   H336      1.0  0.55535  0.39382  0.29639  1.0000
  H   H337      1.0  0.53944  0.15121  0.14130  1.0000
  C   C195      1.0  0.96224  0.42089  0.07683  1.0000
  C   C196      1.0  0.70455  0.27312  0.01594  1.0000
  H   H338      1.0  0.62031  0.25999  0.33276  1.0000
  S   S51       1.0  0.50561  0.13707  0.22189  1.0000
  H   H339      1.0  0.99266  0.29997  0.10431  1.0000
  H   H340      1.0  0.63348  0.02459  0.31684  1.0000
  C   C197      1.0  0.98347  0.48982  0.02808  1.0000
  C   C198      1.0  0.54601  0.02128  0.33916  1.0000
  H   H341      1.0  0.62643  0.12426  0.32915  1.0000
  H   H342      1.0  0.88019  0.49615  0.03342  1.0000
  C   C199      1.0  0.87204  0.45900  0.01863  1.0000
  Fe  Fe23      1.0  0.98559  0.32130  0.01236  1.0000
  C   C200      1.0  0.62580  0.00371  0.25576  1.0000
  C   C201      1.0  0.60057  0.00149  0.29595  1.0000
  H   H343      1.0  0.52613  0.04508  0.34287  1.0000
  C   C202      1.0  0.49673  0.18334  0.11091  1.0000
  C   C203      1.0  0.94804  0.49656  0.09167  1.0000
  Fe  Fe24      1.0  0.89486  0.25565  0.60418  1.0000
  S   S52       1.0  0.85789  0.17349  0.62867  1.0000
  H   H344      1.0  0.96908  0.23371  0.64412  1.0000
  Fe  Fe25      1.0  0.79319  0.25828  0.60814  1.0000
  S   S53       1.0  0.74647  0.17538  0.63234  1.0000
  S   S54       1.0  0.76331  0.31401  0.59254  1.0000
  Fe  Fe26      1.0  0.79024  0.15452  0.58788  1.0000
  S   S55       1.0  0.76207  0.07522  0.55783  1.0000
  C   C204      1.0  0.92148  0.21099  0.48456  1.0000
  S   S56       1.0  0.83063  0.23529  0.56028  1.0000
  H   H345      1.0  0.82321  0.36517  0.46563  1.0000
  C   C205      1.0  0.76827  0.35704  0.63051  1.0000
  H   H346      1.0  0.58230  0.04204  0.35752  1.0000
  C   C206      1.0  0.51817  0.01947  0.49132  1.0000
  C   C207      1.0  0.76600  0.43562  0.65169  1.0000
  C   C208      1.0  0.75974  0.39931  0.62228  1.0000
  C   C209      1.0  0.94767  0.13644  0.56761  1.0000
  H   H347      1.0  0.74846  0.40421  0.59313  1.0000
  C   C210      1.0  0.73058  0.05283  0.51201  1.0000
  H   H348      1.0  0.69226  0.40173  0.53453  1.0000
  C   C211      1.0  0.68678  0.06086  0.45396  1.0000
  C   C212      1.0  0.71402  0.08197  0.48941  1.0000
  H   H349      1.0  0.67312  0.08304  0.43695  1.0000
  H   H350      1.0  0.72126  0.12015  0.49960  1.0000
  C   C213      1.0  0.93350  0.13269  0.47601  1.0000
  H   H351      1.0  0.73714  0.33632  0.51363  1.0000
  H   H352      1.0  0.77919  0.46726  0.47666  1.0000
  N   N16       1.0  0.73705  0.38299  0.46365  1.0000
  H   H353      1.0  0.93439  0.14359  0.44462  1.0000
  C   C214      1.0  0.92187  0.16178  0.54278  1.0000
  C   C215      1.0  0.86142  0.18173  0.47716  1.0000
  H   H354      1.0  0.65836  0.36784  0.44856  1.0000
  H   H355      1.0  0.83788  0.16039  0.50324  1.0000
  H   H356      1.0  0.75943  0.46821  0.64507  1.0000
  H   H357      1.0  0.84986  0.42313  0.49663  1.0000
  S   S57       1.0  0.86084  0.28478  0.65001  1.0000
  C   C216      1.0  0.81829  0.38117  0.49358  1.0000
  H   H358      1.0  0.84556  0.08423  0.48230  1.0000
  C   C217      1.0  0.73329  0.34775  0.43003  1.0000
  H   H359      1.0  0.84944  0.21121  0.46917  1.0000
  S   S58       1.0  0.55784  0.28644  0.38408  1.0000
  H   H360      1.0  0.69352  0.44545  0.49611  1.0000
  H   H361      1.0  0.70773  0.26684  0.41271  1.0000
  H   H362      1.0  0.98733  0.44163  0.59798  1.0000
  H   H363      1.0  0.65926  0.32714  0.48699  1.0000
  C   C218      1.0  0.67561  0.40366  0.50580  1.0000
  C   C219      1.0  0.72078  0.00325  0.49850  1.0000
  C   C220      1.0  0.61814  0.32561  0.35969  1.0000
  C   C221      1.0  0.76313  0.37522  0.49918  1.0000
  H   H364      1.0  0.85067  0.15434  0.45193  1.0000
  H   H365      1.0  0.82427  0.35740  0.51640  1.0000
  H   H366      1.0  0.62762  0.39871  0.38258  1.0000
  H   H367      1.0  0.55610  0.05142  0.50330  1.0000
  H   H368      1.0  0.66106  0.27174  0.44323  1.0000
  H   H369      1.0  0.71288  0.35399  0.40495  1.0000
  H   H370      1.0  0.93753  0.38867  0.56925  1.0000
  C   C222      1.0  0.76547  0.44042  0.45080  1.0000
  H   H371      1.0  0.80101  0.44243  0.39345  1.0000
  H   H372      1.0  0.72131  0.27774  0.46393  1.0000
  H   H373      1.0  0.87616  0.05186  0.45900  1.0000
  Fe  Fe27      1.0  0.50231  0.20795  0.35593  1.0000
  C   C223      1.0  0.68115  0.36807  0.47486  1.0000
  H   H374      1.0  0.94925  0.46511  0.65929  1.0000
  C   C224      1.0  0.70408  0.28776  0.43866  1.0000
  H   H375      1.0  0.87869  0.13345  0.54244  1.0000
  H   H376      1.0  0.77260  0.35795  0.41815  1.0000
  H   H377      1.0  0.88147  0.06078  0.51068  1.0000
  C   C225      1.0  0.67655  0.01093  0.44073  1.0000
  H   H378      1.0  0.92176  0.11553  0.59306  1.0000
  H   H379      1.0  0.73794  0.44986  0.43463  1.0000
  H   H380      1.0  0.63286  0.38914  0.51073  1.0000
  C   C226      1.0  0.94410  0.41715  0.59316  1.0000
  C   C227      1.0  0.78204  0.35059  0.66854  1.0000
  C   C228      1.0  0.81362  0.45888  0.42335  1.0000
  H   H381      1.0  0.76841  0.40419  0.52236  1.0000
  H   H382      1.0  0.92817  0.46153  0.55079  1.0000
  C   C229      1.0  0.88113  0.08001  0.48273  1.0000
  H   H383      1.0  0.92612  0.19630  0.55965  1.0000
  N   N17       1.0  0.94398  0.17883  0.50205  1.0000
  Fe  Fe28      1.0  0.81760  0.20048  0.67098  1.0000
  C   C230      1.0  0.91849  0.45063  0.58203  1.0000
  C   C231      1.0  0.64509  0.38066  0.36487  1.0000
  H   H384      1.0  0.98622  0.16728  0.57966  1.0000
  H   H385      1.0  0.87472  0.42356  0.58289  1.0000
  S   S59       1.0  0.97807  0.30616  0.58225  1.0000
  H   H386      1.0  0.92537  0.39315  0.61978  1.0000
  H   H387      1.0  0.95382  0.10746  0.55085  1.0000
  H   H388      1.0  0.88165  0.44550  0.65223  1.0000
  H   H389      1.0  0.84314  0.44892  0.43438  1.0000
  H   H390      1.0  0.50767  0.03727  0.46655  1.0000
  H   H391      1.0  0.78764  0.31755  0.67537  1.0000
  H   H392      1.0  0.96551  0.12263  0.47894  1.0000
  C   C232      1.0  0.92255  0.47981  0.64934  1.0000
  H   H393      1.0  0.71520  0.45476  0.35167  1.0000
  H   H394      1.0  0.61131  0.99811  0.51240  1.0000
  H   H395      1.0  0.93125  0.24591  0.50348  1.0000
  H   H396      1.0  0.56930  0.00273  0.54788  1.0000
  H   H397      1.0  0.93946  0.22740  0.45552  1.0000
  H   H398      1.0  0.85731  0.49310  0.60548  1.0000
  C   C233      1.0  0.69481  0.41251  0.34744  1.0000
  H   H399      1.0  0.77874  0.38468  0.83063  1.0000
  S   S60       1.0  0.63486  0.30798  0.92696  1.0000
  H   H400      1.0  0.62664  0.26033  0.00326  1.0000
  Fe  Fe29      1.0  0.93671  0.29808  0.92967  1.0000
  S   S61       1.0  0.85878  0.23122  0.95050  1.0000
  S   S62       1.0  0.95376  0.32839  0.86711  1.0000
  H   H401      1.0  0.69742  0.22136  0.74744  1.0000
  C   C234      1.0  0.77164  0.32103  0.96677  1.0000
  H   H402      1.0  0.74218  0.29176  0.75380  1.0000
  C   C235      1.0  0.87875  0.03417  0.89510  1.0000
  S   S63       1.0  0.94212  0.35324  0.97754  1.0000
  C   C236      1.0  0.78826  0.38688  0.69798  1.0000
  H   H403      1.0  0.87217  0.01799  0.81479  1.0000
  S   S64       1.0  0.80682  0.17325  0.73407  1.0000
  S   S65       1.0  0.50668  0.30136  0.97400  1.0000
  C   C237      1.0  0.75671  0.29424  0.00263  1.0000
  H   H404      1.0  0.79964  0.38225  0.72721  1.0000
  H   H405      1.0  0.76560  0.25022  0.73528  1.0000
  C   C238      1.0  0.51020  0.45370  0.83369  1.0000
  H   H406      1.0  0.75406  0.18462  0.90568  1.0000
  C   C239      1.0  0.78751  0.08434  0.97412  1.0000
  C   C240      1.0  0.91384  0.28460  0.83010  1.0000
  C   C241      1.0  0.87808  0.23137  0.83832  1.0000
  C   C242      1.0  0.84640  0.19736  0.80836  1.0000
  C   C243      1.0  0.85021  0.21629  0.77002  1.0000
  C   C244      1.0  0.88632  0.26942  0.76168  1.0000
  C   C245      1.0  0.91800  0.30348  0.79168  1.0000
  H   H407      1.0  0.87511  0.21625  0.86768  1.0000
  H   H408      1.0  0.81868  0.15626  0.81494  1.0000
  H   H409      1.0  0.88937  0.28445  0.73231  1.0000
  H   H410      1.0  0.94543  0.34468  0.78522  1.0000
  C   C246      1.0  0.68161  0.30379  0.95703  1.0000
  H   H411      1.0  0.62070  0.23701  0.85969  1.0000
  C   C247      1.0  0.81175  0.02099  0.99742  1.0000
  H   H412      1.0  0.56148  0.44689  0.87888  1.0000
  S   S66       1.0  0.79106  0.47603  0.72624  1.0000
  H   H413      1.0  0.89081  0.46862  0.98920  1.0000
  Fe  Fe30      1.0  0.90864  0.20783  0.98618  1.0000
  C   C248      1.0  0.62567  0.20167  0.86002  1.0000
  N   N18       1.0  0.55159  0.48836  0.80412  1.0000
  H   H414      1.0  0.74636  0.34879  0.91731  1.0000
  S   S67       1.0  0.98659  0.27173  0.96214  1.0000
  H   H415      1.0  0.80430  0.34892  0.85629  1.0000
  C   C249      1.0  0.73436  0.32678  0.94446  1.0000
  H   H416      1.0  0.69099  0.15436  0.88270  1.0000
  C   C250      1.0  0.66688  0.27723  0.99295  1.0000
  H   H417      1.0  0.74968  0.16906  0.85487  1.0000
  H   H418      1.0  0.80284  0.34918  0.80320  1.0000
  H   H419      1.0  0.63882  0.19722  0.88951  1.0000
  H   H420      1.0  0.53072  0.39147  0.84551  1.0000
  N   N19       1.0  0.72031  0.24604  0.83132  1.0000
  C   C251      1.0  0.72442  0.29972  0.83111  1.0000
  C   C252      1.0  0.66295  0.20424  0.82688  1.0000
  C   C253      1.0  0.75126  0.24077  0.79799  1.0000
  C   C254      1.0  0.74284  0.23948  0.86932  1.0000
  C   C255      1.0  0.78111  0.34778  0.83022  1.0000
  H   H421      1.0  0.52365  0.01836  0.95324  1.0000
  C   C256      1.0  0.73772  0.25191  0.75661  1.0000
  C   C257      1.0  0.73344  0.18343  0.87803  1.0000
  H   H422      1.0  0.70221  0.30371  0.80608  1.0000
  H   H423      1.0  0.70509  0.30474  0.85757  1.0000
  H   H424      1.0  0.65854  0.16423  0.82360  1.0000
  H   H425      1.0  0.64635  0.21071  0.79946  1.0000
  H   H426      1.0  0.79455  0.26700  0.80248  1.0000
  H   H427      1.0  0.74521  0.19998  0.79682  1.0000
  H   H428      1.0  0.78649  0.26650  0.87034  1.0000
  H   H429      1.0  0.72698  0.25106  0.89466  1.0000
  Fe  Fe31      1.0  0.54937  0.26292  0.94661  1.0000
  H   H430      1.0  0.60019  0.45227  0.72270  1.0000
  S   S68       1.0  0.89261  0.12375  0.99213  1.0000
  H   H431      1.0  0.57658  0.43127  0.79171  1.0000
  H   H432      1.0  0.98784  0.26265  0.75579  1.0000
  H   H433      1.0  0.88810  0.03342  0.92657  1.0000
  H   H434      1.0  0.81209  0.33823  0.95669  1.0000
  H   H435      1.0  0.58574  0.16678  0.85531  1.0000
  C   C258      1.0  0.73530  0.04327  0.96880  1.0000
  C   C259      1.0  0.78057  0.42962  0.68954  1.0000
  H   H436      1.0  0.52192  0.42232  0.76355  1.0000
  C   C260      1.0  0.52555  0.42165  0.86146  1.0000
  S   S69       1.0  0.51324  0.19158  0.98634  1.0000
  C   C261      1.0  0.82606  0.07335  0.98801  1.0000
  H   H437      1.0  0.89284  0.07660  0.88871  1.0000
  C   C262      1.0  0.56016  0.45340  0.77612  1.0000
  C   C263      1.0  0.59858  0.48219  0.74187  1.0000
  H   H438      1.0  0.79784  0.12439  0.96718  1.0000
  H   H439      1.0  0.90270  0.02284  0.87683  1.0000
  H   H440      1.0  0.70590  0.05217  0.95765  1.0000
  H   H441      1.0  0.97901  0.46367  0.00287  1.0000
  H   H442      1.0  0.49808  0.47735  0.85208  1.0000
  Fe  Fe32      1.0  0.86859  0.28382  0.00144  1.0000
  C   C264      1.0  0.81826  0.00198  0.88822  1.0000
  H   H443      1.0  0.80766  0.02577  0.86852  1.0000
  H   H444      1.0  0.80004  0.00139  0.91691  1.0000
  H   H445      1.0  0.84134  0.01232  0.00850  1.0000
  H   H446      1.0  0.85519  0.85880  0.22288  1.0000
  H   H447      1.0  0.83463  0.85890  0.11104  1.0000
  H   H448      1.0  0.66335  0.65050  0.17410  1.0000
  S   S70       1.0  0.68064  0.90878  0.32216  1.0000
  H   H449      1.0  0.50205  0.70605  0.09475  1.0000
  Fe  Fe33      1.0  0.60478  0.85126  0.29234  1.0000
  S   S71       1.0  0.58995  0.86627  0.22980  1.0000
  S   S72       1.0  0.60340  0.77893  0.31646  1.0000
  H   H450      1.0  0.78277  0.88179  0.23070  1.0000
  S   S73       1.0  0.61972  0.73872  0.09094  1.0000
  Fe  Fe34      1.0  0.81894  0.61699  0.29799  1.0000
  S   S74       1.0  0.90239  0.67004  0.31832  1.0000
  S   S75       1.0  0.75930  0.64000  0.27827  1.0000
  H   H451      1.0  0.94639  0.60350  0.11170  1.0000
  S   S76       1.0  0.90736  0.56133  0.33248  1.0000
  Fe  Fe35      1.0  0.92219  0.61731  0.28218  1.0000
  H   H452      1.0  0.55651  0.89290  0.02002  1.0000
  S   S77       1.0  0.83993  0.56874  0.25808  1.0000
  H   H453      1.0  0.86601  0.81297  0.24979  1.0000
  H   H454      1.0  0.65419  0.98906  0.25932  1.0000
  C   C265      1.0  0.70863  0.69163  0.30376  1.0000
  C   C266      1.0  0.75605  0.69047  0.30403  1.0000
  C   C267      1.0  0.70575  0.73355  0.32140  1.0000
  H   H455      1.0  0.71075  0.67431  0.21278  1.0000
  H   H456      1.0  0.49819  0.64993  0.12075  1.0000
  H   H457      1.0  0.67402  0.66009  0.28966  1.0000
  S   S78       1.0  0.55366  0.85501  0.33997  1.0000
  C   C268      1.0  0.59767  0.83009  0.19152  1.0000
  C   C269      1.0  0.59552  0.78175  0.19855  1.0000
  C   C270      1.0  0.60132  0.75361  0.16734  1.0000
  C   C271      1.0  0.60995  0.77384  0.12903  1.0000
  C   C272      1.0  0.61115  0.82169  0.12193  1.0000
  C   C273      1.0  0.60463  0.84948  0.15305  1.0000
  H   H458      1.0  0.58912  0.76593  0.22797  1.0000
  H   H459      1.0  0.59925  0.71609  0.17292  1.0000
  H   H460      1.0  0.61798  0.83781  0.09259  1.0000
  H   H461      1.0  0.60600  0.88669  0.14736  1.0000
  H   H462      1.0  0.73964  0.72311  0.14696  1.0000
  H   H463      1.0  0.88487  0.82422  0.19985  1.0000
  H   H464      1.0  0.69167  0.74289  0.15251  1.0000
  H   H465      1.0  0.58265  0.95981  0.30618  1.0000
  C   C274      1.0  0.68604  0.68451  0.19410  1.0000
  Fe  Fe36      1.0  0.61888  0.76456  0.02832  1.0000
  H   H466      1.0  0.97850  0.53953  0.23510  1.0000
  H   H467      1.0  0.92898  0.60357  0.18296  1.0000
  H   H468      1.0  0.65634  0.68787  0.21226  1.0000
  C   C275      1.0  0.96919  0.62408  0.17205  1.0000
  C   C276      1.0  0.51264  0.98124  0.27347  1.0000
  C   C277      1.0  0.75055  0.77518  0.33875  1.0000
  N   N20       1.0  0.75927  0.78366  0.19122  1.0000
  C   C278      1.0  0.71959  0.73480  0.16927  1.0000
  C   C279      1.0  0.78292  0.82853  0.16196  1.0000
  C   C280      1.0  0.72939  0.79553  0.22185  1.0000
  C   C281      1.0  0.79956  0.77231  0.20976  1.0000
  H   H469      1.0  0.52362  0.98160  0.24225  1.0000
  C   C282      1.0  0.81162  0.82066  0.12688  1.0000
  C   C283      1.0  0.76170  0.84453  0.24772  1.0000
  C   C284      1.0  0.85389  0.82042  0.22067  1.0000
  H   H470      1.0  0.81130  0.86671  0.17559  1.0000
  H   H471      1.0  0.75145  0.83554  0.14969  1.0000
  H   H472      1.0  0.69777  0.80053  0.20782  1.0000
  H   H473      1.0  0.70918  0.76213  0.24278  1.0000
  H   H474      1.0  0.78290  0.74821  0.23673  1.0000
  H   H475      1.0  0.80826  0.74722  0.18997  1.0000
  S   S79       1.0  0.57018  0.80149  0.01246  1.0000
  H   H476      1.0  0.59623  0.97734  0.23398  1.0000
  Fe  Fe37      1.0  0.82349  0.51677  0.31095  1.0000
  H   H477      1.0  0.78292  0.79208  0.10550  1.0000
  C   C285      1.0  0.80064  0.73131  0.32236  1.0000
  H   H478      1.0  0.78926  0.83933  0.26708  1.0000
  H   H479      1.0  0.73400  0.84909  0.26755  1.0000
  H   H480      1.0  0.83754  0.73095  0.32236  1.0000
  H   H481      1.0  0.49781  0.93942  0.28263  1.0000
  H   H482      1.0  0.66893  0.73378  0.32114  1.0000
  H   H483      1.0  0.83966  0.80750  0.13603  1.0000
  H   H484      1.0  0.55012  0.93581  0.05334  1.0000
  H   H485      1.0  0.98198  0.50733  0.11166  1.0000
  H   H486      1.0  0.90827  0.50733  0.14180  1.0000
  H   H487      1.0  0.95644  0.53487  0.07830  1.0000
  C   C286      1.0  0.52951  0.90730  0.02921  1.0000
  C   C287      1.0  0.97924  0.62382  0.13166  1.0000
  H   H488      1.0  0.97491  0.52043  0.01629  1.0000
  C   C288      1.0  0.79786  0.77364  0.33963  1.0000
  H   H489      1.0  0.49654  0.74602  0.14888  1.0000
  S   S80       1.0  0.74880  0.82976  0.35920  1.0000
  H   H490      1.0  0.68695  0.64813  0.54640  1.0000
  S   S81       1.0  0.63032  0.83983  0.40289  1.0000
  Fe  Fe38      1.0  0.77247  0.59881  0.63106  1.0000
  S   S82       1.0  0.84071  0.59091  0.65231  1.0000
  S   S83       1.0  0.74470  0.58016  0.56804  1.0000
  H   H491      1.0  0.70454  0.77636  0.47689  1.0000
  C   C289      1.0  0.80870  0.73234  0.52888  1.0000
  H   H492      1.0  0.84438  0.73282  0.51710  1.0000
  H   H493      1.0  0.83270  0.80571  0.35310  1.0000
  H   H494      1.0  0.76108  0.76717  0.42379  1.0000
  C   C290      1.0  0.68819  0.74628  0.45340  1.0000
  S   S84       1.0  0.90891  0.63542  0.42920  1.0000
  C   C291      1.0  0.86316  0.61783  0.46804  1.0000
  C   C292      1.0  0.88118  0.64025  0.50521  1.0000
  C   C293      1.0  0.84540  0.62819  0.53642  1.0000
  C   C294      1.0  0.79135  0.59351  0.53061  1.0000
  C   C295      1.0  0.77348  0.57062  0.49362  1.0000
  C   C296      1.0  0.80922  0.58255  0.46249  1.0000
  H   H495      1.0  0.92285  0.66751  0.50980  1.0000
  H   H496      1.0  0.85949  0.64630  0.56479  1.0000
  H   H497      1.0  0.73165  0.54412  0.48890  1.0000
  H   H498      1.0  0.79489  0.56498  0.43412  1.0000
  C   C297      1.0  0.89913  0.52170  0.59753  1.0000
  H   H499      1.0  0.91052  0.55790  0.61512  1.0000
  H   H500      1.0  0.67838  0.63244  0.46051  1.0000
  H   H501      1.0  0.78167  0.69288  0.54163  1.0000
  H   H502      1.0  0.68653  0.94405  0.45313  1.0000
  H   H503      1.0  0.80883  0.68262  0.46492  1.0000
  Fe  Fe39      1.0  0.67530  0.83639  0.35046  1.0000
  H   H504      1.0  0.82137  0.73453  0.43161  1.0000
  S   S85       1.0  0.63878  0.98366  0.39776  1.0000
  H   H505      1.0  0.60115  0.91652  0.54994  1.0000
  H   H506      1.0  0.67782  0.69863  0.52317  1.0000
  Fe  Fe40      1.0  0.88107  0.60998  0.36666  1.0000
  H   H507      1.0  0.75714  0.76195  0.51359  1.0000
  C   C298      1.0  0.72827  0.73104  0.43777  1.0000
  H   H508      1.0  0.82237  0.76126  0.55334  1.0000
  Fe  Fe41      1.0  0.55863  0.78748  0.36674  1.0000
  H   H509      1.0  0.74905  0.66751  0.38748  1.0000
  H   H510      1.0  0.72437  0.63215  0.49426  1.0000
  N   N21       1.0  0.75035  0.70798  0.46678  1.0000
  H   H511      1.0  0.73573  0.61605  0.42297  1.0000
  C   C299      1.0  0.76580  0.65557  0.41184  1.0000
  H   H512      1.0  0.67745  0.76448  0.42903  1.0000
  H   H513      1.0  0.81309  0.78591  0.48344  1.0000
  C   C300      1.0  0.53991  0.89918  0.48526  1.0000
  Fe  Fe42      1.0  0.62959  0.90751  0.37189  1.0000
  C   C301      1.0  0.67532  0.65996  0.51881  1.0000
  C   C302      1.0  0.78904  0.69729  0.44480  1.0000
  C   C303      1.0  0.78159  0.74898  0.49755  1.0000
  H   H514      1.0  0.65082  0.71094  0.46276  1.0000
  H   H515      1.0  0.70721  0.70292  0.41356  1.0000
  C   C304      1.0  0.51073  0.96713  0.35883  1.0000
  H   H516      1.0  0.86490  0.54535  0.55118  1.0000
  C   C305      1.0  0.70719  0.65651  0.48374  1.0000
  H   H517      1.0  0.63275  0.63046  0.51471  1.0000
  C   C306      1.0  0.59362  0.94724  0.56227  1.0000
  H   H518      1.0  0.79833  0.65110  0.39895  1.0000
  S   S86       1.0  0.79713  0.67569  0.66223  1.0000
  C   C307      1.0  0.69418  0.98249  0.46296  1.0000
  C   C308      1.0  0.97679  0.68977  0.63166  1.0000
  H   H519      1.0  0.93604  0.67039  0.62248  1.0000
  C   C309      1.0  0.52360  0.97269  0.47578  1.0000
  H   H520      1.0  0.54139  0.87035  0.50571  1.0000
  H   H521      1.0  0.57983  0.92006  0.47139  1.0000
  N   N22       1.0  0.52903  0.93819  0.50640  1.0000
  H   H522      1.0  0.55802  0.98940  0.45525  1.0000
  H   H523      1.0  0.52878  0.94160  0.35783  1.0000
  H   H524      1.0  0.56519  0.93150  0.58695  1.0000
  H   H525      1.0  0.73349  0.98051  0.51583  1.0000
  H   H526      1.0  0.99603  0.55511  0.53955  1.0000
  H   H527      1.0  0.89290  0.50811  0.53297  1.0000
  H   H528      1.0  0.63186  0.97793  0.57501  1.0000
  C   C310      1.0  0.89882  0.53848  0.55481  1.0000
  C   C311      1.0  0.57627  0.97393  0.53134  1.0000
  H   H529      1.0  0.83401  0.50270  0.42026  1.0000
  H   H530      1.0  0.50471  0.83211  0.44501  1.0000
  C   C312      1.0  0.99183  0.53993  0.60375  1.0000
  H   H531      1.0  0.93477  0.57679  0.54804  1.0000
  H   H532      1.0  0.50570  0.97382  0.39008  1.0000
  H   H533      1.0  0.50867  0.89082  0.42557  1.0000
  S   S87       1.0  0.79608  0.56102  0.34893  1.0000
  N   N23       1.0  0.93393  0.49859  0.60731  1.0000
  C   C313      1.0  0.99283  0.72207  0.66492  1.0000
  C   C314      1.0  0.50022  0.86675  0.45266  1.0000
  Fe  Fe43      1.0  0.54454  0.74720  0.96087  1.0000
  S   S88       1.0  0.58873  0.70552  0.97876  1.0000
  Fe  Fe44      1.0  0.63859  0.85630  0.97483  1.0000
  S   S89       1.0  0.69033  0.82438  0.99492  1.0000
  S   S90       1.0  0.65604  0.94034  0.96846  1.0000
  Fe  Fe45      1.0  0.65652  0.76859  0.94345  1.0000
  S   S91       1.0  0.71833  0.76278  0.90599  1.0000
  S   S92       1.0  0.60946  0.80506  0.92150  1.0000
  H   H534      1.0  0.56493  0.55260  0.76476  1.0000
  H   H535      1.0  0.94650  0.73429  0.82873  1.0000
  S   S93       1.0  0.81547  0.61973  0.74058  1.0000
  S   S94       1.0  0.68658  0.63749  0.74556  1.0000
  C   C315      1.0  0.70829  0.72735  0.86150  1.0000
  C   C316      1.0  0.75059  0.72336  0.84543  1.0000
  C   C317      1.0  0.74472  0.69615  0.80999  1.0000
  C   C318      1.0  0.69649  0.67300  0.78998  1.0000
  C   C319      1.0  0.65430  0.67735  0.80587  1.0000
  C   C320      1.0  0.66001  0.70413  0.84153  1.0000
  H   H536      1.0  0.78811  0.74120  0.86061  1.0000
  H   H537      1.0  0.77751  0.69314  0.79815  1.0000
  H   H538      1.0  0.61691  0.65979  0.79054  1.0000
  H   H539      1.0  0.62720  0.70706  0.85341  1.0000
  H   H540      1.0  0.64144  0.58640  0.86816  1.0000
  C   C321      1.0  0.81998  0.91013  0.93378  1.0000
  Fe  Fe46      1.0  0.78908  0.54747  0.70327  1.0000
  C   C322      1.0  0.70129  0.93398  0.86900  1.0000
  C   C323      1.0  0.82275  0.91762  0.88898  1.0000
  H   H541      1.0  0.58579  0.50491  0.72325  1.0000
  C   C324      1.0  0.85246  0.97467  0.80971  1.0000
  H   H542      1.0  0.57827  0.53394  0.88335  1.0000
  H   H543      1.0  0.82897  0.94664  0.94979  1.0000
  H   H544      1.0  0.73398  0.91407  0.91753  1.0000
  C   C325      1.0  0.60059  0.55863  0.85788  1.0000
  H   H545      1.0  0.58338  0.58327  0.84872  1.0000
  H   H546      1.0  0.84910  0.89827  0.94302  1.0000
  Fe  Fe47      1.0  0.86185  0.66378  0.68720  1.0000
  Fe  Fe48      1.0  0.74839  0.62536  0.71320  1.0000
  H   H547      1.0  0.93210  0.62615  0.80432  1.0000
  H   H548      1.0  0.92995  0.67665  0.85949  1.0000
  H   H549      1.0  0.66242  0.91231  0.88404  1.0000
  N   N24       1.0  0.79548  0.94609  0.87297  1.0000
  H   H550      1.0  0.77678  0.90398  0.81787  1.0000
  C   C326      1.0  0.75933  0.97979  0.99230  1.0000
  H   H551      1.0  0.69320  0.92539  0.83734  1.0000
  H   H552      1.0  0.51403  0.94995  0.90896  1.0000
  C   C327      1.0  0.73800  0.91435  0.88509  1.0000
  H   H553      1.0  0.88604  0.67400  0.82246  1.0000
  H   H554      1.0  0.62302  0.50348  0.83489  1.0000
  H   H555      1.0  0.77585  0.96462  0.81600  1.0000
  C   C328      1.0  0.53258  0.52112  0.78277  1.0000
  H   H556      1.0  0.71687  0.97667  0.87477  1.0000
  C   C329      1.0  0.95297  0.66971  0.79947  1.0000
  H   H557      1.0  0.72070  0.87194  0.87646  1.0000
  H   H558      1.0  0.80545  0.87729  0.87579  1.0000
  H   H559      1.0  0.63948  0.50887  0.75233  1.0000
  C   C330      1.0  0.92864  0.69069  0.82954  1.0000
  H   H560      1.0  0.52127  0.54278  0.80387  1.0000
  C   C331      1.0  0.60342  0.52534  0.82381  1.0000
  C   C332      1.0  0.72119  0.99091  0.97756  1.0000
  H   H561      1.0  0.78056  0.87749  0.94276  1.0000
  H   H562      1.0  0.86510  0.93750  0.88093  1.0000
  S   S95       1.0  0.94693  0.72789  0.69480  1.0000
  H   H563      1.0  0.84771  0.96909  0.77748  1.0000
  H   H564      1.0  0.63192  0.55429  0.80238  1.0000
  H   H565      1.0  0.74866  0.93962  0.99959  1.0000
  H   H566      1.0  0.51225  0.82576  0.89671  1.0000
  H   H567      1.0  0.94051  0.67554  0.76986  1.0000
  C   C333      1.0  0.79728  0.94560  0.82884  1.0000
  H   H568      1.0  0.92616  0.50512  0.70972  1.0000
  H   H569      1.0  0.55430  0.90439  0.93642  1.0000
  H   H570      1.0  0.87816  0.95872  0.81896  1.0000
  C   C334      1.0  0.92834  0.52137  0.67988  1.0000
  H   H571      1.0  0.51562  0.84772  0.96623  1.0000
  H   H572      1.0  0.95772  0.58944  0.75814  1.0000
  H   H573      1.0  0.55908  0.96691  0.98417  1.0000
  C   C335      1.0  0.51286  0.87489  0.94467  1.0000
  C   C336      1.0  0.51945  0.93644  0.99548  1.0000
  H   H574      1.0  0.89512  0.52955  0.67796  1.0000
  S   S96       1.0  0.71824  0.54891  0.67965  1.0000
  H   H575      1.0  0.50235  0.95896  0.00929  1.0000
  H   H576      1.0  0.96658  0.55888  0.67723  1.0000
