data_image0
_chemical_formula_structural       CH2FeNHCHCHCH9CHSH4CHCHNCH4CHC2H4SHSC2H3CH2CH4C2H3SHCSCHCH5CHSHNH2CH2CH2CHC2H7CH5S2HC2H3CHSH4CHC2SH5CHSH2NCH3C2NC3H2SH4FeH5FeCHC2HC2H4C2H3C4H2CHCHSC5HC2H3CHCH3CSHSCSCFeHSHFeH2CH3C2HCHCSH3SHFeC2H3CHCH2CHNHCH2NSCSHCHCH2CHCH3CH3SH5CHFeCS2HS2FeCFeS2FeSFeHS2H3FeHSC3HS2CFeCFeHSCHCH3C2HCH2C3FeCH4C2HC2HCHC2HCHSFeHSH2CH2CHCHFeCSCHCSCFe2CH2C3SHS2H3CHCFeH3CHCHCH11SCHCHCSFeS3H3CNC3H2SCNSH2NC8HCH4CH2SH2C2H3FeH2CHCHSHFeH2CNH2C2H2C2H8C2H9SNHC3NC3SCH7CH2CH2C2HCSFeC3FeC3H2SH4CSC4H3CH2C4HSH3CH3CH6CH2CH3SCH8NH6CHCHCHCH6C2H2CH3CHCHC2HCH8CHSHC4H4FeS2H3NHSHSCHFeCH3SH3FeCH5FeCHSH3SHC2SCSH2FeCH2CH5C3H2C2HSC2SH3C4H5NC3HC2HNH3CSHS2HCH3NC6HCH4CH9CH3Fe2S2CS2CSC2H2CSH2FeSHSHSH4SHCH2CH2FeHC3H2FeCH3CSH2CSH2CHCHC2HC2H2CFeH3C2H2CH7CH2C3HC2HFeCFe2H2C3SCHSCHCH3FeHC3HC2HCH2C3H2FeH2C2H2CFeH2CH2S2HNSHCHNHC2HCH2CH3CH4C3H3NC2HCHC3HCFeSHSNHFeS2FeSCFeSFeS4FeSFe2S2C6H4C2HC4H4SHCHSNC8H20C2H5CHCHCSCH2C3HCNHC2H3SH4FeH6SHCHCH3FeH2SHCFeH3SC2H2C6HC2HCH5FeH2NH2CH4C3H3CHC2H4NCH3C2H5CH2CHCH3C5NC2HC2HC2SHC2H5SH2FeHCH3CH2C2HSHSC2HC2FeH2CH6SC3H4S2CH2C2HFeH2Fe2HSHC2H4SHFeSH3C2HC3H3CFeHCSHC2HCH4CH3SHCHSCHCH3SH4C2FeHCH2CS2NC2HCH3CHC2H2C3HCNFeHNH3CSCH2FeSCSC3HCH2SH3C2H3CH2CH3CSHCHSH5SH2C2H4NHCH4C2H2CFeH3C2FeCHSCH4CH2CH5CH3C2H2CFeHC2H3C2HCHFeSFeS2HFeS2CHCH3CHCFeS2FeS2FeSFeS3C5H2SCFeH2FeHC2NSC6H4C6H4C6H10C3HCH2SHNHSH3CHCH2SCH7CSHCH3CNCSCHCH2FeH2CH4C3H5CH3CHCHCH3CH8SCH2C2HCH6CH3CH3NC5HC3HSH2CH4SHCH5CH2CNHC3H5CH2SHCH3CFeH2C2H2N2C8HC2SCH4C2H4C2HCH2SCH5CSH2CHC2HCSHCFe2H2NCHCH9NC2H2SH2SH2CFeS2FeS2FeSFeS3CFeCFeCH4C5H2C6H3SC6H4C6H3SNC8H20NC3HCHC2H6NCHCSH2Fe2CHCHC2SHFeCHC2HFeHCH5NC2HCH4SH4SCHFeCSFeHCSH3S2C2H2SCHCHCHCHSCFeHS2CHCSCH2CH2SHCHCNH2C2H2CHSH3FeNCSH2CHCH5C2HCH2CH3FeH4CH2CH7SCHFeS2HC2HC2NHC3H4CH2SFeCHC2H4C2H3SC2HSFeH2CHSC2HSH5FeH4CHC2HSFe2NHCH3C2H13CH3CH3CH5C2HCHSH9CSCH2SCH6CH3FeHCH2CH2CH3CH2CH2C3FeHCH2C2HCH2CHFeC2H3SHCHFeH2CHC2H2CH3FeH3C2H2CSCHSHCFeH3CH4CH2NH2C2SHCHCHFeH4C3NHCFeS2HCH3CSHC3H2CH2CH2CHC3H3C4H6SCH4NH2CH3CH4NSHCHC2SCHSH2FeCH2CSCH4CHCH4C2HCH8SHSH5SHCSC2H4CHCH2C4H6SH3CSHCSHFeC4H3CHNHCH4CH2CH6CH3NCH3NCH3CH2S2H6CHCHCH2C2H6NHC2HCSH2CH2CHC2H2C3HCH2CHCH4FeH
_chemical_formula_sum              "C784 H1344 Fe112 N56 S224"
_cell_length_a       36.2517
_cell_length_b       36.3035
_cell_length_c       88.3009
_cell_angle_alpha    78.6319
_cell_angle_beta     78.3936
_cell_angle_gamma    100.205

_space_group_name_H-M_alt    "P 1"
_space_group_IT_number       1

loop_
  _space_group_symop_operation_xyz
  'x, y, z'

loop_
  _atom_site_type_symbol
  _atom_site_label
  _atom_site_symmetry_multiplicity
  _atom_site_fract_x
  _atom_site_fract_y
  _atom_site_fract_z
  _atom_site_occupancy
  C   C1        1.0  0.16774  0.47390  0.15497  1.0000
  H   H1        1.0  0.07207  0.39199  0.23825  1.0000
  H   H2        1.0  0.22863  0.44616  0.13730  1.0000
  Fe  Fe1       1.0  0.03907  0.46339  0.29780  1.0000
  N   N1        1.0  0.10663  0.45669  0.24625  1.0000
  H   H3        1.0  0.49633  0.40883  0.11281  1.0000
  C   C2        1.0  0.07966  0.39284  0.26835  1.0000
  H   H4        1.0  0.09907  0.37651  0.26266  1.0000
  C   C3        1.0  0.05654  0.41489  0.23534  1.0000
  H   H5        1.0  0.23472  0.48806  0.30454  1.0000
  C   C4        1.0  0.00276  0.48595  0.16719  1.0000
  H   H6        1.0  0.02576  0.40276  0.24188  1.0000
  H   H7        1.0  0.16412  0.44571  0.24261  1.0000
  H   H8        1.0  0.07608  0.38238  0.28139  1.0000
  H   H9        1.0  0.07653  0.42239  0.17297  1.0000
  H   H10       1.0  0.14357  0.43231  0.11159  1.0000
  H   H11       1.0  0.45232  0.05379  0.23878  1.0000
  H   H12       1.0  0.08729  0.48768  0.17845  1.0000
  H   H13       1.0  0.16050  0.43828  0.17866  1.0000
  H   H14       1.0  0.47294  0.06154  0.25493  1.0000
  C   C5        1.0  0.16968  0.44796  0.11436  1.0000
  H   H15       1.0  0.12168  0.44223  0.26884  1.0000
  S   S1        1.0  0.10351  0.48025  0.29466  1.0000
  H   H16       1.0  0.13029  0.40942  0.23926  1.0000
  H   H17       1.0  0.17603  0.47734  0.10663  1.0000
  H   H18       1.0  0.28171  0.49008  0.11778  1.0000
  H   H19       1.0  0.13625  0.47240  0.15771  1.0000
  C   C6        1.0  0.05601  0.44020  0.17131  1.0000
  H   H20       1.0  0.48413  0.07377  0.18519  1.0000
  C   C7        1.0  0.02299  0.42593  0.16640  1.0000
  H   H21       1.0  0.07363  0.44867  0.27045  1.0000
  N   N2        1.0  0.18380  0.47884  0.13735  1.0000
  C   C8        1.0  0.09608  0.43680  0.26372  1.0000
  H   H22       1.0  0.20406  0.43765  0.16530  1.0000
  H   H23       1.0  0.12903  0.44345  0.13670  1.0000
  H   H24       1.0  0.31509  0.48413  0.28407  1.0000
  H   H25       1.0  0.05043  0.38543  0.26623  1.0000
  C   C9        1.0  0.13829  0.44100  0.23758  1.0000
  H   H26       1.0  0.19392  0.43392  0.11098  1.0000
  C   C10       1.0  0.17314  0.43784  0.16615  1.0000
  C   C11       1.0  0.47748  0.07049  0.24178  1.0000
  H   H27       1.0  0.48786  0.03590  0.21181  1.0000
  H   H28       1.0  0.16542  0.41831  0.13814  1.0000
  H   H29       1.0  0.15773  0.41067  0.16417  1.0000
  H   H30       1.0  0.05742  0.42004  0.22243  1.0000
  S   S2        1.0  0.01679  0.38011  0.16224  1.0000
  H   H31       1.0  0.16964  0.48801  0.21663  1.0000
  S   S3        1.0  0.00632  0.40374  0.29927  1.0000
  C   C12       1.0  0.16078  0.44661  0.13230  1.0000
  C   C13       1.0  0.15210  0.45813  0.21945  1.0000
  H   H32       1.0  0.20765  0.48604  0.28983  1.0000
  H   H33       1.0  0.17139  0.44103  0.21409  1.0000
  H   H34       1.0  0.04667  0.45877  0.24801  1.0000
  C   C14       1.0  0.07136  0.45345  0.23955  1.0000
  H   H35       1.0  0.48579  0.48057  0.15343  1.0000
  H   H36       1.0  0.07661  0.47677  0.22854  1.0000
  C   C15       1.0  0.22586  0.47672  0.13477  1.0000
  H   H37       1.0  0.01797  0.49072  0.21276  1.0000
  H   H38       1.0  0.47410  0.08026  0.21161  1.0000
  H   H39       1.0  0.28484  0.48208  0.17599  1.0000
  H   H40       1.0  0.24243  0.48842  0.10835  1.0000
  C   C16       1.0  0.06222  0.47710  0.17433  1.0000
  C   C17       1.0  0.23746  0.49056  0.29163  1.0000
  H   H41       1.0  0.12799  0.45745  0.21346  1.0000
  H   H42       1.0  0.24992  0.46694  0.28801  1.0000
  H   H43       1.0  0.47787  0.10164  0.23859  1.0000
  S   S4        1.0  0.00625  0.49235  0.28186  1.0000
  H   H44       1.0  0.23934  0.48968  0.14332  1.0000
  C   C18       1.0  0.25298  0.49726  0.11828  1.0000
  S   S5        1.0  0.00200  0.46901  0.32033  1.0000
  C   C19       1.0  0.02895  0.30586  0.64641  1.0000
  H   H45       1.0  0.11998  0.09700  0.58367  1.0000
  C   C20       1.0  0.11621  0.04066  0.64067  1.0000
  H   H46       1.0  0.16800  0.01860  0.59875  1.0000
  H   H47       1.0  0.00662  0.40611  0.55819  1.0000
  H   H48       1.0  0.17451  0.04000  0.61433  1.0000
  H   H49       1.0  0.06262  0.26373  0.65253  1.0000
  H   H50       1.0  0.14705  0.04000  0.63967  1.0000
  C   C21       1.0  0.15610  0.01523  0.61169  1.0000
  H   H51       1.0  0.05142  0.38284  0.63023  1.0000
  S   S6        1.0  0.02243  0.11020  0.61803  1.0000
  H   H52       1.0  0.01873  0.41406  0.63135  1.0000
  N   N3        1.0  0.11419  0.01743  0.61493  1.0000
  H   H53       1.0  0.03832  0.30624  0.63353  1.0000
  H   H54       1.0  0.13203  0.08001  0.60984  1.0000
  C   C22       1.0  0.12255  0.06695  0.58816  1.0000
  H   H55       1.0  0.00625  0.47889  0.55905  1.0000
  H   H56       1.0  0.05141  0.32825  0.64831  1.0000
  C   C23       1.0  0.02472  0.38699  0.63773  1.0000
  H   H57       1.0  0.01836  0.45338  0.53498  1.0000
  H   H58       1.0  0.11304  0.07043  0.63626  1.0000
  C   C24       1.0  0.09636  0.01199  0.63243  1.0000
  H   H59       1.0  0.06556  0.01403  0.63425  1.0000
  C   C25       1.0  0.00652  0.06073  0.62618  1.0000
  C   C26       1.0  0.11228  0.05738  0.60656  1.0000
  H   H60       1.0  0.48946  0.08026  0.64777  1.0000
  H   H61       1.0  0.02990  0.39182  0.64915  1.0000
  H   H62       1.0  0.15270  0.06572  0.58305  1.0000
  H   H63       1.0  0.08285  0.06251  0.61039  1.0000
  H   H64       1.0  0.01043  0.04605  0.60352  1.0000
  H   H65       1.0  0.10227  0.04824  0.58347  1.0000
  H   H66       1.0  0.00377  0.36584  0.53851  1.0000
  C   C27       1.0  0.00324  0.03513  0.61632  1.0000
  H   H67       1.0  0.99801  0.06678  0.65031  1.0000
  H   H68       1.0  0.01718  0.40721  0.52154  1.0000
  H   H69       1.0  0.10187  0.03194  0.65358  1.0000
  H   H70       1.0  0.26045  0.09999  0.70817  1.0000
  H   H71       1.0  0.32178  0.08998  0.70851  1.0000
  S   S7        1.0  0.08303  0.14378  0.78757  1.0000
  S   S8        1.0  0.07697  0.04285  0.77830  1.0000
  H   H72       1.0  0.41025  0.00984  0.69074  1.0000
  C   C28       1.0  0.01333  0.13345  0.71414  1.0000
  C   C29       1.0  0.11035  0.14118  0.82983  1.0000
  H   H73       1.0  0.09419  0.05495  0.67728  1.0000
  H   H74       1.0  0.07304  0.35127  0.87852  1.0000
  H   H75       1.0  0.02671  0.33224  0.79400  1.0000
  C   C30       1.0  0.46427  0.11287  0.75349  1.0000
  H   H76       1.0  0.05418  0.07694  0.83055  1.0000
  S   S9        1.0  0.01750  0.22356  0.85815  1.0000
  H   H77       1.0  0.06184  0.24625  0.81665  1.0000
  H   H78       1.0  0.12064  0.36839  0.80592  1.0000
  H   H79       1.0  0.14059  0.48314  0.74600  1.0000
  H   H80       1.0  0.05377  0.03206  0.82552  1.0000
  C   C31       1.0  0.03385  0.10749  0.70512  1.0000
  H   H81       1.0  0.08419  0.40542  0.85491  1.0000
  C   C32       1.0  0.05700  0.15793  0.67032  1.0000
  C   C33       1.0  0.26410  0.02502  0.77099  1.0000
  S   S10       1.0  0.24112  0.07738  0.78719  1.0000
  H   H82       1.0  0.09837  0.10548  0.67485  1.0000
  H   H83       1.0  0.00456  0.12197  0.66976  1.0000
  H   H84       1.0  0.37314  0.07044  0.76409  1.0000
  H   H85       1.0  0.02612  0.26554  0.66913  1.0000
  H   H86       1.0  0.13876  0.13678  0.80656  1.0000
  C   C34       1.0  0.43468  0.03315  0.68477  1.0000
  H   H87       1.0  0.22094  0.05436  0.74273  1.0000
  S   S11       1.0  0.16381  0.10075  0.76442  1.0000
  H   H88       1.0  0.44620  0.08332  0.75899  1.0000
  H   H89       1.0  0.27111  0.08974  0.68331  1.0000
  N   N4        1.0  0.27105  0.04273  0.71442  1.0000
  C   C35       1.0  0.01750  0.13103  0.67921  1.0000
  H   H90       1.0  0.34911  0.03906  0.69763  1.0000
  H   H91       1.0  0.12347  0.31194  0.82474  1.0000
  H   H92       1.0  0.22159  0.10258  0.73333  1.0000
  C   C36       1.0  0.31126  0.05958  0.71563  1.0000
  C   C37       1.0  0.05537  0.02975  0.85665  1.0000
  N   N5        1.0  0.05470  0.30514  0.81149  1.0000
  C   C38       1.0  0.11177  0.36121  0.79535  1.0000
  C   C39       1.0  0.02071  0.32060  0.87457  1.0000
  C   C40       1.0  0.03870  0.06924  0.68470  1.0000
  H   H93       1.0  0.46592  0.12743  0.76333  1.0000
  H   H94       1.0  0.00284  0.22615  0.80309  1.0000
  S   S12       1.0  0.01530  0.28081  0.89036  1.0000
  H   H95       1.0  0.24206  0.02202  0.69747  1.0000
  H   H96       1.0  0.03320  0.06794  0.67282  1.0000
  H   H97       1.0  0.03347  0.08104  0.71412  1.0000
  H   H98       1.0  0.05310  0.23923  0.79244  1.0000
  Fe  Fe2       1.0  0.11074  0.09474  0.78356  1.0000
  H   H99       1.0  0.07738  0.16167  0.67794  1.0000
  H   H100      1.0  0.11369  0.45548  0.77232  1.0000
  H   H101      1.0  0.32380  0.09810  0.77907  1.0000
  H   H102      1.0  0.33472  0.00719  0.71734  1.0000
  H   H103      1.0  0.03501  0.29938  0.83682  1.0000
  Fe  Fe3       1.0  0.02009  0.16366  0.86933  1.0000
  C   C41       1.0  0.44826  0.04161  0.66819  1.0000
  H   H104      1.0  0.31929  0.08250  0.68345  1.0000
  C   C42       1.0  0.24653  0.07165  0.71669  1.0000
  C   C43       1.0  0.09481  0.29670  0.83268  1.0000
  H   H105      1.0  0.26551  0.09106  0.73677  1.0000
  C   C44       1.0  0.31488  0.07338  0.77444  1.0000
  C   C45       1.0  0.23860  0.07996  0.73339  1.0000
  H   H106      1.0  0.09502  0.30192  0.84466  1.0000
  H   H107      1.0  0.03293  0.35753  0.80872  1.0000
  H   H108      1.0  0.10705  0.03764  0.83749  1.0000
  H   H109      1.0  0.05843  0.03405  0.75042  1.0000
  C   C46       1.0  0.09154  0.31830  0.79853  1.0000
  C   C47       1.0  0.11321  0.14214  0.81367  1.0000
  H   H110      1.0  0.13334  0.13428  0.83522  1.0000
  H   H111      1.0  0.44869  0.12721  0.74531  1.0000
  H   H112      1.0  0.05272  0.18734  0.66594  1.0000
  C   C48       1.0  0.02617  0.48531  0.68017  1.0000
  C   C49       1.0  0.33120  0.02594  0.76000  1.0000
  C   C50       1.0  0.08283  0.14943  0.80682  1.0000
  C   C51       1.0  0.03242  0.26695  0.65617  1.0000
  H   H113      1.0  0.09062  0.07384  0.69438  1.0000
  H   H114      1.0  0.21814  0.06285  0.71391  1.0000
  C   C52       1.0  0.04798  0.15770  0.83195  1.0000
  H   H115      1.0  0.09328  0.38055  0.79137  1.0000
  C   C53       1.0  0.06155  0.31221  0.82708  1.0000
  H   H116      1.0  0.44296  0.04749  0.70661  1.0000
  S   S13       1.0  0.36553  0.00733  0.74884  1.0000
  C   C54       1.0  0.07737  0.14816  0.83905  1.0000
  C   C55       1.0  0.34256  0.03763  0.71057  1.0000
  C   C56       1.0  0.28934  0.06822  0.68383  1.0000
  C   C57       1.0  0.05067  0.15822  0.81586  1.0000
  C   C58       1.0  0.05983  0.02219  0.74014  1.0000
  H   H117      1.0  0.06468  0.12269  0.70087  1.0000
  C   C59       1.0  0.05246  0.35163  0.87118  1.0000
  C   C60       1.0  0.27554  0.05752  0.77663  1.0000
  H   H118      1.0  0.04733  0.01362  0.86931  1.0000
  H   H119      1.0  0.31132  0.06103  0.72811  1.0000
  H   H120      1.0  0.07040  0.14777  0.65990  1.0000
  C   C61       1.0  0.09559  0.02115  0.73084  1.0000
  H   H121      1.0  0.08599  0.31365  0.78702  1.0000
  C   C62       1.0  0.34276  0.05768  0.76605  1.0000
  H   H122      1.0  0.00510  0.20924  0.94166  1.0000
  H   H123      1.0  0.06743  0.06011  0.85685  1.0000
  H   H124      1.0  0.06743  0.34353  0.82673  1.0000
  C   C63       1.0  0.05869  0.38229  0.85785  1.0000
  S   S14       1.0  0.00198  0.16927  0.89440  1.0000
  H   H125      1.0  0.36984  0.05112  0.71317  1.0000
  S   S15       1.0  0.46951  0.00692  0.75727  1.0000
  C   C64       1.0  0.45311  0.05480  0.69376  1.0000
  S   S16       1.0  0.07162  0.14199  0.85963  1.0000
  C   C65       1.0  0.03236  0.38278  0.84825  1.0000
  Fe  Fe4       1.0  0.13209  0.04569  0.76070  1.0000
  H   H126      1.0  0.02254  0.27296  0.79051  1.0000
  S   S17       1.0  0.49330  0.06652  0.78888  1.0000
  H   H127      1.0  0.03615  0.47511  0.87295  1.0000
  Fe  Fe5       1.0  0.18194  0.06171  0.78312  1.0000
  H   H128      1.0  0.05689  0.47502  0.76581  1.0000
  H   H129      1.0  0.29058  0.05744  0.67284  1.0000
  C   C66       1.0  0.10510  0.48049  0.77634  1.0000
  H   H130      1.0  0.11267  0.30049  0.80103  1.0000
  H   H131      1.0  0.09124  0.26522  0.83397  1.0000
  H   H132      1.0  0.02246  0.16323  0.83895  1.0000
  C   C67       1.0  0.27172  0.03382  0.69842  1.0000
  C   C68       1.0  0.08291  0.07706  0.68272  1.0000
  H   H133      1.0  0.01355  0.24209  0.65394  1.0000
  C   C69       1.0  0.03995  0.26246  0.81361  1.0000
  H   H134      1.0  0.13849  0.36757  0.78566  1.0000
  C   C70       1.0  0.02577  0.32779  0.80692  1.0000
  S   S18       1.0  0.13147  0.06015  0.80266  1.0000
  H   H135      1.0  0.28741  0.01055  0.69686  1.0000
  H   H136      1.0  0.01848  0.06401  0.80981  1.0000
  H   H137      1.0  0.02769  0.03931  0.69221  1.0000
  S   S19       1.0  0.04252  0.42016  0.83100  1.0000
  H   H138      1.0  0.09607  0.46648  0.74208  1.0000
  Fe  Fe6       1.0  0.46409  0.01349  0.78239  1.0000
  C   C71       1.0  0.47935  0.07301  0.66060  1.0000
  C   C72       1.0  0.25487  0.00570  0.72710  1.0000
  H   H139      1.0  0.31657  0.02333  0.80951  1.0000
  H   H140      1.0  0.02217  0.49006  0.74848  1.0000
  H   H141      1.0  0.03081  0.34077  0.67085  1.0000
  C   C73       1.0  0.05516  0.49074  0.86118  1.0000
  H   H142      1.0  0.02700  0.16356  0.81062  1.0000
  C   C74       1.0  0.48536  0.08497  0.68620  1.0000
  H   H143      1.0  0.49381  0.18133  0.73491  1.0000
  H   H144      1.0  0.49258  0.03200  0.82967  1.0000
  C   C75       1.0  0.11791  0.49351  0.74063  1.0000
  H   H145      1.0  0.01472  0.25041  0.82405  1.0000
  N   N6        1.0  0.01729  0.09634  0.69185  1.0000
  H   H146      1.0  0.04633  0.47114  0.67410  1.0000
  C   C76       1.0  0.02927  0.24989  0.79900  1.0000
  H   H147      1.0  0.08754  0.46937  0.78884  1.0000
  H   H148      1.0  0.25272  0.00543  0.82654  1.0000
  N   N7        1.0  0.02084  0.02778  0.84947  1.0000
  S   S20       1.0  0.42816  0.01292  0.65666  1.0000
  C   C77       1.0  0.99942  0.33735  0.67541  1.0000
  S   S21       1.0  0.13881  0.03739  0.73587  1.0000
  H   H149      1.0  0.14034  0.48568  0.71696  1.0000
  C   C78       1.0  0.03535  0.04818  0.83204  1.0000
  H   H150      1.0  0.06833  0.46929  0.85594  1.0000
  C   C79       1.0  0.08913  0.01500  0.84804  1.0000
  H   H151      1.0  0.01623  0.48701  0.84567  1.0000
  H   H152      1.0  0.10822  0.00860  0.85613  1.0000
  C   C80       1.0  0.00426  0.05427  0.82276  1.0000
  H   H153      1.0  0.01323  0.25960  0.94056  1.0000
  C   C81       1.0  0.29197  0.00896  0.76286  1.0000
  H   H154      1.0  0.05393  0.49325  0.72926  1.0000
  H   H155      1.0  0.24933  0.00973  0.80662  1.0000
  H   H156      1.0  0.19058  0.01479  0.82070  1.0000
  C   C82       1.0  0.99981  0.35236  0.85196  1.0000
  H   H157      1.0  0.02916  0.14067  0.72310  1.0000
  H   H158      1.0  0.12479  0.00669  0.70979  1.0000
  H   H159      1.0  0.23393  0.01185  0.77313  1.0000
  S   S22       1.0  0.39932  0.00284  0.78821  1.0000
  H   H160      1.0  0.25837  0.01056  0.73875  1.0000
  H   H161      1.0  0.00925  0.08066  0.85506  1.0000
  H   H162      1.0  0.01335  0.16110  0.70611  1.0000
  H   H163      1.0  0.99917  0.03310  0.88219  1.0000
  H   H164      1.0  0.99824  0.14891  0.68396  1.0000
  C   C83       1.0  0.09716  0.00704  0.71717  1.0000
  H   H165      1.0  0.99790  0.00842  0.74336  1.0000
  Fe  Fe7       1.0  0.10246  0.00862  0.79576  1.0000
  C   C84       1.0  0.02557  0.00811  0.73601  1.0000
  S   S23       1.0  0.15483  0.00666  0.77783  1.0000
  S   S24       1.0  0.99799  0.43829  0.79472  1.0000
  H   H166      1.0  0.47033  0.66573  0.30196  1.0000
  S   S25       1.0  0.14236  0.65118  0.30217  1.0000
  S   S26       1.0  0.42963  0.87125  0.30228  1.0000
  Fe  Fe8       1.0  0.14475  0.60714  0.20069  1.0000
  C   C85       1.0  0.24189  0.75334  0.13108  1.0000
  Fe  Fe9       1.0  0.17874  0.55368  0.18279  1.0000
  S   S27       1.0  0.15530  0.57289  0.16170  1.0000
  S   S28       1.0  0.21634  0.51097  0.18422  1.0000
  Fe  Fe10      1.0  0.17523  0.63230  0.16502  1.0000
  S   S29       1.0  0.20771  0.67756  0.14285  1.0000
  Fe  Fe11      1.0  0.10097  0.57021  0.17959  1.0000
  H   H167      1.0  0.27487  0.76778  0.16908  1.0000
  S   S30       1.0  0.20296  0.61308  0.18470  1.0000
  S   S31       1.0  0.12260  0.54550  0.20052  1.0000
  H   H168      1.0  0.14937  0.50227  0.24984  1.0000
  H   H169      1.0  0.34332  0.61521  0.24818  1.0000
  H   H170      1.0  0.34062  0.50348  0.15225  1.0000
  Fe  Fe12      1.0  0.41208  0.57084  0.13123  1.0000
  H   H171      1.0  0.47369  0.93076  0.17661  1.0000
  S   S32       1.0  0.35635  0.56401  0.12361  1.0000
  C   C86       1.0  0.44774  0.94017  0.22225  1.0000
  C   C87       1.0  0.43418  0.72725  0.29934  1.0000
  C   C88       1.0  0.38518  0.75354  0.11759  1.0000
  H   H172      1.0  0.42731  0.66626  0.10421  1.0000
  S   S33       1.0  0.43343  0.52720  0.14690  1.0000
  S   S34       1.0  0.42083  0.61467  0.14548  1.0000
  C   C89       1.0  0.36890  0.64645  0.29504  1.0000
  Fe  Fe13      1.0  0.36307  0.86127  0.18909  1.0000
  C   C90       1.0  0.36515  0.78689  0.11994  1.0000
  Fe  Fe14      1.0  0.28483  0.68365  0.30091  1.0000
  H   H173      1.0  0.08355  0.61140  0.29004  1.0000
  S   S35       1.0  0.43491  0.55749  0.18651  1.0000
  C   C91       1.0  0.44487  0.58795  0.21178  1.0000
  H   H174      1.0  0.45297  0.79670  0.14342  1.0000
  C   C92       1.0  0.45038  0.74458  0.16056  1.0000
  H   H175      1.0  0.48300  0.66791  0.15141  1.0000
  H   H176      1.0  0.27654  0.63718  0.19875  1.0000
  H   H177      1.0  0.34138  0.88946  0.26733  1.0000
  C   C93       1.0  0.23220  0.72242  0.14447  1.0000
  C   C94       1.0  0.27566  0.77485  0.23209  1.0000
  H   H178      1.0  0.08694  0.51122  0.26548  1.0000
  C   C95       1.0  0.25557  0.52574  0.16751  1.0000
  H   H179      1.0  0.01916  0.66268  0.31854  1.0000
  H   H180      1.0  0.18083  0.49937  0.15889  1.0000
  C   C96       1.0  0.31755  0.54867  0.14043  1.0000
  C   C97       1.0  0.28702  0.56747  0.14137  1.0000
  C   C98       1.0  0.25665  0.55678  0.15508  1.0000
  Fe  Fe15      1.0  0.47637  0.91463  0.28323  1.0000
  C   C99       1.0  0.48416  0.71917  0.13434  1.0000
  H   H181      1.0  0.28725  0.59087  0.13164  1.0000
  H   H182      1.0  0.23404  0.57248  0.15591  1.0000
  H   H183      1.0  0.14744  0.72348  0.24109  1.0000
  H   H184      1.0  0.42867  0.83652  0.23437  1.0000
  C   C100      1.0  0.35162  0.63786  0.31138  1.0000
  C   C101      1.0  0.24857  0.81521  0.20529  1.0000
  H   H185      1.0  0.42306  0.69658  0.30600  1.0000
  C   C102      1.0  0.19870  0.83260  0.22364  1.0000
  C   C103      1.0  0.47659  0.75602  0.13205  1.0000
  H   H186      1.0  0.42449  0.56207  0.21913  1.0000
  C   C104      1.0  0.11638  0.52870  0.29539  1.0000
  H   H187      1.0  0.49516  0.86834  0.13506  1.0000
  C   C105      1.0  0.24966  0.66254  0.23800  1.0000
  C   C106      1.0  0.24393  0.72757  0.15829  1.0000
  H   H188      1.0  0.27260  0.68950  0.21306  1.0000
  C   C107      1.0  0.21327  0.65882  0.21782  1.0000
  H   H189      1.0  0.31332  0.55570  0.18396  1.0000
  S   S36       1.0  0.22839  0.72261  0.27123  1.0000
  Fe  Fe16      1.0  0.20569  0.67938  0.29469  1.0000
  H   H190      1.0  0.26068  0.74518  0.23263  1.0000
  S   S37       1.0  0.49348  0.96200  0.22381  1.0000
  H   H191      1.0  0.21809  0.84926  0.19048  1.0000
  H   H192      1.0  0.33632  0.54897  0.29941  1.0000
  C   C108      1.0  0.43904  0.94765  0.20740  1.0000
  H   H193      1.0  0.36008  0.66733  0.28681  1.0000
  H   H194      1.0  0.34422  0.65721  0.16886  1.0000
  C   C109      1.0  0.38661  0.89326  0.23295  1.0000
  H   H195      1.0  0.21738  0.63540  0.26216  1.0000
  C   C110      1.0  0.22919  0.82255  0.19126  1.0000
  H   H196      1.0  0.43567  0.71734  0.10039  1.0000
  Fe  Fe17      1.0  0.47927  0.63578  0.12844  1.0000
  C   C111      1.0  0.40566  0.92613  0.20500  1.0000
  S   S38       1.0  0.34202  0.86710  0.21390  1.0000
  C   C112      1.0  0.46813  0.77655  0.23784  1.0000
  H   H197      1.0  0.35241  0.78444  0.13272  1.0000
  C   C113      1.0  0.17120  0.82731  0.24004  1.0000
  S   S39       1.0  0.24979  0.64450  0.28978  1.0000
  C   C114      1.0  0.15795  0.57972  0.30231  1.0000
  Fe  Fe18      1.0  0.42377  0.89603  0.15801  1.0000
  Fe  Fe19      1.0  0.26600  0.75510  0.28368  1.0000
  C   C115      1.0  0.42096  0.91388  0.23522  1.0000
  H   H198      1.0  0.17998  0.83409  0.21509  1.0000
  H   H199      1.0  0.36626  0.87206  0.24280  1.0000
  C   C116      1.0  0.38482  0.68578  0.11991  1.0000
  C   C117      1.0  0.24777  0.67164  0.22206  1.0000
  C   C118      1.0  0.27457  0.79483  0.14507  1.0000
  S   S40       1.0  0.28167  0.81959  0.27736  1.0000
  H   H200      1.0  0.31561  0.50763  0.26458  1.0000
  S   S41       1.0  0.31493  0.72635  0.27788  1.0000
  S   S42       1.0  0.13691  0.62123  0.22458  1.0000
  H   H201      1.0  0.40012  0.93084  0.19327  1.0000
  H   H202      1.0  0.29042  0.59140  0.30381  1.0000
  H   H203      1.0  0.48275  0.77411  0.12012  1.0000
  C   C119      1.0  0.32126  0.83540  0.28495  1.0000
  H   H204      1.0  0.25129  0.82713  0.17992  1.0000
  C   C120      1.0  0.24729  0.80169  0.23350  1.0000
  Fe  Fe20      1.0  0.44807  0.57365  0.15957  1.0000
  H   H205      1.0  0.26884  0.81339  0.12114  1.0000
  H   H206      1.0  0.49120  0.62953  0.17314  1.0000
  H   H207      1.0  0.29907  0.78580  0.22104  1.0000
  C   C121      1.0  0.17743  0.73836  0.24052  1.0000
  H   H208      1.0  0.26467  0.83121  0.23221  1.0000
  C   C122      1.0  0.38015  0.88234  0.28277  1.0000
  H   H209      1.0  0.21301  0.74561  0.21722  1.0000
  C   C123      1.0  0.49006  0.68109  0.30796  1.0000
  H   H210      1.0  0.15637  0.61364  0.25478  1.0000
  H   H211      1.0  0.23040  0.79325  0.24603  1.0000
  H   H212      1.0  0.47038  0.76761  0.25037  1.0000
  H   H213      1.0  0.41162  0.63491  0.27680  1.0000
  H   H214      1.0  0.45858  0.96949  0.19758  1.0000
  H   H215      1.0  0.34941  0.59229  0.27387  1.0000
  H   H216      1.0  0.28993  0.77371  0.24215  1.0000
  H   H217      1.0  0.30806  0.78476  0.30426  1.0000
  H   H218      1.0  0.18619  0.82603  0.24984  1.0000
  H   H219      1.0  0.36204  0.55792  0.17443  1.0000
  H   H220      1.0  0.21844  0.86172  0.22074  1.0000
  S   S43       1.0  0.46886  0.59456  0.11319  1.0000
  C   C124      1.0  0.19625  0.76359  0.22345  1.0000
  H   H221      1.0  0.40371  0.76260  0.10522  1.0000
  C   C125      1.0  0.34686  0.87101  0.27746  1.0000
  H   H222      1.0  0.38495  0.77724  0.20448  1.0000
  C   C126      1.0  0.18038  0.63745  0.22958  1.0000
  S   S44       1.0  0.34050  0.80754  0.18189  1.0000
  Fe  Fe21      1.0  0.48998  0.61313  0.27321  1.0000
  S   S45       1.0  0.42510  0.85930  0.18135  1.0000
  S   S46       1.0  0.36292  0.90239  0.16653  1.0000
  S   S47       1.0  0.04183  0.54556  0.17664  1.0000
  H   H223      1.0  0.42716  0.90872  0.24683  1.0000
  H   H224      1.0  0.19264  0.71485  0.24328  1.0000
  H   H225      1.0  0.36799  0.74009  0.22228  1.0000
  C   C127      1.0  0.37990  0.89826  0.21768  1.0000
  N   N8        1.0  0.22198  0.80248  0.22184  1.0000
  C   C128      1.0  0.18194  0.62949  0.24558  1.0000
  C   C129      1.0  0.49665  0.65535  0.19277  1.0000
  C   C130      1.0  0.18005  0.51809  0.12907  1.0000
  H   H226      1.0  0.15804  0.85278  0.23980  1.0000
  H   H227      1.0  0.28448  0.61006  0.18473  1.0000
  S   S48       1.0  0.11850  0.63175  0.18113  1.0000
  C   C131      1.0  0.14935  0.54181  0.30051  1.0000
  N   N9        1.0  0.46775  0.74590  0.30500  1.0000
  S   S49       1.0  0.29285  0.67848  0.24329  1.0000
  H   H228      1.0  0.23661  0.70370  0.16866  1.0000
  H   H229      1.0  0.36521  0.78941  0.22240  1.0000
  N   N10       1.0  0.33480  0.62859  0.19362  1.0000
  C   C132      1.0  0.34924  0.66412  0.18006  1.0000
  C   C133      1.0  0.35636  0.59853  0.18945  1.0000
  C   C134      1.0  0.34228  0.63715  0.20887  1.0000
  C   C135      1.0  0.29192  0.61468  0.19595  1.0000
  C   C136      1.0  0.31702  0.51813  0.15298  1.0000
  C   C137      1.0  0.34156  0.57588  0.17801  1.0000
  C   C138      1.0  0.38405  0.65752  0.20784  1.0000
  C   C139      1.0  0.27238  0.57837  0.20958  1.0000
  H   H230      1.0  0.38113  0.67427  0.17759  1.0000
  C   C140      1.0  0.26081  0.53060  0.28145  1.0000
  H   H231      1.0  0.35665  0.57686  0.20025  1.0000
  H   H232      1.0  0.38742  0.61196  0.18377  1.0000
  H   H233      1.0  0.32292  0.65494  0.21359  1.0000
  H   H234      1.0  0.33514  0.61007  0.21840  1.0000
  C   C141      1.0  0.30585  0.53793  0.29915  1.0000
  H   H235      1.0  0.40920  0.83890  0.26157  1.0000
  H   H236      1.0  0.35395  0.73224  0.09633  1.0000
  S   S50       1.0  0.47109  0.97037  0.26836  1.0000
  H   H237      1.0  0.25818  0.52911  0.11640  1.0000
  H   H238      1.0  0.14687  0.80189  0.24267  1.0000
  C   C142      1.0  0.39060  0.59116  0.31627  1.0000
  C   C143      1.0  0.32368  0.51304  0.27558  1.0000
  H   H239      1.0  0.40583  0.64629  0.20053  1.0000
  H   H240      1.0  0.38906  0.65286  0.21998  1.0000
  H   H241      1.0  0.38907  0.68905  0.20295  1.0000
  Fe  Fe22      1.0  0.49157  0.55507  0.13018  1.0000
  H   H242      1.0  0.29213  0.55915  0.21201  1.0000
  H   H243      1.0  0.34281  0.78920  0.11311  1.0000
  C   C144      1.0  0.26574  0.76373  0.15849  1.0000
  H   H244      1.0  0.30354  0.60179  0.27756  1.0000
  C   C145      1.0  0.40837  0.60012  0.30002  1.0000
  H   H245      1.0  0.23295  0.74954  0.12040  1.0000
  S   S51       1.0  0.40558  0.84582  0.14780  1.0000
  H   H246      1.0  0.21175  0.66646  0.20553  1.0000
  Fe  Fe23      1.0  0.27518  0.69049  0.26732  1.0000
  H   H247      1.0  0.27051  0.84210  0.20406  1.0000
  H   H248      1.0  0.38806  0.67599  0.25072  1.0000
  C   C146      1.0  0.10184  0.59202  0.29308  1.0000
  N   N11       1.0  0.35899  0.71410  0.12060  1.0000
  H   H249      1.0  0.24504  0.55264  0.28483  1.0000
  H   H250      1.0  0.26065  0.58662  0.22076  1.0000
  C   C147      1.0  0.33317  0.70542  0.13713  1.0000
  C   C148      1.0  0.33562  0.71538  0.10823  1.0000
  H   H251      1.0  0.32571  0.56601  0.24931  1.0000
  H   H252      1.0  0.32228  0.67634  0.09307  1.0000
  C   C149      1.0  0.30673  0.66474  0.14374  1.0000
  C   C150      1.0  0.31503  0.67645  0.10590  1.0000
  H   H253      1.0  0.40291  0.68774  0.12869  1.0000
  H   H254      1.0  0.36483  0.80647  0.31453  1.0000
  H   H255      1.0  0.39714  0.69007  0.09395  1.0000
  H   H256      1.0  0.25886  0.53115  0.26899  1.0000
  H   H257      1.0  0.35091  0.71030  0.14579  1.0000
  H   H258      1.0  0.31345  0.72553  0.13772  1.0000
  H   H259      1.0  0.31277  0.73167  0.11092  1.0000
  H   H260      1.0  0.24828  0.56089  0.20623  1.0000
  C   C151      1.0  0.41253  0.69068  0.10357  1.0000
  C   C152      1.0  0.45569  0.59279  0.19523  1.0000
  H   H261      1.0  0.44465  0.81079  0.26178  1.0000
  H   H262      1.0  0.38198  0.80672  0.24269  1.0000
  H   H263      1.0  0.40027  0.90936  0.27666  1.0000
  H   H264      1.0  0.17552  0.75376  0.25014  1.0000
  H   H265      1.0  0.28558  0.65866  0.13663  1.0000
  H   H266      1.0  0.28916  0.66308  0.15581  1.0000
  H   H267      1.0  0.32308  0.64179  0.14513  1.0000
  H   H268      1.0  0.28314  0.67272  0.10965  1.0000
  H   H269      1.0  0.32234  0.65058  0.11234  1.0000
  S   S52       1.0  0.47569  0.94231  0.14304  1.0000
  N   N12       1.0  0.42676  0.77551  0.23711  1.0000
  H   H270      1.0  0.38709  0.81463  0.11566  1.0000
  C   C153      1.0  0.40160  0.73814  0.24773  1.0000
  C   C154      1.0  0.41291  0.80843  0.24272  1.0000
  C   C155      1.0  0.42428  0.77915  0.22003  1.0000
  N   N13       1.0  0.30244  0.54082  0.28222  1.0000
  C   C156      1.0  0.41091  0.70127  0.24330  1.0000
  C   C157      1.0  0.41561  0.81115  0.25969  1.0000
  C   C158      1.0  0.38306  0.77084  0.21742  1.0000
  S   S53       1.0  0.23861  0.71521  0.30776  1.0000
  C   C159      1.0  0.45928  0.76860  0.14521  1.0000
  H   H271      1.0  0.37057  0.73724  0.24813  1.0000
  H   H272      1.0  0.40388  0.73548  0.26026  1.0000
  H   H273      1.0  0.20592  0.79769  0.19174  1.0000
  H   H274      1.0  0.13950  0.55322  0.12358  1.0000
  H   H275      1.0  0.43850  0.80884  0.21274  1.0000
  H   H276      1.0  0.44036  0.75997  0.21433  1.0000
  H   H277      1.0  0.30077  0.69387  0.18174  1.0000
  C   C160      1.0  0.31967  0.58171  0.27271  1.0000
  H   H278      1.0  0.26509  0.79306  0.20299  1.0000
  H   H279      1.0  0.43880  0.69666  0.24570  1.0000
  C   C161      1.0  0.36026  0.82426  0.30403  1.0000
  H   H280      1.0  0.41182  0.70176  0.23069  1.0000
  H   H281      1.0  0.34716  0.72418  0.17209  1.0000
  C   C162      1.0  0.38703  0.85883  0.29600  1.0000
  C   C163      1.0  0.26231  0.78946  0.13148  1.0000
  H   H282      1.0  0.17258  0.76694  0.21733  1.0000
  C   C164      1.0  0.13413  0.60487  0.29862  1.0000
  S   S54       1.0  0.29998  0.84121  0.14466  1.0000
  Fe  Fe24      1.0  0.34491  0.84804  0.15866  1.0000
  C   C165      1.0  0.21655  0.64185  0.24977  1.0000
  C   C166      1.0  0.39806  0.62822  0.28940  1.0000
  C   C167      1.0  0.09271  0.55391  0.29166  1.0000
  Fe  Fe25      1.0  0.40278  0.80986  0.17181  1.0000
  C   C168      1.0  0.03568  0.50010  0.17220  1.0000
  C   C169      1.0  0.45966  0.61700  0.21878  1.0000
  C   C170      1.0  0.48528  0.65095  0.20925  1.0000
  H   H283      1.0  0.46029  0.80422  0.29619  1.0000
  H   H284      1.0  0.38317  0.73995  0.31386  1.0000
  S   S55       1.0  0.42690  0.75781  0.17724  1.0000
  H   H285      1.0  0.39337  0.78820  0.26879  1.0000
  H   H286      1.0  0.06721  0.54419  0.28774  1.0000
  H   H287      1.0  0.49272  0.78887  0.28270  1.0000
  H   H288      1.0  0.47945  0.75508  0.23186  1.0000
  C   C171      1.0  0.36823  0.52476  0.27185  1.0000
  S   S56       1.0  0.44234  0.57490  0.29316  1.0000
  C   C172      1.0  0.33160  0.69907  0.18214  1.0000
  C   C173      1.0  0.12356  0.49887  0.24473  1.0000
  C   C174      1.0  0.39836  0.74472  0.30119  1.0000
  C   C175      1.0  0.48210  0.62615  0.18581  1.0000
  H   H289      1.0  0.36849  0.65540  0.12356  1.0000
  H   H290      1.0  0.40544  0.75292  0.12553  1.0000
  H   H291      1.0  0.33510  0.70800  0.19316  1.0000
  C   C176      1.0  0.45967  0.70865  0.16278  1.0000
  H   H292      1.0  0.19561  0.54091  0.13381  1.0000
  H   H293      1.0  0.29170  0.59575  0.25306  1.0000
  C   C177      1.0  0.32803  0.81202  0.29826  1.0000
  C   C178      1.0  0.31974  0.58977  0.25485  1.0000
  C   C179      1.0  0.48286  0.78737  0.29564  1.0000
  C   C180      1.0  0.09628  0.52179  0.25243  1.0000
  H   H294      1.0  0.33909  0.59508  0.16701  1.0000
  S   S57       1.0  0.49686  0.67658  0.26360  1.0000
  H   H295      1.0  0.16708  0.52215  0.30387  1.0000
  H   H296      1.0  0.19421  0.52579  0.11618  1.0000
  H   H297      1.0  0.12216  0.52061  0.14262  1.0000
  C   C181      1.0  0.28140  0.55994  0.30889  1.0000
  H   H298      1.0  0.37867  0.52968  0.28241  1.0000
  H   H299      1.0  0.40480  0.77550  0.29501  1.0000
  H   H300      1.0  0.18192  0.58889  0.30726  1.0000
  C   C182      1.0  0.47644  0.69597  0.14969  1.0000
  H   H301      1.0  0.07093  0.52253  0.24723  1.0000
  H   H302      1.0  0.45027  0.61367  0.23149  1.0000
  H   H303      1.0  0.45294  0.69021  0.17462  1.0000
  H   H304      1.0  0.11229  0.55213  0.25022  1.0000
  H   H305      1.0  0.37730  0.72963  0.29566  1.0000
  H   H306      1.0  0.44367  0.72713  0.28653  1.0000
  C   C183      1.0  0.28554  0.50608  0.16638  1.0000
  H   H307      1.0  0.24994  0.55006  0.31023  1.0000
  H   H308      1.0  0.13394  0.51500  0.23207  1.0000
  C   C184      1.0  0.13833  0.52349  0.13022  1.0000
  H   H309      1.0  0.38031  0.55073  0.26184  1.0000
  H   H310      1.0  0.04336  0.62905  0.31107  1.0000
  H   H311      1.0  0.38046  0.50101  0.26815  1.0000
  S   S58       1.0  0.31562  0.66028  0.31889  1.0000
  C   C185      1.0  0.49701  0.81565  0.23001  1.0000
  H   H312      1.0  0.48917  0.81399  0.18579  1.0000
  H   H313      1.0  0.49118  0.83822  0.23641  1.0000
  H   H314      1.0  0.29828  0.50732  0.30606  1.0000
  H   H315      1.0  0.12179  0.50339  0.12472  1.0000
  H   H316      1.0  0.42541  0.78988  0.31987  1.0000
  H   H317      1.0  0.06072  0.92876  0.61204  1.0000
  H   H318      1.0  0.44009  0.71176  0.32892  1.0000
  H   H319      1.0  0.25893  0.79496  0.64203  1.0000
  N   N14       1.0  0.01378  0.57068  0.34248  1.0000
  H   H320      1.0  0.07601  0.60274  0.36487  1.0000
  H   H321      1.0  0.09728  0.93335  0.62277  1.0000
  H   H322      1.0  0.14682  0.96423  0.63191  1.0000
  H   H323      1.0  0.20730  0.86103  0.63601  1.0000
  H   H324      1.0  0.05673  0.64856  0.32699  1.0000
  H   H325      1.0  0.14058  0.84489  0.63440  1.0000
  C   C186      1.0  0.43321  0.76945  0.32903  1.0000
  H   H326      1.0  0.34932  0.60384  0.33460  1.0000
  C   C187      1.0  0.04539  0.56062  0.33117  1.0000
  H   H327      1.0  0.44932  0.78674  0.33569  1.0000
  C   C188      1.0  0.02568  0.57818  0.35719  1.0000
  H   H328      1.0  0.08566  0.61064  0.34408  1.0000
  C   C189      1.0  0.09100  0.98842  0.60828  1.0000
  H   H329      1.0  0.47794  0.67275  0.32102  1.0000
  H   H330      1.0  0.02845  0.55121  0.36500  1.0000
  H   H331      1.0  0.04206  0.49998  0.34336  1.0000
  H   H332      1.0  0.48341  0.74503  0.32743  1.0000
  H   H333      1.0  0.19521  0.98451  0.62191  1.0000
  H   H334      1.0  0.05197  0.94645  0.62949  1.0000
  C   C190      1.0  0.06325  0.52794  0.33849  1.0000
  C   C191      1.0  0.21129  0.86282  0.64799  1.0000
  H   H335      1.0  0.39857  0.56941  0.32448  1.0000
  H   H336      1.0  0.24381  0.92124  0.63581  1.0000
  C   C192      1.0  0.22356  0.90601  0.64748  1.0000
  H   H337      1.0  0.05608  0.63838  0.35388  1.0000
  H   H338      1.0  0.08589  0.52338  0.32898  1.0000
  H   H339      1.0  0.40570  0.75267  0.33757  1.0000
  C   C193      1.0  0.06274  0.60945  0.35465  1.0000
  H   H340      1.0  0.09519  0.98281  0.63949  1.0000
  C   C194      1.0  0.16567  0.97780  0.61994  1.0000
  H   H341      1.0  0.07770  0.53558  0.34775  1.0000
  C   C195      1.0  0.00085  0.60482  0.33408  1.0000
  C   C196      1.0  0.13561  0.86572  0.64171  1.0000
  H   H342      1.0  0.16463  0.95652  0.61246  1.0000
  C   C197      1.0  0.07482  0.94710  0.61890  1.0000
  H   H343      1.0  0.14485  0.78653  0.64278  1.0000
  H   H344      1.0  0.19742  0.79973  0.63640  1.0000
  H   H345      1.0  0.10573  0.86963  0.64214  1.0000
  H   H346      1.0  0.15542  0.89400  0.63561  1.0000
  H   H347      1.0  0.01489  0.51547  0.54120  1.0000
  H   H348      1.0  0.10821  0.98589  0.59672  1.0000
  H   H349      1.0  0.23672  0.85027  0.64916  1.0000
  H   H350      1.0  0.07004  0.58558  0.32555  1.0000
  C   C198      1.0  0.45692  0.74159  0.32278  1.0000
  H   H351      1.0  0.17289  0.75357  0.64859  1.0000
  S   S59       1.0  0.31532  0.85064  0.64902  1.0000
  H   H352      1.0  0.19857  0.91977  0.64907  1.0000
  C   C199      1.0  0.17209  0.78461  0.64635  1.0000
  C   C200      1.0  0.27017  0.78004  0.65128  1.0000
  C   C201      1.0  0.36282  0.61059  0.32198  1.0000
  C   C202      1.0  0.03223  0.63790  0.32213  1.0000
  H   H353      1.0  0.28623  0.55506  0.32109  1.0000
  H   H354      1.0  0.03461  0.55274  0.32100  1.0000
  H   H355      1.0  0.00247  0.58741  0.36484  1.0000
  H   H356      1.0  0.06518  0.99835  0.60555  1.0000
  Fe  Fe26      1.0  0.14284  0.77557  0.81433  1.0000
  S   S60       1.0  0.12005  0.80501  0.83309  1.0000
  S   S61       1.0  0.19065  0.80645  0.79284  1.0000
  H   H357      1.0  0.29938  0.89594  0.78787  1.0000
  H   H358      1.0  0.16657  0.52873  0.72091  1.0000
  H   H359      1.0  0.14581  0.78024  0.67067  1.0000
  N   N15       1.0  0.10144  0.52102  0.74932  1.0000
  H   H360      1.0  0.28316  0.98324  0.75890  1.0000
  S   S62       1.0  0.35319  0.90489  0.81794  1.0000
  H   H361      1.0  0.19451  0.98950  0.74099  1.0000
  S   S63       1.0  0.40107  0.84194  0.71009  1.0000
  C   C203      1.0  0.13412  0.55321  0.74928  1.0000
  H   H362      1.0  0.35631  0.78795  0.74958  1.0000
  Fe  Fe27      1.0  0.30843  0.91885  0.69186  1.0000
  C   C204      1.0  0.25513  0.74044  0.65795  1.0000
  H   H363      1.0  0.33862  0.79610  0.67195  1.0000
  H   H364      1.0  0.34533  0.79994  0.76832  1.0000
  H   H365      1.0  0.01003  0.89423  0.77120  1.0000
  S   S64       1.0  0.31548  0.85898  0.69185  1.0000
  H   H366      1.0  0.13117  0.50119  0.77665  1.0000
  H   H367      1.0  0.35947  0.79702  0.79266  1.0000
  H   H368      1.0  0.27368  0.92036  0.81323  1.0000
  Fe  Fe28      1.0  0.11472  0.59198  0.68468  1.0000
  C   C205      1.0  0.12417  0.57857  0.76099  1.0000
  H   H369      1.0  0.15937  0.54199  0.75192  1.0000
  H   H370      1.0  0.30457  0.92519  0.72744  1.0000
  H   H371      1.0  0.36020  0.89693  0.74656  1.0000
  H   H372      1.0  0.38809  0.85595  0.80009  1.0000
  H   H373      1.0  0.23066  0.62487  0.71447  1.0000
  Fe  Fe29      1.0  0.39995  0.94073  0.79664  1.0000
  C   C206      1.0  0.08035  0.49899  0.76603  1.0000
  H   H374      1.0  0.12478  0.91790  0.69788  1.0000
  S   S65       1.0  0.36631  0.93828  0.69644  1.0000
  H   H375      1.0  0.24887  0.73892  0.70117  1.0000
  H   H376      1.0  0.10015  0.65446  0.76309  1.0000
  H   H377      1.0  0.20779  0.72654  0.74553  1.0000
  S   S66       1.0  0.07592  0.62899  0.69305  1.0000
  H   H378      1.0  0.15217  0.79256  0.69427  1.0000
  C   C207      1.0  0.02643  0.77811  0.69427  1.0000
  C   C208      1.0  0.30043  0.99357  0.81050  1.0000
  S   S67       1.0  0.09631  0.64197  0.73283  1.0000
  C   C209      1.0  0.42909  0.86223  0.72179  1.0000
  S   S68       1.0  0.15404  0.60443  0.70052  1.0000
  H   H379      1.0  0.04566  0.93972  0.76244  1.0000
  H   H380      1.0  0.11933  0.71288  0.77235  1.0000
  Fe  Fe30      1.0  0.11585  0.67635  0.67342  1.0000
  C   C210      1.0  0.34868  0.81097  0.75541  1.0000
  H   H381      1.0  0.35038  0.94973  0.72904  1.0000
  H   H382      1.0  0.03539  0.82789  0.76546  1.0000
  C   C211      1.0  0.01374  0.53389  0.69448  1.0000
  H   H383      1.0  0.02927  0.68622  0.73232  1.0000
  H   H384      1.0  0.09426  0.55488  0.81234  1.0000
  H   H385      1.0  0.15823  0.83455  0.70203  1.0000
  H   H386      1.0  0.19689  0.78776  0.66628  1.0000
  H   H387      1.0  0.02721  0.53692  0.87737  1.0000
  C   C212      1.0  0.10794  0.68485  0.73883  1.0000
  C   C213      1.0  0.11812  0.72104  0.72806  1.0000
  C   C214      1.0  0.12904  0.75449  0.73336  1.0000
  H   H388      1.0  0.33857  0.77034  0.71730  1.0000
  H   H389      1.0  0.13737  0.78243  0.72511  1.0000
  C   C215      1.0  0.30111  0.79510  0.80495  1.0000
  C   C216      1.0  0.34114  0.81009  0.80019  1.0000
  H   H390      1.0  0.11753  0.72326  0.71574  1.0000
  S   S69       1.0  0.11490  0.63293  0.81411  1.0000
  C   C217      1.0  0.29461  0.84326  0.82023  1.0000
  C   C218      1.0  0.27794  0.81126  0.81524  1.0000
  S   S70       1.0  0.40018  0.92797  0.77291  1.0000
  H   H391      1.0  0.06115  0.61551  0.85478  1.0000
  H   H392      1.0  0.27659  0.85540  0.82825  1.0000
  H   H393      1.0  0.24709  0.79935  0.81921  1.0000
  C   C219      1.0  0.10574  0.84834  0.82743  1.0000
  C   C220      1.0  0.11577  0.86995  0.81158  1.0000
  C   C221      1.0  0.10449  0.90517  0.80776  1.0000
  C   C222      1.0  0.08207  0.91782  0.81973  1.0000
  H   H394      1.0  0.00590  0.80440  0.67447  1.0000
  H   H395      1.0  0.26452  0.97321  0.67500  1.0000
  H   H396      1.0  0.13238  0.85962  0.80236  1.0000
  H   H397      1.0  0.11220  0.92194  0.79556  1.0000
  H   H398      1.0  0.30710  0.98841  0.79836  1.0000
  N   N16       1.0  0.30335  0.85859  0.75397  1.0000
  C   C223      1.0  0.31054  0.81978  0.75212  1.0000
  C   C224      1.0  0.26306  0.85975  0.75214  1.0000
  C   C225      1.0  0.30509  0.86133  0.77062  1.0000
  H   H399      1.0  0.25292  0.94130  0.79814  1.0000
  C   C226      1.0  0.25378  0.84916  0.73707  1.0000
  C   C227      1.0  0.29833  0.89873  0.77523  1.0000
  H   H400      1.0  0.28649  0.79598  0.76006  1.0000
  N   N17       1.0  0.24489  0.71247  0.72597  1.0000
  H   H401      1.0  0.25646  0.88834  0.75239  1.0000
  H   H402      1.0  0.24125  0.83926  0.76238  1.0000
  H   H403      1.0  0.28343  0.83712  0.77944  1.0000
  C   C228      1.0  0.33404  0.86050  0.81423  1.0000
  S   S71       1.0  0.15227  0.63843  0.66353  1.0000
  H   H404      1.0  0.01912  0.66761  0.71096  1.0000
  S   S72       1.0  0.25372  0.92627  0.70680  1.0000
  S   S73       1.0  0.18704  0.72192  0.78433  1.0000
  H   H405      1.0  0.22743  0.85888  0.73500  1.0000
  C   C229      1.0  0.13057  0.75157  0.74926  1.0000
  H   H406      1.0  0.24724  0.81743  0.73875  1.0000
  H   H407      1.0  0.26976  0.90426  0.77419  1.0000
  H   H408      1.0  0.32189  0.92384  0.76840  1.0000
  N   N18       1.0  0.07813  0.87863  0.75114  1.0000
  C   C230      1.0  0.09336  0.86314  0.73700  1.0000
  C   C231      1.0  0.11087  0.90918  0.75236  1.0000
  C   C232      1.0  0.04008  0.51590  0.68656  1.0000
  C   C233      1.0  0.06364  0.84548  0.76574  1.0000
  C   C234      1.0  0.06583  0.82910  0.73400  1.0000
  C   C235      1.0  0.14598  0.89472  0.75664  1.0000
  H   H409      1.0  0.27910  0.95516  0.84363  1.0000
  C   C236      1.0  0.05846  0.85531  0.78222  1.0000
  H   H410      1.0  0.10224  0.88654  0.72587  1.0000
  H   H411      1.0  0.11972  0.85241  0.73818  1.0000
  H   H412      1.0  0.10140  0.92550  0.76119  1.0000
  H   H413      1.0  0.12182  0.93175  0.74092  1.0000
  C   C237      1.0  0.02579  0.91588  0.76003  1.0000
  H   H414      1.0  0.08834  0.56042  0.73014  1.0000
  H   H415      1.0  0.02102  0.62880  0.78080  1.0000
  H   H416      1.0  0.08349  0.82527  0.76558  1.0000
  H   H417      1.0  0.05919  0.80286  0.74386  1.0000
  H   H418      1.0  0.13502  0.87637  0.66462  1.0000
  H   H419      1.0  0.08040  0.82137  0.72312  1.0000
  H   H420      1.0  0.13759  0.86963  0.76705  1.0000
  H   H421      1.0  0.16390  0.88738  0.74639  1.0000
  H   H422      1.0  0.16489  0.91818  0.75976  1.0000
  C   C238      1.0  0.04307  0.76712  0.66777  1.0000
  H   H423      1.0  0.08273  0.57753  0.84943  1.0000
  H   H424      1.0  0.07925  0.51187  0.86282  1.0000
  H   H425      1.0  0.04067  0.77246  0.65555  1.0000
  Fe  Fe31      1.0  0.15676  0.77026  0.78022  1.0000
  Fe  Fe32      1.0  0.21629  0.75522  0.79904  1.0000
  S   S74       1.0  0.28001  0.75964  0.79636  1.0000
  S   S75       1.0  0.17104  0.72680  0.82157  1.0000
  C   C239      1.0  0.22107  0.93769  0.69551  1.0000
  S   S76       1.0  0.14963  0.79217  0.75557  1.0000
  S   S77       1.0  0.10617  0.74353  0.80126  1.0000
  C   C240      1.0  0.10781  0.68232  0.75480  1.0000
  S   S78       1.0  0.04028  0.88580  0.66881  1.0000
  C   C241      1.0  0.15501  0.93041  0.69296  1.0000
  C   C242      1.0  0.11912  0.71549  0.76000  1.0000
  H   H426      1.0  0.03769  0.58309  0.83423  1.0000
  H   H427      1.0  0.19432  0.88949  0.80758  1.0000
  C   C243      1.0  0.16799  0.95284  0.67732  1.0000
  S   S79       1.0  0.40101  0.89901  0.66734  1.0000
  H   H428      1.0  0.20803  0.95566  0.73029  1.0000
  H   H429      1.0  0.05664  0.92011  0.73607  1.0000
  Fe  Fe33      1.0  0.13897  0.69739  0.80636  1.0000
  S   S80       1.0  0.15488  0.69622  0.68837  1.0000
  H   H430      1.0  0.12268  0.82741  0.69089  1.0000
  S   S81       1.0  0.32821  0.94101  0.66545  1.0000
  H   H431      1.0  0.07639  0.84505  0.85156  1.0000
  S   S82       1.0  0.04654  0.90528  0.70311  1.0000
  H   H432      1.0  0.00561  0.68622  0.75202  1.0000
  H   H433      1.0  0.20095  0.63258  0.73181  1.0000
  H   H434      1.0  0.19834  0.99861  0.71985  1.0000
  H   H435      1.0  0.20228  0.90489  0.84216  1.0000
  S   S83       1.0  0.46456  0.95187  0.79297  1.0000
  H   H436      1.0  0.27532  0.90908  0.83844  1.0000
  C   C244      1.0  0.06479  0.58592  0.85936  1.0000
  H   H437      1.0  0.33379  0.85859  0.77275  1.0000
  H   H438      1.0  0.31516  0.72512  0.68239  1.0000
  C   C245      1.0  0.31533  0.78065  0.66805  1.0000
  H   H439      1.0  0.34499  0.87969  0.73094  1.0000
  H   H440      1.0  0.21357  0.78959  0.70546  1.0000
  Fe  Fe34      1.0  0.40487  0.99087  0.76413  1.0000
  H   H441      1.0  0.19401  0.96368  0.80476  1.0000
  C   C246      1.0  0.33430  0.88975  0.74180  1.0000
  C   C247      1.0  0.22683  0.77656  0.71487  1.0000
  C   C248      1.0  0.17271  0.79768  0.66188  1.0000
  H   H442      1.0  0.31209  0.97351  0.81839  1.0000
  H   H443      1.0  0.02224  0.87606  0.74549  1.0000
  Fe  Fe35      1.0  0.37581  0.88051  0.69380  1.0000
  C   C249      1.0  0.25458  0.67765  0.72060  1.0000
  H   H444      1.0  0.27111  0.66283  0.72825  1.0000
  H   H445      1.0  0.19512  0.66383  0.76521  1.0000
  H   H446      1.0  0.24466  0.68875  0.76012  1.0000
  C   C250      1.0  0.00821  0.56583  0.84057  1.0000
  S   S84       1.0  0.09020  0.52986  0.68502  1.0000
  H   H447      1.0  0.21170  0.84038  0.67815  1.0000
  H   H448      1.0  0.20116  0.72060  0.71287  1.0000
  C   C251      1.0  0.23035  0.73577  0.71323  1.0000
  S   S85       1.0  0.13574  0.95954  0.66522  1.0000
  H   H449      1.0  0.27414  0.68640  0.70841  1.0000
  H   H450      1.0  0.22957  0.64726  0.75246  1.0000
  C   C252      1.0  0.07320  0.53850  0.74141  1.0000
  H   H451      1.0  0.30761  0.76998  0.70398  1.0000
  C   C253      1.0  0.44854  0.91292  0.73484  1.0000
  H   H452      1.0  0.12296  0.56391  0.77340  1.0000
  C   C254      1.0  0.25665  0.99083  0.81654  1.0000
  C   C255      1.0  0.21982  0.64731  0.71986  1.0000
  H   H453      1.0  0.27779  0.86254  0.72634  1.0000
  C   C256      1.0  0.08396  0.61099  0.80383  1.0000
  C   C257      1.0  0.28067  0.73550  0.72877  1.0000
  H   H454      1.0  0.02382  0.52639  0.73131  1.0000
  H   H455      1.0  0.27400  0.75979  0.73396  1.0000
  C   C258      1.0  0.31506  0.75181  0.71403  1.0000
  Fe  Fe36      1.0  0.33954  0.88220  0.66563  1.0000
  H   H456      1.0  0.37330  0.83631  0.75088  1.0000
  H   H457      1.0  0.32725  0.72852  0.70993  1.0000
  H   H458      1.0  0.29178  0.71758  0.73780  1.0000
  C   C259      1.0  0.22182  0.67362  0.75537  1.0000
  C   C260      1.0  0.21365  0.70080  0.74125  1.0000
  H   H459      1.0  0.06351  0.88628  0.78203  1.0000
  H   H460      1.0  0.48908  0.98439  0.84207  1.0000
  C   C261      1.0  0.06328  0.63181  0.79491  1.0000
  H   H461      1.0  0.07916  0.98850  0.84418  1.0000
  H   H462      1.0  0.99826  0.55088  0.83176  1.0000
  H   H463      1.0  0.20823  0.77624  0.72649  1.0000
  H   H464      1.0  0.48156  0.97872  0.67941  1.0000
  H   H465      1.0  0.18583  0.87758  0.67688  1.0000
  H   H466      1.0  0.00466  0.57377  0.87173  1.0000
  H   H467      1.0  0.05773  0.55488  0.74899  1.0000
  C   C262      1.0  0.30197  0.74055  0.67398  1.0000
  H   H468      1.0  0.18575  0.68676  0.73929  1.0000
  H   H469      1.0  0.25537  0.79585  0.71313  1.0000
  C   C263      1.0  0.08421  0.86170  0.83932  1.0000
  C   C264      1.0  0.23407  0.96090  0.68000  1.0000
  C   C265      1.0  0.06305  0.99329  0.71299  1.0000
  H   H470      1.0  0.20242  0.66019  0.71221  1.0000
  C   C266      1.0  0.35742  0.84341  0.80444  1.0000
  C   C267      1.0  0.27110  0.72059  0.66928  1.0000
  H   H471      1.0  0.05086  0.74731  0.71171  1.0000
  Fe  Fe37      1.0  0.38727  0.95595  0.66984  1.0000
  C   C268      1.0  0.13754  0.50989  0.72278  1.0000
  Fe  Fe38      1.0  0.07340  0.93235  0.67725  1.0000
  Fe  Fe39      1.0  0.11799  0.64529  0.70709  1.0000
  H   H472      1.0  0.30939  0.94015  0.74526  1.0000
  H   H473      1.0  0.31150  0.81703  0.73972  1.0000
  C   C269      1.0  0.06742  0.73410  0.68889  1.0000
  C   C270      1.0  0.32344  0.92811  0.73572  1.0000
  C   C271      1.0  0.07801  0.57103  0.80561  1.0000
  S   S86       1.0  0.25217  0.67110  0.67791  1.0000
  C   C272      1.0  0.18150  0.92318  0.70212  1.0000
  H   H474      1.0  0.05447  0.90552  0.84471  1.0000
  S   S87       1.0  0.08816  0.71761  0.65989  1.0000
  C   C273      1.0  0.04850  0.75269  0.69948  1.0000
  H   H475      1.0  0.11978  0.52576  0.71633  1.0000
  C   C274      1.0  0.21161  0.98703  0.72945  1.0000
  H   H476      1.0  0.48776  0.83643  0.74579  1.0000
  H   H477      1.0  0.00352  0.92891  0.75539  1.0000
  H   H478      1.0  0.17156  0.90534  0.71414  1.0000
  Fe  Fe40      1.0  0.46443  0.94448  0.76821  1.0000
  H   H479      1.0  0.08340  0.71372  0.69315  1.0000
  C   C275      1.0  0.45044  0.83975  0.72961  1.0000
  C   C276      1.0  0.07190  0.89596  0.83546  1.0000
  C   C277      1.0  0.15201  0.82370  0.69168  1.0000
  H   H480      1.0  0.06739  0.66260  0.79364  1.0000
  C   C278      1.0  0.13939  0.85217  0.65891  1.0000
  C   C279      1.0  0.21940  0.88639  0.81267  1.0000
  H   H481      1.0  0.09636  0.58695  0.76080  1.0000
  C   C280      1.0  0.46981  0.89026  0.74268  1.0000
  H   H482      1.0  0.41294  0.91703  0.71804  1.0000
  H   H483      1.0  0.14697  0.60556  0.75774  1.0000
  C   C281      1.0  0.18347  0.84679  0.67662  1.0000
  C   C282      1.0  0.42886  0.89922  0.72415  1.0000
  C   C283      1.0  0.02511  0.55737  0.86660  1.0000
  H   H484      1.0  0.04622  0.52082  0.80059  1.0000
  H   H485      1.0  0.45072  0.81112  0.72786  1.0000
  Fe  Fe41      1.0  0.18806  0.65429  0.68040  1.0000
  H   H486      1.0  0.06477  0.98343  0.70219  1.0000
  H   H487      1.0  0.11373  0.82828  0.66521  1.0000
  C   C284      1.0  0.04588  0.89726  0.74741  1.0000
  C   C285      1.0  0.06476  0.74126  0.67304  1.0000
  H   H488      1.0  0.44775  0.94128  0.73683  1.0000
  H   H489      1.0  0.06547  0.51754  0.77255  1.0000
  C   C286      1.0  0.24594  0.92600  0.81097  1.0000
  Fe  Fe42      1.0  0.00948  0.86189  0.69460  1.0000
  H   H490      1.0  0.16963  0.92742  0.82250  1.0000
  H   H491      1.0  0.21772  0.98637  0.65888  1.0000
  C   C287      1.0  0.19136  0.95537  0.81786  1.0000
  H   H492      1.0  0.07786  0.84239  0.78887  1.0000
  H   H493      1.0  0.14532  0.57289  0.73716  1.0000
  S   S88       1.0  0.03181  0.97035  0.67490  1.0000
  S   S89       1.0  0.06494  0.96000  0.81558  1.0000
  H   H494      1.0  0.01207  0.60868  0.72824  1.0000
  N   N19       1.0  0.17632  0.84018  0.66100  1.0000
  S   S90       1.0  0.00267  0.80089  0.70761  1.0000
  H   H495      1.0  0.23193  0.72500  0.65401  1.0000
  C   C288      1.0  0.04173  0.50987  0.73751  1.0000
  H   H496      1.0  0.02394  0.55674  0.69980  1.0000
  N   N20       1.0  0.22996  0.95118  0.82114  1.0000
  H   H497      1.0  0.23560  0.86954  0.80570  1.0000
  C   C289      1.0  0.02373  0.78543  0.67842  1.0000
  C   C290      1.0  0.47123  0.85396  0.73982  1.0000
  H   H498      1.0  0.20949  0.86883  0.82512  1.0000
  C   C291      1.0  0.20751  0.96872  0.67095  1.0000
  H   H499      1.0  0.05685  0.52565  0.83863  1.0000
  H   H500      1.0  0.02855  0.84188  0.78950  1.0000
  C   C292      1.0  0.03681  0.61260  0.78777  1.0000
  H   H501      1.0  0.01138  0.97631  0.84029  1.0000
  H   H502      1.0  0.16465  0.97689  0.83828  1.0000
  H   H503      1.0  0.08173  0.58648  0.86852  1.0000
  C   C293      1.0  0.03025  0.57246  0.78991  1.0000
  H   H504      1.0  0.25025  0.91218  0.85748  1.0000
  H   H505      1.0  0.02924  0.94930  0.86459  1.0000
  H   H506      1.0  0.23959  0.91011  0.65673  1.0000
  H   H507      1.0  0.03868  0.83619  0.73173  1.0000
  C   C294      1.0  0.05084  0.55175  0.79891  1.0000
  C   C295      1.0  0.99968  0.98695  0.85085  1.0000
  C   C296      1.0  0.25936  0.92727  0.84464  1.0000
  H   H508      1.0  0.48910  0.99103  0.82148  1.0000
  H   H509      1.0  0.00429  0.66930  0.68560  1.0000
  H   H510      1.0  0.01592  0.64235  0.74811  1.0000
  N   N21       1.0  0.00920  0.53683  0.85525  1.0000
  C   C297      1.0  0.02718  0.99305  0.72257  1.0000
  C   C298      1.0  0.29943  0.80046  0.65665  1.0000
  H   H511      1.0  0.20999  0.95129  0.84595  1.0000
  C   C299      1.0  0.00021  0.95571  0.86544  1.0000
  H   H512      1.0  0.27154  0.98364  0.72479  1.0000
  C   C300      1.0  0.03375  0.51021  0.84954  1.0000
  C   C301      1.0  0.22331  0.93321  0.83866  1.0000
  C   C302      1.0  0.17248  0.98500  0.82509  1.0000
  H   H513      1.0  0.14503  0.98559  0.82140  1.0000
  C   C303      1.0  0.00685  0.66876  0.74299  1.0000
  Fe  Fe43      1.0  0.00196  0.93959  0.70006  1.0000
  S   S91       1.0  0.49637  0.90780  0.75539  1.0000
  H   H514      1.0  0.49436  0.95121  0.70340  1.0000
  S   S92       1.0  0.78288  0.35602  0.05745  1.0000
  N   N22       1.0  0.86349  0.19960  0.24142  1.0000
  H   H515      1.0  0.80222  0.17367  0.22530  1.0000
  Fe  Fe44      1.0  0.72705  0.07691  0.17239  1.0000
  S   S93       1.0  0.75147  0.11423  0.14778  1.0000
  S   S94       1.0  0.75919  0.07022  0.19155  1.0000
  Fe  Fe45      1.0  0.64928  0.04974  0.16644  1.0000
  S   S95       1.0  0.66534  0.08476  0.14132  1.0000
  C   C304      1.0  0.66190  0.21134  0.22947  1.0000
  Fe  Fe46      1.0  0.72098  0.06564  0.13968  1.0000
  S   S96       1.0  0.74677  0.05190  0.11683  1.0000
  Fe  Fe47      1.0  0.69458  0.13130  0.15090  1.0000
  S   S97       1.0  0.69577  0.19262  0.13991  1.0000
  S   S98       1.0  0.70226  0.02563  0.16405  1.0000
  S   S99       1.0  0.67280  0.09846  0.17645  1.0000
  S   S100      1.0  0.81486  0.28538  0.04461  1.0000
  Fe  Fe48      1.0  0.73034  0.31051  0.07162  1.0000
  S   S101      1.0  0.76302  0.26842  0.08129  1.0000
  Fe  Fe49      1.0  0.81528  0.31176  0.06550  1.0000
  Fe  Fe50      1.0  0.75954  0.24590  0.05968  1.0000
  S   S102      1.0  0.74637  0.18391  0.05823  1.0000
  S   S103      1.0  0.72203  0.28435  0.05117  1.0000
  C   C305      1.0  0.74974  0.08988  0.10048  1.0000
  C   C306      1.0  0.75014  0.08210  0.08556  1.0000
  C   C307      1.0  0.74985  0.11138  0.07262  1.0000
  C   C308      1.0  0.75015  0.14889  0.07439  1.0000
  C   C309      1.0  0.75099  0.15709  0.08918  1.0000
  C   C310      1.0  0.75030  0.12751  0.10227  1.0000
  H   H516      1.0  0.74964  0.05311  0.08412  1.0000
  H   H517      1.0  0.74905  0.10481  0.06124  1.0000
  H   H518      1.0  0.75076  0.18579  0.09070  1.0000
  H   H519      1.0  0.74983  0.13379  0.11375  1.0000
  C   C311      1.0  0.67365  0.21562  0.15364  1.0000
  C   C312      1.0  0.64743  0.19402  0.16781  1.0000
  H   H520      1.0  0.63936  0.16304  0.17004  1.0000
  C   C313      1.0  0.83419  0.09945  0.19091  1.0000
  C   C314      1.0  0.79996  0.10802  0.18781  1.0000
  C   C315      1.0  0.79891  0.14636  0.18160  1.0000
  C   C316      1.0  0.83236  0.17595  0.17835  1.0000
  H   H521      1.0  0.83509  0.06990  0.19574  1.0000
  H   H522      1.0  0.77247  0.15307  0.17918  1.0000
  H   H523      1.0  0.83154  0.20536  0.17343  1.0000
  H   H524      1.0  0.71046  0.32480  0.01768  1.0000
  S   S104      1.0  0.87013  0.32662  0.07340  1.0000
  H   H525      1.0  0.78215  0.43645  0.16239  1.0000
  C   C317      1.0  0.86778  0.12868  0.18715  1.0000
  H   H526      1.0  0.65888  0.31139  0.12330  1.0000
  S   S105      1.0  0.68065  0.31807  0.08956  1.0000
  N   N23       1.0  0.84778  0.21258  0.12687  1.0000
  C   C318      1.0  0.80774  0.20728  0.13719  1.0000
  C   C319      1.0  0.85452  0.17329  0.12563  1.0000
  C   C320      1.0  0.85168  0.23650  0.11042  1.0000
  C   C321      1.0  0.87673  0.23334  0.13418  1.0000
  C   C322      1.0  0.79392  0.24426  0.13912  1.0000
  C   C323      1.0  0.86177  0.14843  0.14058  1.0000
  C   C324      1.0  0.82303  0.22071  0.10126  1.0000
  C   C325      1.0  0.91974  0.23974  0.12554  1.0000
  H   H527      1.0  0.78584  0.19039  0.13255  1.0000
  H   H528      1.0  0.80525  0.19025  0.14939  1.0000
  H   H529      1.0  0.87905  0.17541  0.11540  1.0000
  H   H530      1.0  0.82921  0.15576  0.12296  1.0000
  H   H531      1.0  0.84847  0.26597  0.11093  1.0000
  H   H532      1.0  0.88120  0.24036  0.10277  1.0000
  H   H533      1.0  0.87211  0.26269  0.13445  1.0000
  H   H534      1.0  0.87267  0.21915  0.14694  1.0000
  H   H535      1.0  0.81231  0.26249  0.14466  1.0000
  H   H536      1.0  0.79108  0.26117  0.12768  1.0000
  H   H537      1.0  0.76460  0.23598  0.14727  1.0000
  H   H538      1.0  0.86508  0.11999  0.13834  1.0000
  H   H539      1.0  0.88872  0.16151  0.14349  1.0000
  H   H540      1.0  0.83707  0.14260  0.15104  1.0000
  H   H541      1.0  0.83020  0.24003  0.08913  1.0000
  H   H542      1.0  0.79281  0.22050  0.10701  1.0000
  H   H543      1.0  0.82524  0.19160  0.09964  1.0000
  H   H544      1.0  0.92986  0.26848  0.11698  1.0000
  H   H545      1.0  0.92582  0.21759  0.11903  1.0000
  H   H546      1.0  0.93742  0.23827  0.13448  1.0000
  C   C326      1.0  0.84975  0.21792  0.22735  1.0000
  C   C327      1.0  0.83175  0.18973  0.21845  1.0000
  H   H547      1.0  0.57449  0.19102  0.09956  1.0000
  H   H548      1.0  0.87305  0.23990  0.21835  1.0000
  H   H549      1.0  0.82777  0.23427  0.23122  1.0000
  H   H550      1.0  0.78321  0.25150  0.20727  1.0000
  H   H551      1.0  0.84962  0.16895  0.21577  1.0000
  C   C328      1.0  0.87918  0.29039  0.28205  1.0000
  H   H552      1.0  0.71560  0.28872  0.18427  1.0000
  C   C329      1.0  0.75291  0.25281  0.21237  1.0000
  H   H553      1.0  0.90657  0.27915  0.22898  1.0000
  C   C330      1.0  0.86711  0.16693  0.18079  1.0000
  S   S106      1.0  0.91072  0.20203  0.17538  1.0000
  C   C331      1.0  0.69687  0.34773  0.10146  1.0000
  H   H554      1.0  0.70322  0.27270  0.13957  1.0000
  H   H555      1.0  0.92030  0.33887  0.09411  1.0000
  C   C332      1.0  0.92506  0.19658  0.22089  1.0000
  C   C333      1.0  0.51545  0.06122  0.23374  1.0000
  C   C334      1.0  0.73695  0.23529  0.18879  1.0000
  H   H556      1.0  0.72424  0.17568  0.22557  1.0000
  C   C335      1.0  0.74154  0.27778  0.18019  1.0000
  N   N24       1.0  0.76225  0.20631  0.00796  1.0000
  H   H557      1.0  0.59736  0.43355  0.25224  1.0000
  C   C336      1.0  0.74865  0.16384  0.01589  1.0000
  C   C337      1.0  0.74051  0.22947  0.01748  1.0000
  H   H558      1.0  0.69142  0.18796  0.03486  1.0000
  H   H559      1.0  0.65367  0.47035  0.11895  1.0000
  H   H560      1.0  0.87315  0.35349  0.30794  1.0000
  S   S107      1.0  0.68162  0.45122  0.17305  1.0000
  H   H561      1.0  0.65136  0.40288  0.10485  1.0000
  H   H562      1.0  0.60637  0.40371  0.07853  1.0000
  H   H563      1.0  0.80020  0.34627  0.23933  1.0000
  H   H564      1.0  0.71708  0.15351  0.01771  1.0000
  Fe  Fe51      1.0  0.70978  0.20112  0.31078  1.0000
  H   H565      1.0  0.75290  0.23364  0.02776  1.0000
  H   H566      1.0  0.98911  0.39572  0.21090  1.0000
  H   H567      1.0  0.87087  0.41944  0.10207  1.0000
  H   H568      1.0  0.95865  0.34995  0.22139  1.0000
  H   H569      1.0  0.57895  0.13340  0.27340  1.0000
  H   H570      1.0  0.79091  0.47817  0.13624  1.0000
  S   S108      1.0  0.93296  0.31125  0.15060  1.0000
  H   H571      1.0  0.83340  0.43082  0.09243  1.0000
  C   C338      1.0  0.93080  0.39731  0.22414  1.0000
  H   H572      1.0  0.62943  0.45844  0.26106  1.0000
  C   C339      1.0  0.69680  0.21327  0.02465  1.0000
  H   H573      1.0  0.60116  0.34540  0.13538  1.0000
  H   H574      1.0  0.94082  0.39914  0.23510  1.0000
  H   H575      1.0  0.52734  0.44594  0.11783  1.0000
  Fe  Fe52      1.0  0.75796  0.47413  0.31202  1.0000
  H   H576      1.0  0.69017  0.05936  0.31615  1.0000
  H   H577      1.0  0.58998  0.47447  0.11222  1.0000
  S   S109      1.0  0.92680  0.43705  0.30692  1.0000
  H   H578      1.0  0.92984  0.22812  0.21662  1.0000
  C   C340      1.0  0.72410  0.32582  0.00548  1.0000
  Fe  Fe53      1.0  0.77778  0.32595  0.03772  1.0000
  H   H579      1.0  0.89449  0.12153  0.18907  1.0000
  H   H580      1.0  0.95346  0.19067  0.22218  1.0000
  H   H581      1.0  0.82610  0.42138  0.15676  1.0000
  S   S110      1.0  0.79303  0.35684  0.01175  1.0000
  C   C341      1.0  0.68288  0.25589  0.15054  1.0000
  C   C342      1.0  0.86151  0.33622  0.09233  1.0000
  H   H582      1.0  0.80104  0.33479  0.09418  1.0000
  H   H583      1.0  0.91793  0.18252  0.21142  1.0000
  C   C343      1.0  0.64118  0.25289  0.17614  1.0000
  C   C344      1.0  0.89150  0.33977  0.10017  1.0000
  C   C345      1.0  0.82430  0.33735  0.10016  1.0000
  C   C346      1.0  0.51507  0.47988  0.15405  1.0000
  C   C347      1.0  0.89468  0.17830  0.23693  1.0000
  C   C348      1.0  0.66678  0.27450  0.16184  1.0000
  H   H584      1.0  0.56681  0.38518  0.27279  1.0000
  C   C349      1.0  0.88397  0.34299  0.11603  1.0000
  C   C350      1.0  0.74770  0.24734  0.23045  1.0000
  H   H585      1.0  0.68426  0.20818  0.08497  1.0000
  C   C351      1.0  0.91199  0.30197  0.28753  1.0000
  H   H586      1.0  0.66769  0.10250  0.10642  1.0000
  H   H587      1.0  0.90709  0.34531  0.12207  1.0000
  H   H588      1.0  0.91054  0.17381  0.24647  1.0000
  H   H589      1.0  0.88133  0.14888  0.23608  1.0000
  H   H590      1.0  0.92045  0.28144  0.29608  1.0000
  Fe  Fe54      1.0  0.90801  0.26407  0.17294  1.0000
  H   H591      1.0  0.76765  0.29678  0.18153  1.0000
  H   H592      1.0  0.68113  0.16887  0.10961  1.0000
  N   N25       1.0  0.72502  0.22557  0.20683  1.0000
  H   H593      1.0  0.75371  0.10635  0.01357  1.0000
  H   H594      1.0  0.75089  0.28315  0.20809  1.0000
  C   C352      1.0  0.93337  0.34024  0.28233  1.0000
  H   H595      1.0  0.67855  0.19759  0.23719  1.0000
  H   H596      1.0  0.74553  0.28018  0.16720  1.0000
  H   H597      1.0  0.68396  0.26182  0.20984  1.0000
  H   H598      1.0  0.67487  0.30548  0.15966  1.0000
  C   C353      1.0  0.65290  0.20821  0.08682  1.0000
  C   C354      1.0  0.67951  0.33841  0.11779  1.0000
  C   C355      1.0  0.63909  0.19517  0.07288  1.0000
  H   H599      1.0  0.65274  0.23942  0.08473  1.0000
  H   H600      1.0  0.65085  0.23328  0.23515  1.0000
  H   H601      1.0  0.63697  0.14105  0.12234  1.0000
  C   C356      1.0  0.68430  0.23060  0.21196  1.0000
  H   H602      1.0  0.63611  0.18916  0.22987  1.0000
  C   C357      1.0  0.65299  0.12350  0.10056  1.0000
  C   C358      1.0  0.92264  0.36695  0.27131  1.0000
  H   H603      1.0  0.66626  0.21918  0.20439  1.0000
  H   H604      1.0  0.60668  0.25665  0.10102  1.0000
  H   H605      1.0  0.85384  0.26619  0.00287  1.0000
  H   H606      1.0  0.91627  0.28436  0.24745  1.0000
  N   N26       1.0  0.63068  0.18615  0.10358  1.0000
  C   C359      1.0  0.62354  0.39792  0.10137  1.0000
  H   H607      1.0  0.62778  0.19909  0.12695  1.0000
  H   H608      1.0  0.58758  0.14821  0.09656  1.0000
  H   H609      1.0  0.62410  0.10687  0.10077  1.0000
  C   C360      1.0  0.91154  0.26313  0.24014  1.0000
  C   C361      1.0  0.65090  0.15551  0.10964  1.0000
  H   H610      1.0  0.67068  0.13504  0.08819  1.0000
  H   H611      1.0  0.74950  0.21829  0.23660  1.0000
  H   H612      1.0  0.51583  0.39687  0.12968  1.0000
  H   H613      1.0  0.78423  0.34997  0.26628  1.0000
  H   H614      1.0  0.63975  0.32769  0.25425  1.0000
  C   C362      1.0  0.54112  0.12343  0.21261  1.0000
  H   H615      1.0  0.57607  0.07602  0.19667  1.0000
  H   H616      1.0  0.75516  0.38931  0.23569  1.0000
  C   C363      1.0  0.62876  0.44308  0.25135  1.0000
  H   H617      1.0  0.88118  0.37582  0.25737  1.0000
  C   C364      1.0  0.62277  0.06186  0.26506  1.0000
  H   H618      1.0  0.93852  0.25260  0.23774  1.0000
  H   H619      1.0  0.70822  0.15609  0.19484  1.0000
  H   H620      1.0  0.71557  0.21823  0.18391  1.0000
  C   C365      1.0  0.59470  0.05300  0.31236  1.0000
  C   C366      1.0  0.87691  0.23013  0.24974  1.0000
  C   C367      1.0  0.99622  0.44878  0.16444  1.0000
  C   C368      1.0  0.63261  0.41014  0.08304  1.0000
  C   C369      1.0  0.64047  0.38695  0.24140  1.0000
  N   N27       1.0  0.84632  0.46993  0.12453  1.0000
  C   C370      1.0  0.79013  0.39306  0.27980  1.0000
  C   C371      1.0  0.56508  0.06434  0.20975  1.0000
  H   H621      1.0  0.87164  0.48744  0.27669  1.0000
  C   C372      1.0  0.72875  0.18465  0.21249  1.0000
  C   C373      1.0  0.70138  0.15348  0.20786  1.0000
  H   H622      1.0  0.81836  0.14704  0.24766  1.0000
  C   C374      1.0  0.82882  0.17116  0.25291  1.0000
  C   C375      1.0  0.64054  0.13797  0.26813  1.0000
  S   S111      1.0  0.93549  0.29678  0.18834  1.0000
  H   H623      1.0  0.70601  0.43225  0.23960  1.0000
  C   C376      1.0  0.59065  0.47664  0.15575  1.0000
  C   C377      1.0  0.63307  0.21411  0.11418  1.0000
  H   H624      1.0  0.76501  0.22756  0.18452  1.0000
  H   H625      1.0  0.85271  0.24362  0.25401  1.0000
  H   H626      1.0  0.91893  0.48841  0.18705  1.0000
  H   H627      1.0  0.88596  0.21729  0.26052  1.0000
  H   H628      1.0  0.75338  0.15817  0.02816  1.0000
  S   S112      1.0  0.70857  0.36849  0.17419  1.0000
  H   H629      1.0  0.66312  0.23215  0.11134  1.0000
  H   H630      1.0  0.70514  0.12458  0.21346  1.0000
  Fe  Fe55      1.0  0.64562  0.33980  0.18322  1.0000
  H   H631      1.0  0.67450  0.35705  0.13960  1.0000
  C   C378      1.0  0.55892  0.14182  0.22469  1.0000
  H   H632      1.0  0.80401  0.18511  0.25542  1.0000
  H   H633      1.0  0.57575  0.15285  0.13115  1.0000
  H   H634      1.0  0.68447  0.06653  0.25978  1.0000
  C   C379      1.0  0.68842  0.36424  0.12709  1.0000
  H   H635      1.0  0.67065  0.15396  0.21217  1.0000
  H   H636      1.0  0.80917  0.12814  0.27547  1.0000
  C   C380      1.0  0.81693  0.34118  0.11592  1.0000
  C   C381      1.0  0.83487  0.15181  0.26915  1.0000
  H   H637      1.0  0.75877  0.18198  0.20773  1.0000
  S   S113      1.0  0.62306  0.27553  0.19084  1.0000
  H   H638      1.0  0.52845  0.05915  0.18497  1.0000
  S   S114      1.0  0.85187  0.28118  0.17900  1.0000
  C   C382      1.0  0.84657  0.34331  0.12395  1.0000
  C   C383      1.0  0.63115  0.21268  0.17903  1.0000
  H   H639      1.0  0.57584  0.42049  0.13475  1.0000
  C   C384      1.0  0.59288  0.08047  0.26913  1.0000
  C   C385      1.0  0.72411  0.38260  0.09454  1.0000
  Fe  Fe56      1.0  0.68885  0.41057  0.15708  1.0000
  H   H640      1.0  0.64822  0.33549  0.23315  1.0000
  H   H641      1.0  0.56686  0.49451  0.21378  1.0000
  C   C386      1.0  0.86833  0.31700  0.27099  1.0000
  H   H642      1.0  0.77518  0.38795  0.18620  1.0000
  H   H643      1.0  0.73731  0.39020  0.08189  1.0000
  H   H644      1.0  0.68624  0.35413  0.24142  1.0000
  H   H645      1.0  0.82124  0.40166  0.27558  1.0000
  H   H646      1.0  0.85368  0.40053  0.23504  1.0000
  H   H647      1.0  0.82191  0.34725  0.18962  1.0000
  S   S115      1.0  0.85281  0.24237  0.28906  1.0000
  C   C387      1.0  0.80721  0.35604  0.19973  1.0000
  C   C388      1.0  0.71420  0.39978  0.12010  1.0000
  C   C389      1.0  0.73248  0.40880  0.10383  1.0000
  H   H648      1.0  0.80839  0.20857  0.02029  1.0000
  H   H649      1.0  0.59563  0.02402  0.14624  1.0000
  H   H650      1.0  0.61997  0.47586  0.15642  1.0000
  H   H651      1.0  0.72080  0.25489  0.23609  1.0000
  S   S116      1.0  0.62667  0.37858  0.16469  1.0000
  S   S117      1.0  0.71880  0.14171  0.26281  1.0000
  C   C390      1.0  0.78050  0.37897  0.19778  1.0000
  H   H652      1.0  0.87231  0.42458  0.13462  1.0000
  H   H653      1.0  0.77157  0.26800  0.23250  1.0000
  C   C391      1.0  0.85945  0.43155  0.23472  1.0000
  C   C392      1.0  0.88059  0.45575  0.12858  1.0000
  H   H654      1.0  0.86052  0.13896  0.26790  1.0000
  Fe  Fe57      1.0  0.95548  0.34616  0.16667  1.0000
  H   H655      1.0  0.78796  0.34169  0.12197  1.0000
  H   H656      1.0  0.75222  0.43642  0.09828  1.0000
  Fe  Fe58      1.0  0.87834  0.33130  0.15799  1.0000
  Fe  Fe59      1.0  0.88125  0.31806  0.19241  1.0000
  H   H657      1.0  0.80926  0.27875  0.00956  1.0000
  S   S118      1.0  0.72134  0.43401  0.13137  1.0000
  H   H658      1.0  0.63091  0.40114  0.27947  1.0000
  C   C393      1.0  0.76398  0.34058  0.99962  1.0000
  C   C394      1.0  0.90135  0.47711  0.13906  1.0000
  H   H659      1.0  0.57557  0.12469  0.23127  1.0000
  H   H660      1.0  0.78620  0.40884  0.14785  1.0000
  H   H661      1.0  0.61307  0.26395  0.11988  1.0000
  H   H662      1.0  0.63652  0.16401  0.07365  1.0000
  S   S119      1.0  0.68042  0.20813  0.29067  1.0000
  H   H663      1.0  0.70998  0.09484  0.29785  1.0000
  Fe  Fe60      1.0  0.72746  0.18503  0.27775  1.0000
  S   S120      1.0  0.83616  0.34684  0.14381  1.0000
  H   H664      1.0  0.83690  0.17220  0.27695  1.0000
  H   H665      1.0  0.54062  0.01512  0.31296  1.0000
  H   H666      1.0  0.82915  0.20640  0.20690  1.0000
  C   C395      1.0  0.58916  0.16855  0.10439  1.0000
  C   C396      1.0  0.52221  0.46151  0.16832  1.0000
  H   H667      1.0  0.65286  0.39336  0.07806  1.0000
  C   C397      1.0  0.66148  0.08128  0.26263  1.0000
  C   C398      1.0  0.56002  0.46024  0.16923  1.0000
  C   C399      1.0  0.89034  0.35515  0.26550  1.0000
  H   H668      1.0  0.65553  0.40511  0.22929  1.0000
  H   H669      1.0  0.62188  0.41099  0.13020  1.0000
  H   H670      1.0  0.61115  0.19604  0.19003  1.0000
  C   C400      1.0  0.57706  0.36045  0.13516  1.0000
  Fe  Fe61      1.0  0.78994  0.23236  0.28894  1.0000
  H   H671      1.0  0.76358  0.14003  0.99479  1.0000
  C   C401      1.0  0.67039  0.11904  0.26455  1.0000
  S   S121      1.0  0.76809  0.24291  0.26687  1.0000
  H   H672      1.0  0.67109  0.30096  0.00004  1.0000
  C   C402      1.0  0.95886  0.37874  0.21413  1.0000
  C   C403      1.0  0.62854  0.38397  0.27044  1.0000
  H   H673      1.0  0.67211  0.05578  0.29858  1.0000
  C   C404      1.0  0.70965  0.37068  0.29080  1.0000
  H   H674      1.0  0.91548  0.45222  0.23842  1.0000
  H   H675      1.0  0.52619  0.10897  0.18463  1.0000
  H   H676      1.0  0.84793  0.39224  0.30491  1.0000
  H   H677      1.0  0.88238  0.47364  0.15102  1.0000
  C   C405      1.0  0.52251  0.41525  0.11741  1.0000
  H   H678      1.0  0.64420  0.36090  0.27343  1.0000
  H   H679      1.0  0.84293  0.30829  0.26675  1.0000
  H   H680      1.0  0.61450  0.10454  0.21267  1.0000
  S   S122      1.0  0.94909  0.41518  0.26504  1.0000
  H   H681      1.0  0.65302  0.02125  0.22964  1.0000
  C   C406      1.0  0.75915  0.21549  0.99089  1.0000
  H   H682      1.0  0.56128  0.11390  0.12208  1.0000
  S   S123      1.0  0.63441  0.37397  0.20145  1.0000
  C   C407      1.0  0.56456  0.14539  0.12111  1.0000
  H   H683      1.0  0.74408  0.25893  0.01013  1.0000
  C   C408      1.0  0.60521  0.24165  0.11342  1.0000
  H   H684      1.0  0.81781  0.41336  0.12337  1.0000
  H   H685      1.0  0.68099  0.20564  0.01585  1.0000
  H   H686      1.0  0.70156  0.39578  0.25650  1.0000
  S   S124      1.0  0.70095  0.48402  0.30799  1.0000
  H   H687      1.0  0.53665  0.06844  0.24072  1.0000
  H   H688      1.0  0.66048  0.21072  0.06154  1.0000
  H   H689      1.0  0.61108  0.20269  0.07203  1.0000
  H   H690      1.0  0.90281  0.45774  0.11754  1.0000
  C   C409      1.0  0.59288  0.40416  0.12770  1.0000
  C   C410      1.0  0.81477  0.34481  0.21466  1.0000
  Fe  Fe62      1.0  0.69575  0.40632  0.19090  1.0000
  H   H691      1.0  0.57906  0.16981  0.21819  1.0000
  C   C411      1.0  0.90509  0.43000  0.20296  1.0000
  H   H692      1.0  0.87855  0.40651  0.20773  1.0000
  H   H693      1.0  0.57595  0.34648  0.28631  1.0000
  C   C412      1.0  0.76201  0.39146  0.21066  1.0000
  S   S125      1.0  0.73032  0.42202  0.20802  1.0000
  S   S126      1.0  0.85080  0.31937  0.21678  1.0000
  N   N28       1.0  0.64688  0.40879  0.25384  1.0000
  C   C413      1.0  0.76768  0.13668  0.00707  1.0000
  C   C414      1.0  0.89340  0.46554  0.19415  1.0000
  H   H694      1.0  0.57498  0.22619  0.11946  1.0000
  C   C415      1.0  0.65381  0.10056  0.31017  1.0000
  H   H695      1.0  0.61676  0.48791  0.30229  1.0000
  H   H696      1.0  0.84538  0.35738  0.29347  1.0000
  H   H697      1.0  0.49844  0.44862  0.17870  1.0000
  C   C416      1.0  0.76923  0.36403  0.27450  1.0000
  H   H698      1.0  0.84060  0.44584  0.22821  1.0000
  C   C417      1.0  0.60074  0.07335  0.21647  1.0000
  C   C418      1.0  0.76939  0.37993  0.22563  1.0000
  H   H699      1.0  0.68714  0.44276  0.27415  1.0000
  H   H700      1.0  0.53489  0.15062  0.12272  1.0000
  C   C419      1.0  0.79499  0.35573  0.22771  1.0000
  C   C420      1.0  0.73068  0.39896  0.29643  1.0000
  C   C421      1.0  0.64498  0.47258  0.23505  1.0000
  H   H701      1.0  0.64712  0.16734  0.26929  1.0000
  C   C422      1.0  0.65454  0.34898  0.24286  1.0000
  N   N29       1.0  0.59571  0.41730  0.11013  1.0000
  Fe  Fe63      1.0  0.62120  0.41546  0.18216  1.0000
  H   H702      1.0  0.82858  0.49261  0.14519  1.0000
  N   N30       1.0  0.92551  0.43591  0.21587  1.0000
  H   H703      1.0  0.61267  0.36601  0.10481  1.0000
  H   H704      1.0  0.99465  0.44596  0.22684  1.0000
  H   H705      1.0  0.85005  0.43385  0.24721  1.0000
  C   C423      1.0  0.68976  0.42104  0.25226  1.0000
  S   S127      1.0  0.90287  0.37040  0.17207  1.0000
  C   C424      1.0  0.80437  0.21790  0.00801  1.0000
  H   H706      1.0  0.58014  0.34400  0.26614  1.0000
  H   H707      1.0  0.92361  0.42036  0.19358  1.0000
  Fe  Fe64      1.0  0.72296  0.26480  0.28153  1.0000
  S   S128      1.0  0.75316  0.17233  0.29883  1.0000
  C   C425      1.0  0.58541  0.36412  0.27382  1.0000
  S   S129      1.0  0.74859  0.26007  0.30266  1.0000
  C   C426      1.0  0.72895  0.35338  0.27978  1.0000
  C   C427      1.0  0.77083  0.41052  0.29076  1.0000
  C   C428      1.0  0.60195  0.11880  0.27034  1.0000
  H   H708      1.0  0.70160  0.22324  0.98858  1.0000
  C   C429      1.0  0.82325  0.26148  0.00206  1.0000
  H   H709      1.0  0.54951  0.37590  0.10610  1.0000
  H   H710      1.0  0.60945  0.38039  0.24118  1.0000
  S   S130      1.0  0.70282  0.31769  0.27295  1.0000
  H   H711      1.0  0.62256  0.05847  0.21130  1.0000
  H   H712      1.0  0.95822  0.34893  0.28686  1.0000
  H   H713      1.0  0.67864  0.36146  0.29534  1.0000
  C   C430      1.0  0.80260  0.43177  0.15214  1.0000
  C   C431      1.0  0.55703  0.40685  0.10629  1.0000
  H   H714      1.0  0.71582  0.41124  0.30536  1.0000
  H   H715      1.0  0.79881  0.14044  0.00682  1.0000
  H   H716      1.0  0.55735  0.34610  0.12896  1.0000
  C   C432      1.0  0.90245  0.45241  0.22801  1.0000
  H   H717      1.0  0.67334  0.46704  0.09883  1.0000
  H   H718      1.0  0.55646  0.03239  0.21162  1.0000
  C   C433      1.0  0.68266  0.07562  0.30564  1.0000
  H   H719      1.0  0.79979  0.45008  0.11377  1.0000
  H   H720      1.0  0.55800  0.42272  0.09401  1.0000
  H   H721      1.0  0.68429  0.23568  0.02943  1.0000
  C   C434      1.0  0.81715  0.47014  0.13932  1.0000
  S   S131      1.0  0.54398  0.05601  0.27398  1.0000
  H   H722      1.0  0.61608  0.03223  0.26419  1.0000
  C   C435      1.0  0.65087  0.47696  0.10648  1.0000
  H   H723      1.0  0.94996  0.37381  0.20327  1.0000
  S   S132      1.0  0.56901  0.43976  0.18739  1.0000
  H   H724      1.0  0.65032  0.11686  0.29873  1.0000
  H   H725      1.0  0.53630  0.14932  0.23330  1.0000
  H   H726      1.0  0.64728  0.44102  0.07833  1.0000
  H   H727      1.0  0.56124  0.13553  0.20061  1.0000
  H   H728      1.0  0.60442  0.14938  0.30177  1.0000
  S   S133      1.0  0.79722  0.44648  0.29738  1.0000
  H   H729      1.0  0.59442  0.06284  0.22958  1.0000
  H   H730      1.0  0.87130  0.46833  0.09280  1.0000
  C   C436      1.0  0.56917  0.00354  0.15287  1.0000
  C   C437      1.0  0.60965  0.46059  0.10509  1.0000
  H   H731      1.0  0.51016  0.02929  0.23581  1.0000
  H   H732      1.0  0.97102  0.43820  0.16043  1.0000
  H   H733      1.0  0.87705  0.45653  0.18560  1.0000
  H   H734      1.0  0.80772  0.30536  0.31585  1.0000
  N   N31       1.0  0.53079  0.07988  0.21618  1.0000
  H   H735      1.0  0.78493  0.34447  0.31304  1.0000
  C   C438      1.0  0.82730  0.44328  0.11585  1.0000
  H   H736      1.0  0.92024  0.49066  0.27800  1.0000
  H   H737      1.0  0.82235  0.20339  0.00043  1.0000
  H   H738      1.0  0.56798  0.49140  0.30859  1.0000
  H   H739      1.0  0.90283  0.37567  0.22834  1.0000
  C   C439      1.0  0.51076  0.07839  0.18964  1.0000
  C   C440      1.0  0.84639  0.36125  0.30547  1.0000
  H   H740      1.0  0.60845  0.47198  0.09258  1.0000
  H   H741      1.0  0.64737  0.00280  0.20489  1.0000
  C   C441      1.0  0.85251  0.44042  0.09997  1.0000
  Fe  Fe65      1.0  0.96974  0.43323  0.28545  1.0000
  H   H742      1.0  0.70292  0.17323  0.99548  1.0000
  H   H743      1.0  0.61038  0.03009  0.31021  1.0000
  H   H744      1.0  0.59475  0.06926  0.30032  1.0000
  C   C442      1.0  0.96399  0.46372  0.20837  1.0000
  C   C443      1.0  0.70188  0.31246  0.99548  1.0000
  Fe  Fe66      1.0  0.96674  0.49375  0.30463  1.0000
  C   C444      1.0  0.70229  0.45137  0.26135  1.0000
  H   H745      1.0  0.73367  0.45459  0.26071  1.0000
  S   S134      1.0  0.59252  0.01100  0.18025  1.0000
  C   C445      1.0  0.80952  0.33534  0.31731  1.0000
  H   H746      1.0  0.62890  0.46480  0.22624  1.0000
  H   H747      1.0  0.51476  0.13494  0.21206  1.0000
  H   H748      1.0  0.55973  0.11344  0.30632  1.0000
  H   H749      1.0  0.55998  0.35603  0.14759  1.0000
  C   C446      1.0  0.58353  0.49563  0.14155  1.0000
  H   H750      1.0  0.87409  0.47763  0.20224  1.0000
  H   H751      1.0  0.56336  0.15209  0.31605  1.0000
  C   C447      1.0  0.57944  0.13168  0.31140  1.0000
  H   H752      1.0  0.69654  0.00811  0.22169  1.0000
  H   H753      1.0  0.92629  0.46444  0.14096  1.0000
  H   H754      1.0  0.82351  0.27300  0.98944  1.0000
  H   H755      1.0  0.69814  0.48005  0.25584  1.0000
  H   H756      1.0  0.98114  0.45328  0.19890  1.0000
  C   C448      1.0  0.71938  0.20143  0.98771  1.0000
  H   H757      1.0  0.67607  0.47517  0.22997  1.0000
  H   H758      1.0  0.66820  0.12294  0.31540  1.0000
  H   H759      1.0  0.90338  0.48318  0.22275  1.0000
  C   C449      1.0  0.98941  0.47242  0.21985  1.0000
  C   C450      1.0  0.49938  0.06764  0.20803  1.0000
  H   H760      1.0  0.97665  0.48888  0.22806  1.0000
  H   H761      1.0  0.96024  0.49218  0.20226  1.0000
  C   C451      1.0  0.54571  0.49742  0.14071  1.0000
  Fe  Fe67      1.0  0.96615  0.41213  0.32050  1.0000
  H   H762      1.0  0.59515  0.21347  0.60519  1.0000
  C   C452      1.0  0.93538  0.26796  0.59077  1.0000
  C   C453      1.0  0.84078  0.39462  0.58879  1.0000
  H   H763      1.0  0.67551  0.47197  0.42419  1.0000
  H   H764      1.0  0.65364  0.43624  0.39637  1.0000
  H   H765      1.0  0.71383  0.44848  0.42657  1.0000
  C   C454      1.0  0.85183  0.18435  0.55693  1.0000
  C   C455      1.0  0.77990  0.10173  0.64520  1.0000
  H   H766      1.0  0.87178  0.33165  0.61486  1.0000
  C   C456      1.0  0.84077  0.32709  0.33996  1.0000
  H   H767      1.0  0.67448  0.08784  0.33873  1.0000
  Fe  Fe68      1.0  0.80961  0.35036  0.56003  1.0000
  S   S135      1.0  0.84865  0.35901  0.53579  1.0000
  Fe  Fe69      1.0  0.76935  0.26929  0.56005  1.0000
  S   S136      1.0  0.80583  0.27059  0.53613  1.0000
  S   S137      1.0  0.72921  0.21434  0.57537  1.0000
  H   H768      1.0  0.84819  0.45534  0.58775  1.0000
  Fe  Fe70      1.0  0.79603  0.33032  0.52911  1.0000
  S   S138      1.0  0.78482  0.35620  0.50540  1.0000
  S   S139      1.0  0.75583  0.32726  0.55264  1.0000
  C   C457      1.0  0.58061  0.15510  0.62089  1.0000
  H   H769      1.0  0.56129  0.09804  0.58483  1.0000
  C   C458      1.0  0.80618  0.18647  0.60028  1.0000
  H   H770      1.0  0.96608  0.36784  0.56222  1.0000
  H   H771      1.0  0.97476  0.38953  0.58607  1.0000
  H   H772      1.0  0.68890  0.36586  0.62833  1.0000
  C   C459      1.0  0.62953  0.35578  0.39381  1.0000
  H   H773      1.0  0.63227  0.02997  0.33364  1.0000
  C   C460      1.0  0.86489  0.11800  0.58343  1.0000
  Fe  Fe71      1.0  0.68923  0.30992  0.41263  1.0000
  S   S140      1.0  0.73864  0.32068  0.39130  1.0000
  S   S141      1.0  0.63321  0.32820  0.41196  1.0000
  Fe  Fe72      1.0  0.73257  0.27518  0.43571  1.0000
  S   S142      1.0  0.78527  0.28217  0.41618  1.0000
  S   S143      1.0  0.73409  0.24879  0.46099  1.0000
  Fe  Fe73      1.0  0.77526  0.34060  0.40693  1.0000
  S   S144      1.0  0.82145  0.39529  0.39692  1.0000
  Fe  Fe74      1.0  0.74467  0.26154  0.40198  1.0000
  S   S145      1.0  0.76651  0.22570  0.38552  1.0000
  S   S146      1.0  0.72557  0.33536  0.42747  1.0000
  S   S147      1.0  0.69217  0.24863  0.42241  1.0000
  C   C461      1.0  0.69902  0.19431  0.34956  1.0000
  C   C462      1.0  0.68065  0.20611  0.36275  1.0000
  C   C463      1.0  0.70125  0.21656  0.37375  1.0000
  C   C464      1.0  0.73983  0.21378  0.37189  1.0000
  C   C465      1.0  0.75788  0.20127  0.35885  1.0000
  H   H774      1.0  0.65062  0.20762  0.36437  1.0000
  H   H775      1.0  0.68711  0.22606  0.38381  1.0000
  S   S148      1.0  0.81920  0.29216  0.56946  1.0000
  C   C466      1.0  0.99404  0.48898  0.54887  1.0000
  Fe  Fe75      1.0  0.88507  0.11854  0.63278  1.0000
  H   H776      1.0  0.65388  0.48102  0.40080  1.0000
  H   H777      1.0  0.76311  0.15093  0.58428  1.0000
  Fe  Fe76      1.0  0.85477  0.29904  0.54478  1.0000
  H   H778      1.0  0.70759  0.29205  0.35025  1.0000
  C   C467      1.0  0.61954  0.05456  0.33610  1.0000
  C   C468      1.0  0.75076  0.32056  0.64659  1.0000
  N   N32       1.0  0.58201  0.12912  0.60950  1.0000
  S   S149      1.0  0.83846  0.07323  0.62962  1.0000
  C   C469      1.0  0.91125  0.37397  0.35739  1.0000
  C   C470      1.0  0.89115  0.34407  0.37060  1.0000
  C   C471      1.0  0.86347  0.35077  0.38261  1.0000
  C   C472      1.0  0.85638  0.38762  0.38171  1.0000
  C   C473      1.0  0.87695  0.41792  0.36861  1.0000
  C   C474      1.0  0.90411  0.41098  0.35631  1.0000
  H   H779      1.0  0.89640  0.31538  0.37138  1.0000
  H   H780      1.0  0.84792  0.32731  0.39261  1.0000
  H   H781      1.0  0.87117  0.44640  0.36778  1.0000
  H   H782      1.0  0.91941  0.43414  0.34603  1.0000
  C   C475      1.0  0.76833  0.32548  0.49376  1.0000
  C   C476      1.0  0.75801  0.34142  0.47983  1.0000
  C   C477      1.0  0.74634  0.31800  0.46993  1.0000
  C   C478      1.0  0.74557  0.27856  0.47375  1.0000
  C   C479      1.0  0.75524  0.26251  0.48782  1.0000
  C   C480      1.0  0.76655  0.28586  0.49780  1.0000
  H   H783      1.0  0.75898  0.37198  0.47670  1.0000
  H   H784      1.0  0.73810  0.33048  0.45934  1.0000
  H   H785      1.0  0.75442  0.23197  0.49092  1.0000
  H   H786      1.0  0.77423  0.27317  0.50851  1.0000
  C   C481      1.0  0.66413  0.23627  0.62117  1.0000
  C   C482      1.0  0.66865  0.26223  0.60659  1.0000
  C   C483      1.0  0.68951  0.25603  0.59251  1.0000
  C   C484      1.0  0.70485  0.22324  0.59297  1.0000
  C   C485      1.0  0.69984  0.19692  0.60753  1.0000
  C   C486      1.0  0.67994  0.20372  0.62165  1.0000
  H   H787      1.0  0.65589  0.28706  0.60618  1.0000
  H   H788      1.0  0.69292  0.27614  0.58124  1.0000
  H   H789      1.0  0.71144  0.17137  0.60790  1.0000
  H   H790      1.0  0.67635  0.18343  0.63286  1.0000
  H   H791      1.0  0.60923  0.12960  0.32998  1.0000
  H   H792      1.0  0.54327  0.19240  0.61207  1.0000
  H   H793      1.0  0.80961  0.20983  0.56925  1.0000
  H   H794      1.0  0.81688  0.26696  0.44677  1.0000
  H   H795      1.0  0.89856  0.43639  0.53182  1.0000
  H   H796      1.0  0.83167  0.39764  0.32993  1.0000
  C   C487      1.0  0.59176  0.09267  0.61769  1.0000
  C   C488      1.0  0.87263  0.42723  0.60593  1.0000
  C   C489      1.0  0.73321  0.34573  0.60436  1.0000
  H   H797      1.0  0.85656  0.22144  0.57250  1.0000
  C   C490      1.0  0.59539  0.39707  0.37953  1.0000
  H   H798      1.0  0.57115  0.41067  0.37951  1.0000
  H   H799      1.0  0.88019  0.17742  0.55747  1.0000
  S   S150      1.0  0.94435  0.36382  0.34229  1.0000
  H   H800      1.0  0.78242  0.20017  0.59743  1.0000
  N   N33       1.0  0.98944  0.31468  0.64995  1.0000
  H   H801      1.0  0.89191  0.48457  0.32527  1.0000
  S   S151      1.0  0.91047  0.39268  0.62667  1.0000
  H   H802      1.0  0.89906  0.32550  0.56522  1.0000
  H   H803      1.0  0.85114  0.11336  0.57370  1.0000
  H   H804      1.0  0.65588  0.11076  0.61098  1.0000
  C   C491      1.0  0.85318  0.42824  0.59365  1.0000
  H   H805      1.0  0.85969  0.28986  0.32415  1.0000
  C   C492      1.0  0.59784  0.37286  0.39361  1.0000
  H   H806      1.0  0.76006  0.49220  0.40490  1.0000
  H   H807      1.0  0.79410  0.12402  0.57637  1.0000
  S   S152      1.0  0.67315  0.18112  0.33585  1.0000
  C   C493      1.0  0.65817  0.36215  0.37975  1.0000
  H   H808      1.0  0.86061  0.20645  0.60715  1.0000
  H   H809      1.0  0.62728  0.20176  0.57615  1.0000
  H   H810      1.0  0.83572  0.39273  0.45081  1.0000
  H   H811      1.0  0.79365  0.38586  0.44315  1.0000
  H   H812      1.0  0.92558  0.31413  0.63255  1.0000
  H   H813      1.0  0.89862  0.40156  0.42401  1.0000
  H   H814      1.0  0.92848  0.39085  0.58246  1.0000
  C   C494      1.0  0.87939  0.39245  0.61364  1.0000
  S   S153      1.0  0.91211  0.28262  0.54155  1.0000
  H   H815      1.0  0.74139  0.33082  0.59476  1.0000
  C   C495      1.0  0.63175  0.09724  0.62166  1.0000
  H   H816      1.0  0.85031  0.24120  0.43906  1.0000
  H   H817      1.0  0.85815  0.26172  0.45515  1.0000
  H   H818      1.0  0.83861  0.41068  0.42978  1.0000
  C   C496      1.0  0.73783  0.19245  0.34751  1.0000
  N   N34       1.0  0.73848  0.34446  0.63326  1.0000
  C   C497      1.0  0.74192  0.32444  0.61976  1.0000
  S   S154      1.0  0.73798  0.45493  0.33856  1.0000
  C   C498      1.0  0.76523  0.38418  0.62718  1.0000
  H   H819      1.0  0.67713  0.31880  0.64077  1.0000
  C   C499      1.0  0.85414  0.15034  0.59139  1.0000
  H   H820      1.0  0.93312  0.37051  0.54096  1.0000
  H   H821      1.0  0.86552  0.30261  0.42014  1.0000
  Fe  Fe77      1.0  0.93303  0.20011  0.62317  1.0000
  H   H822      1.0  0.77150  0.31911  0.61644  1.0000
  H   H823      1.0  0.72187  0.29563  0.62334  1.0000
  C   C500      1.0  0.53798  0.08948  0.59595  1.0000
  H   H824      1.0  0.63615  0.06817  0.62660  1.0000
  H   H825      1.0  0.78999  0.38409  0.61752  1.0000
  H   H826      1.0  0.78124  0.31830  0.64241  1.0000
  H   H827      1.0  0.85760  0.20886  0.54637  1.0000
  C   C501      1.0  0.98358  0.00726  0.64940  1.0000
  C   C502      1.0  0.54221  0.11778  0.60677  1.0000
  C   C503      1.0  0.64402  0.07577  0.34554  1.0000
  H   H828      1.0  0.63397  0.11334  0.63097  1.0000
  H   H829      1.0  0.76949  0.01875  0.63251  1.0000
  H   H830      1.0  0.72774  0.26059  0.64543  1.0000
  H   H831      1.0  0.56587  0.09400  0.33498  1.0000
  H   H832      1.0  0.92126  0.48074  0.53602  1.0000
  C   C504      1.0  0.69707  0.34751  0.63820  1.0000
  H   H833      1.0  0.82169  0.34530  0.42617  1.0000
  H   H834      1.0  0.82184  0.22767  0.61404  1.0000
  H   H835      1.0  0.53683  0.05958  0.60236  1.0000
  C   C505      1.0  0.61286  0.14768  0.59428  1.0000
  H   H836      1.0  0.90241  0.26656  0.64403  1.0000
  C   C506      1.0  0.91272  0.30281  0.56952  1.0000
  H   H837      1.0  0.51008  0.08875  0.59249  1.0000
  C   C507      1.0  0.57154  0.19460  0.61518  1.0000
  H   H838      1.0  0.80972  0.32480  0.44657  1.0000
  H   H839      1.0  0.75216  0.18324  0.33741  1.0000
  H   H840      1.0  0.96001  0.22056  0.58573  1.0000
  C   C508      1.0  0.92382  0.27838  0.55996  1.0000
  H   H841      1.0  0.94165  0.34568  0.41006  1.0000
  H   H842      1.0  0.82813  0.26380  0.34338  1.0000
  H   H843      1.0  0.60871  0.16197  0.62399  1.0000
  H   H844      1.0  0.80633  0.38561  0.64239  1.0000
  H   H845      1.0  0.86684  0.35093  0.33442  1.0000
  H   H846      1.0  0.90312  0.29824  0.43011  1.0000
  H   H847      1.0  0.83187  0.30509  0.46667  1.0000
  H   H848      1.0  0.89682  0.37548  0.45008  1.0000
  S   S155      1.0  0.81672  0.39771  0.57321  1.0000
  C   C509      1.0  0.76160  0.04140  0.63794  1.0000
  H   H849      1.0  0.98933  0.35128  0.62734  1.0000
  H   H850      1.0  0.62230  0.12507  0.58853  1.0000
  C   C510      1.0  0.80362  0.37682  0.33597  1.0000
  C   C511      1.0  0.73137  0.31477  0.34169  1.0000
  H   H851      1.0  0.76361  0.40201  0.64996  1.0000
  C   C512      1.0  0.79277  0.38167  0.35318  1.0000
  H   H852      1.0  0.76885  0.30376  0.35746  1.0000
  H   H853      1.0  0.80188  0.12575  0.64547  1.0000
  H   H854      1.0  0.95621  0.39635  0.40743  1.0000
  H   H855      1.0  0.68195  0.34816  0.37961  1.0000
  H   H856      1.0  0.78207  0.38693  0.32975  1.0000
  H   H857      1.0  0.83643  0.32421  0.35299  1.0000
  C   C513      1.0  0.92059  0.42777  0.55368  1.0000
  H   H858      1.0  0.70197  0.34508  0.60597  1.0000
  H   H859      1.0  0.64466  0.05501  0.35650  1.0000
  H   H860      1.0  0.83224  0.16035  0.55453  1.0000
  C   C514      1.0  0.92267  0.29339  0.64402  1.0000
  H   H861      1.0  0.80836  0.41051  0.35362  1.0000
  H   H862      1.0  0.80047  0.36040  0.36211  1.0000
  H   H863      1.0  0.76156  0.38135  0.35681  1.0000
  N   N35       1.0  0.70613  0.46022  0.40246  1.0000
  C   C515      1.0  0.69006  0.44971  0.42031  1.0000
  C   C516      1.0  0.99612  0.04688  0.64271  1.0000
  C   C517      1.0  0.72371  0.42780  0.39813  1.0000
  C   C518      1.0  0.68683  0.36456  0.65268  1.0000
  C   C519      1.0  0.66003  0.41105  0.42731  1.0000
  H   H864      1.0  0.63915  0.16309  0.59699  1.0000
  C   C520      1.0  0.75324  0.43709  0.38192  1.0000
  C   C521      1.0  0.78449  0.40146  0.63906  1.0000
  C   C522      1.0  0.98997  0.35352  0.63972  1.0000
  H   H865      1.0  0.89664  0.12488  0.57834  1.0000
  S   S156      1.0  0.93978  0.26135  0.61039  1.0000
  H   H866      1.0  0.73935  0.41689  0.40711  1.0000
  H   H867      1.0  0.70085  0.40266  0.39834  1.0000
  C   C523      1.0  0.67313  0.46481  0.39473  1.0000
  H   H868      1.0  0.80027  0.43172  0.63323  1.0000
  H   H869      1.0  0.63395  0.41021  0.42252  1.0000
  H   H870      1.0  0.67253  0.38620  0.42539  1.0000
  H   H871      1.0  0.65017  0.40685  0.44041  1.0000
  S   S157      1.0  0.62325  0.43776  0.34852  1.0000
  H   H872      1.0  0.95367  0.36555  0.42630  1.0000
  C   C524      1.0  0.95688  0.39678  0.53565  1.0000
  H   H873      1.0  0.78115  0.45534  0.38206  1.0000
  H   H874      1.0  0.74272  0.45093  0.37189  1.0000
  H   H875      1.0  0.75961  0.40973  0.37957  1.0000
  H   H876      1.0  0.91232  0.33176  0.45009  1.0000
  H   H877      1.0  0.78759  0.19873  0.35745  1.0000
  C   C525      1.0  0.62470  0.40438  0.36561  1.0000
  H   H878      1.0  0.87264  0.31076  0.47489  1.0000
  H   H879      1.0  0.94900  0.41242  0.52504  1.0000
  C   C526      1.0  0.96214  0.28441  0.64547  1.0000
  N   N36       1.0  0.80601  0.33661  0.33447  1.0000
  H   H880      1.0  0.97573  0.27924  0.63383  1.0000
  C   C527      1.0  0.90348  0.45110  0.54132  1.0000
  C   C528      1.0  0.77034  0.30723  0.34453  1.0000
  C   C529      1.0  0.65575  0.38637  0.36567  1.0000
  H   H881      1.0  0.67756  0.39050  0.35481  1.0000
  H   H882      1.0  0.82924  0.48047  0.34366  1.0000
  H   H883      1.0  0.84798  0.13832  0.60447  1.0000
  H   H884      1.0  0.75035  0.40565  0.62166  1.0000
  H   H885      1.0  0.63159  0.09914  0.34942  1.0000
  C   C530      1.0  0.83412  0.19718  0.57185  1.0000
  H   H886      1.0  0.52063  0.10422  0.61837  1.0000
  H   H887      1.0  0.74979  0.37602  0.59998  1.0000
  S   S158      1.0  0.93350  0.15053  0.61165  1.0000
  H   H888      1.0  0.75397  0.11267  0.61158  1.0000
  C   C531      1.0  0.60244  0.17643  0.58123  1.0000
  H   H889      1.0  0.79261  0.08935  0.60517  1.0000
  H   H890      1.0  0.91085  0.31721  0.59207  1.0000
  H   H891      1.0  0.96431  0.43504  0.57862  1.0000
  C   C532      1.0  0.91934  0.29816  0.58474  1.0000
  Fe  Fe78      1.0  0.68278  0.47054  0.33467  1.0000
  H   H892      1.0  0.84714  0.24344  0.59372  1.0000
  H   H893      1.0  0.74906  0.08123  0.59868  1.0000
  C   C533      1.0  0.94677  0.24344  0.58122  1.0000
  C   C534      1.0  0.98908  0.45861  0.53906  1.0000
  H   H894      1.0  0.79364  0.16513  0.61190  1.0000
  H   H895      1.0  0.53169  0.14306  0.60164  1.0000
  N   N37       1.0  0.82102  0.16697  0.58740  1.0000
  N   N38       1.0  0.87166  0.34146  0.43564  1.0000
  C   C535      1.0  0.89720  0.37250  0.42156  1.0000
  C   C536      1.0  0.83113  0.34758  0.43721  1.0000
  C   C537      1.0  0.87329  0.30306  0.43171  1.0000
  C   C538      1.0  0.88656  0.34456  0.45024  1.0000
  C   C539      1.0  0.93952  0.36931  0.41626  1.0000
  C   C540      1.0  0.82509  0.38660  0.44046  1.0000
  C   C541      1.0  0.84796  0.26673  0.44406  1.0000
  C   C542      1.0  0.85778  0.32621  0.46669  1.0000
  H   H896      1.0  0.88492  0.37336  0.41092  1.0000
  C   C543      1.0  0.78719  0.13712  0.58656  1.0000
  C   C544      1.0  0.77017  0.10348  0.60146  1.0000
  S   S159      1.0  0.63855  0.24467  0.63868  1.0000
  C   C545      1.0  0.83613  0.21762  0.60376  1.0000
  H   H897      1.0  0.96665  0.49752  0.55315  1.0000
  H   H898      1.0  0.83753  0.33348  0.59307  1.0000
  H   H899      1.0  0.89963  0.39953  0.55920  1.0000
  H   H900      1.0  0.57542  0.36773  0.40442  1.0000
  C   C546      1.0  0.59218  0.10805  0.32519  1.0000
  C   C547      1.0  0.86614  0.35855  0.60909  1.0000
  H   H901      1.0  0.59161  0.07147  0.61017  1.0000
  H   H902      1.0  0.88328  0.45362  0.60918  1.0000
  H   H903      1.0  0.88077  0.17372  0.58847  1.0000
  H   H904      1.0  0.85829  0.09025  0.59253  1.0000
  C   C548      1.0  0.74072  0.10013  0.65169  1.0000
  C   C549      1.0  0.84712  0.35965  0.59661  1.0000
  H   H905      1.0  0.84840  0.34889  0.47234  1.0000
  C   C550      1.0  0.94148  0.24903  0.56567  1.0000
  H   H906      1.0  0.56948  0.07816  0.62902  1.0000
  H   H907      1.0  0.87723  0.28584  0.34171  1.0000
  S   S160      1.0  0.92389  0.09759  0.64758  1.0000
  C   C551      1.0  0.99342  0.38293  0.52904  1.0000
  H   H908      1.0  0.55898  0.14021  0.63234  1.0000
  H   H909      1.0  0.59869  0.16338  0.57111  1.0000
  H   H910      1.0  0.70068  0.01581  0.64404  1.0000
  H   H911      1.0  0.72640  0.34276  0.34378  1.0000
  H   H912      1.0  0.77133  0.27828  0.34234  1.0000
  C   C552      1.0  0.97445  0.39944  0.56091  1.0000
  S   S161      1.0  0.88043  0.16995  0.64296  1.0000
  H   H913      1.0  0.96345  0.36338  0.64424  1.0000
  H   H914      1.0  0.94994  0.22996  0.55829  1.0000
  C   C553      1.0  0.95965  0.40460  0.57786  1.0000
  H   H915      1.0  0.57695  0.18795  0.58519  1.0000
  C   C554      1.0  0.71211  0.06912  0.65127  1.0000
  C   C555      1.0  0.79026  0.07233  0.63829  1.0000
  H   H916      1.0  0.87468  0.45424  0.54744  1.0000
  C   C556      1.0  0.68318  0.48327  0.37670  1.0000
  S   S162      1.0  0.97594  0.18630  0.63721  1.0000
  H   H917      1.0  0.72846  0.31277  0.32960  1.0000
  C   C557      1.0  0.72269  0.03976  0.64443  1.0000
  Fe  Fe79      1.0  0.97215  0.13404  0.62734  1.0000
  Fe  Fe80      1.0  0.88458  0.39091  0.65237  1.0000
  H   H918      1.0  0.91991  0.44333  0.56333  1.0000
  H   H919      1.0  0.57002  0.20953  0.62506  1.0000
  N   N39       1.0  0.96034  0.42125  0.54753  1.0000
  C   C558      1.0  0.85155  0.28943  0.33699  1.0000
  H   H920      1.0  0.68463  0.46101  0.36977  1.0000
  C   C559      1.0  0.73714  0.49676  0.39845  1.0000
  H   H921      1.0  0.53354  0.05166  0.32332  1.0000
  H   H922      1.0  0.55095  0.01064  0.33208  1.0000
  H   H923      1.0  0.70229  0.39506  0.65026  1.0000
  H   H924      1.0  0.86203  0.99884  0.63479  1.0000
  H   H925      1.0  0.59082  0.04118  0.34449  1.0000
  H   H926      1.0  0.98147  0.47224  0.52801  1.0000
  H   H927      1.0  0.98610  0.36345  0.52128  1.0000
  H   H928      1.0  0.66012  0.49798  0.37391  1.0000
  H   H929      1.0  0.90911  0.30503  0.65383  1.0000
  N   N40       1.0  0.61503  0.07902  0.32096  1.0000
  C   C560      1.0  0.55262  0.03173  0.32088  1.0000
  C   C561      1.0  0.63613  0.36197  0.95239  1.0000
  H   H930      1.0  0.88027  0.22814  0.81832  1.0000
  H   H931      1.0  0.92459  0.04092  0.69523  1.0000
  S   S163      1.0  0.68311  0.17424  0.66579  1.0000
  H   H932      1.0  0.75863  0.17541  0.87877  1.0000
  H   H933      1.0  0.88593  0.22729  0.97707  1.0000
  S   S164      1.0  0.86452  0.44911  0.84680  1.0000
  H   H934      1.0  0.57957  0.20818  0.75870  1.0000
  H   H935      1.0  0.95578  0.00679  0.87813  1.0000
  C   C562      1.0  0.77583  0.16975  0.88764  1.0000
  Fe  Fe81      1.0  0.73822  0.19932  0.80891  1.0000
  S   S165      1.0  0.75328  0.26411  0.80004  1.0000
  S   S166      1.0  0.74862  0.31508  0.92194  1.0000
  Fe  Fe82      1.0  0.76246  0.21385  0.93929  1.0000
  S   S167      1.0  0.78698  0.24348  0.91341  1.0000
  S   S168      1.0  0.76538  0.15483  0.95176  1.0000
  Fe  Fe83      1.0  0.80396  0.29630  0.92224  1.0000
  S   S169      1.0  0.86253  0.33579  0.91113  1.0000
  Fe  Fe84      1.0  0.72997  0.25987  0.91480  1.0000
  S   S170      1.0  0.70285  0.26377  0.89386  1.0000
  S   S171      1.0  0.78539  0.26483  0.94806  1.0000
  S   S172      1.0  0.67535  0.16861  0.81623  1.0000
  C   C563      1.0  0.85243  0.17040  0.81868  1.0000
  Fe  Fe85      1.0  0.69117  0.13582  0.83750  1.0000
  C   C564      1.0  0.75930  0.32875  0.97382  1.0000
  Fe  Fe86      1.0  0.63255  0.19511  0.65922  1.0000
  C   C565      1.0  0.59481  0.33822  0.92816  1.0000
  H   H936      1.0  0.98636  0.30965  0.93567  1.0000
  H   H937      1.0  0.77300  0.33067  0.96154  1.0000
  H   H938      1.0  0.94463  0.27155  0.96016  1.0000
  H   H939      1.0  0.55323  0.03031  0.77547  1.0000
  C   C566      1.0  0.67442  0.16089  0.87210  1.0000
  C   C567      1.0  0.67270  0.15455  0.88847  1.0000
  C   C568      1.0  0.68280  0.18579  0.89523  1.0000
  C   C569      1.0  0.69344  0.22352  0.88571  1.0000
  C   C570      1.0  0.69489  0.22974  0.86941  1.0000
  H   H940      1.0  0.66343  0.12551  0.89592  1.0000
  H   H941      1.0  0.68119  0.18079  0.90786  1.0000
  C   C571      1.0  0.73208  0.19353  0.75865  1.0000
  C   C572      1.0  0.83504  0.08887  0.93518  1.0000
  C   C573      1.0  0.80492  0.10087  0.94417  1.0000
  C   C574      1.0  0.80356  0.13983  0.94106  1.0000
  C   C575      1.0  0.83269  0.16681  0.92928  1.0000
  C   C576      1.0  0.86309  0.15493  0.92054  1.0000
  H   H942      1.0  0.78244  0.07993  0.95335  1.0000
  H   H943      1.0  0.83200  0.19691  0.92705  1.0000
  H   H944      1.0  0.88577  0.17602  0.91178  1.0000
  S   S173      1.0  0.69191  0.29549  0.96741  1.0000
  C   C577      1.0  0.87777  0.32959  0.79309  1.0000
  C   C578      1.0  0.84744  0.34859  0.79495  1.0000
  C   C579      1.0  0.80928  0.32817  0.79713  1.0000
  C   C580      1.0  0.80122  0.28856  0.79780  1.0000
  C   C581      1.0  0.83154  0.26951  0.79611  1.0000
  C   C582      1.0  0.86982  0.29014  0.79348  1.0000
  H   H945      1.0  0.85345  0.37919  0.79433  1.0000
  H   H946      1.0  0.78589  0.34307  0.79834  1.0000
  H   H947      1.0  0.82555  0.23907  0.79646  1.0000
  H   H948      1.0  0.89330  0.27546  0.79180  1.0000
  C   C583      1.0  0.86602  0.42172  0.86531  1.0000
  C   C584      1.0  0.83350  0.41242  0.87814  1.0000
  C   C585      1.0  0.83254  0.38662  0.89239  1.0000
  C   C586      1.0  0.86445  0.37081  0.89397  1.0000
  C   C587      1.0  0.89801  0.38229  0.88153  1.0000
  C   C588      1.0  0.89862  0.40731  0.86713  1.0000
  H   H949      1.0  0.80841  0.42388  0.87682  1.0000
  H   H950      1.0  0.80708  0.37896  0.90212  1.0000
  H   H951      1.0  0.59035  0.10980  0.74988  1.0000
  S   S174      1.0  0.84202  0.33744  0.66744  1.0000
  N   N41       1.0  0.83504  0.29255  0.85262  1.0000
  C   C589      1.0  0.84032  0.25374  0.85008  1.0000
  C   C590      1.0  0.87080  0.31044  0.85719  1.0000
  C   C591      1.0  0.83308  0.31639  0.83686  1.0000
  C   C592      1.0  0.79826  0.28685  0.86525  1.0000
  C   C593      1.0  0.80792  0.23008  0.84470  1.0000
  C   C594      1.0  0.87622  0.29025  0.87343  1.0000
  C   C595      1.0  0.82608  0.35707  0.83656  1.0000
  C   C596      1.0  0.79356  0.32048  0.87330  1.0000
  H   H952      1.0  0.86774  0.25708  0.84104  1.0000
  H   H953      1.0  0.84307  0.23491  0.86112  1.0000
  H   H954      1.0  0.87234  0.34098  0.85733  1.0000
  H   H955      1.0  0.89724  0.31115  0.84804  1.0000
  H   H956      1.0  0.86016  0.31945  0.82763  1.0000
  H   H957      1.0  0.80911  0.30203  0.83244  1.0000
  H   H958      1.0  0.77272  0.28075  0.86019  1.0000
  H   H959      1.0  0.79496  0.26086  0.87498  1.0000
  H   H960      1.0  0.81281  0.20054  0.84553  1.0000
  H   H961      1.0  0.77872  0.22709  0.85229  1.0000
  H   H962      1.0  0.80874  0.24193  0.83203  1.0000
  H   H963      1.0  0.85127  0.28800  0.88340  1.0000
  H   H964      1.0  0.88235  0.26145  0.87347  1.0000
  H   H965      1.0  0.90181  0.30759  0.87589  1.0000
  H   H966      1.0  0.79651  0.35601  0.84335  1.0000
  H   H967      1.0  0.82832  0.37226  0.82410  1.0000
  H   H968      1.0  0.84779  0.37501  0.84078  1.0000
  H   H969      1.0  0.76567  0.32844  0.87250  1.0000
  H   H970      1.0  0.81621  0.34696  0.86809  1.0000
  H   H971      1.0  0.79226  0.31153  0.88619  1.0000
  N   N42       1.0  0.63386  0.32998  0.92876  1.0000
  C   C597      1.0  0.62753  0.29005  0.93932  1.0000
  C   C598      1.0  0.65686  0.35769  0.93597  1.0000
  C   C599      1.0  0.65645  0.33007  0.91235  1.0000
  H   H972      1.0  0.61659  0.40207  0.92074  1.0000
  C   C600      1.0  0.89578  0.25485  0.69805  1.0000
  H   H973      1.0  0.81209  0.35441  0.97910  1.0000
  C   C601      1.0  0.68091  0.36901  0.90153  1.0000
  C   C602      1.0  0.52479  0.01274  0.71387  1.0000
  H   H974      1.0  0.65544  0.28442  0.94153  1.0000
  H   H975      1.0  0.60858  0.28720  0.95127  1.0000
  H   H976      1.0  0.66630  0.38728  0.92820  1.0000
  H   H977      1.0  0.56158  0.08239  0.82613  1.0000
  H   H978      1.0  0.67736  0.31130  0.91332  1.0000
  H   H979      1.0  0.87570  0.36311  0.72399  1.0000
  N   N43       1.0  0.53553  0.14670  0.73897  1.0000
  C   C603      1.0  0.83474  0.37202  0.74318  1.0000
  H   H980      1.0  0.70643  0.37944  0.90598  1.0000
  C   C604      1.0  0.54607  0.01042  0.82518  1.0000
  S   S175      1.0  0.61835  0.10717  0.69424  1.0000
  H   H981      1.0  0.73274  0.12278  0.65705  1.0000
  H   H982      1.0  0.97879  0.22526  0.95746  1.0000
  Fe  Fe87      1.0  0.87601  0.34257  0.68582  1.0000
  Fe  Fe88      1.0  0.88636  0.42956  0.68003  1.0000
  C   C605      1.0  0.94860  0.38572  0.71070  1.0000
  H   H983      1.0  0.76030  0.30865  0.74171  1.0000
  C   C606      1.0  0.97567  0.07510  0.69918  1.0000
  H   H984      1.0  0.65611  0.38285  0.95637  1.0000
  C   C607      1.0  0.54324  0.07531  0.78737  1.0000
  C   C608      1.0  0.87900  0.19779  0.82252  1.0000
  S   S176      1.0  0.89974  0.10024  0.91124  1.0000
  H   H985      1.0  0.92083  0.13736  0.84437  1.0000
  Fe  Fe89      1.0  0.76533  0.12523  0.81785  1.0000
  C   C609      1.0  0.97430  0.31227  0.66741  1.0000
  H   H986      1.0  0.97332  0.45522  0.87192  1.0000
  C   C610      1.0  0.91059  0.18890  0.68816  1.0000
  C   C611      1.0  0.90179  0.14666  0.83728  1.0000
  H   H987      1.0  0.97992  0.30233  0.82915  1.0000
  Fe  Fe90      1.0  0.93702  0.40339  0.80118  1.0000
  H   H988      1.0  0.66419  0.39153  0.89999  1.0000
  C   C612      1.0  0.88455  0.24640  0.68464  1.0000
  H   H989      1.0  0.92309  0.37076  0.88281  1.0000
  H   H990      1.0  0.82830  0.19080  0.72234  1.0000
  H   H991      1.0  0.70243  0.25884  0.86202  1.0000
  H   H992      1.0  0.68731  0.20375  0.84996  1.0000
  H   H993      1.0  0.80568  0.18629  0.75578  1.0000
  N   N44       1.0  0.77874  0.10158  0.88383  1.0000
  C   C613      1.0  0.77532  0.06064  0.89284  1.0000
  C   C614      1.0  0.81760  0.11736  0.87212  1.0000
  H   H994      1.0  0.96874  0.05022  0.85197  1.0000
  C   C615      1.0  0.85309  0.12718  0.87894  1.0000
  H   H995      1.0  0.96810  0.02999  0.68571  1.0000
  H   H996      1.0  0.78829  0.04394  0.88470  1.0000
  H   H997      1.0  0.82428  0.09660  0.86481  1.0000
  H   H998      1.0  0.61252  0.13380  0.79840  1.0000
  S   S177      1.0  0.81436  0.09713  0.82087  1.0000
  H   H999      1.0  0.77692  0.06372  0.91741  1.0000
  H   H1000     1.0  0.86771  0.10272  0.88035  1.0000
  H   H1001     1.0  0.84678  0.13556  0.89038  1.0000
  H   H1002     1.0  0.82782  0.39481  0.74925  1.0000
  S   S178      1.0  0.66173  0.12180  0.86364  1.0000
  C   C616      1.0  0.60578  0.06001  0.77986  1.0000
  H   H1003     1.0  0.52060  0.17559  0.75785  1.0000
  Fe  Fe91      1.0  0.94193  0.14770  0.89212  1.0000
  C   C617      1.0  0.68619  0.19852  0.86256  1.0000
  S   S179      1.0  0.85202  0.43283  0.66130  1.0000
  Fe  Fe92      1.0  0.72820  0.27920  0.94705  1.0000
  H   H1004     1.0  0.57528  0.33160  0.94030  1.0000
  C   C618      1.0  0.90278  0.18592  0.83225  1.0000
  S   S180      1.0  0.75760  0.15795  0.79491  1.0000
  H   H1005     1.0  0.93140  0.46743  0.88211  1.0000
  H   H1006     1.0  0.83334  0.17958  0.81151  1.0000
  H   H1007     1.0  0.86690  0.21869  0.96065  1.0000
  S   S181      1.0  0.75204  0.16966  0.83108  1.0000
  S   S182      1.0  0.92215  0.14862  0.68180  1.0000
  C   C619      1.0  0.86394  0.11590  0.92321  1.0000
  C   C620      1.0  0.92077  0.26391  0.95435  1.0000
  H   H1008     1.0  0.97327  0.23785  0.92250  1.0000
  H   H1009     1.0  0.97151  0.40456  0.72924  1.0000
  S   S183      1.0  0.70374  0.22580  0.93995  1.0000
  C   C621      1.0  0.87427  0.38529  0.73094  1.0000
  H   H1010     1.0  0.91342  0.33276  0.93383  1.0000
  C   C622      1.0  0.94557  0.40638  0.72443  1.0000
  H   H1011     1.0  0.93292  0.24675  0.90716  1.0000
  C   C623      1.0  0.77011  0.12653  0.89530  1.0000
  H   H1012     1.0  0.55109  0.23164  0.73115  1.0000
  C   C624      1.0  0.85045  0.13113  0.82418  1.0000
  H   H1013     1.0  0.54258  0.12238  0.79890  1.0000
  S   S184      1.0  0.51072  0.10919  0.69770  1.0000
  C   C625      1.0  0.80289  0.19958  0.71874  1.0000
  Fe  Fe93      1.0  0.69579  0.12479  0.80380  1.0000
  H   H1014     1.0  0.56349  0.12846  0.71865  1.0000
  S   S185      1.0  0.70534  0.08883  0.82582  1.0000
  S   S186      1.0  0.67167  0.09495  0.78657  1.0000
  C   C626      1.0  0.57052  0.13764  0.72924  1.0000
  H   H1015     1.0  0.97933  0.30443  0.91701  1.0000
  C   C627      1.0  0.56612  0.05304  0.78037  1.0000
  S   S187      1.0  0.88961  0.29722  0.70386  1.0000
  C   C628      1.0  0.59972  0.11136  0.79335  1.0000
  H   H1016     1.0  0.97100  0.28503  0.81202  1.0000
  H   H1017     1.0  0.56900  0.07674  0.73948  1.0000
  C   C629      1.0  0.69228  0.18593  0.75462  1.0000
  H   H1018     1.0  0.79688  0.18405  0.70953  1.0000
  H   H1019     1.0  0.81040  0.23087  0.71304  1.0000
  S   S188      1.0  0.93174  0.22063  0.83865  1.0000
  H   H1020     1.0  0.88808  0.35264  0.76096  1.0000
  C   C630      1.0  0.96015  0.49190  0.68898  1.0000
  H   H1021     1.0  0.95938  0.36104  0.93325  1.0000
  C   C631      1.0  0.91121  0.35823  0.74986  1.0000
  N   N45       1.0  0.76603  0.21346  0.74470  1.0000
  H   H1022     1.0  0.90860  0.20076  0.96444  1.0000
  H   H1023     1.0  0.61632  0.10661  0.73090  1.0000
  C   C632      1.0  0.87580  0.11922  0.83313  1.0000
  C   C633      1.0  0.89415  0.22521  0.96451  1.0000
  H   H1024     1.0  0.88194  0.27612  0.93259  1.0000
  H   H1025     1.0  0.98224  0.02733  0.82460  1.0000
  C   C634      1.0  0.74785  0.07236  0.86355  1.0000
  H   H1026     1.0  0.87350  0.41179  0.72221  1.0000
  S   S189      1.0  0.93223  0.20635  0.88261  1.0000
  H   H1027     1.0  0.93890  0.20508  0.93869  1.0000
  H   H1028     1.0  0.88629  0.22824  0.93397  1.0000
  H   H1029     1.0  0.78501  0.23354  0.77265  1.0000
  Fe  Fe94      1.0  0.95661  0.19731  0.85872  1.0000
  N   N46       1.0  0.93645  0.26523  0.93704  1.0000
  C   C635      1.0  0.90309  0.25853  0.92937  1.0000
  S   S190      1.0  0.96076  0.13662  0.86799  1.0000
  H   H1030     1.0  0.76590  0.18432  0.89711  1.0000
  H   H1031     1.0  0.87454  0.08880  0.83722  1.0000
  C   C636      1.0  0.95865  0.23423  0.93521  1.0000
  H   H1032     1.0  0.79611  0.01153  0.68843  1.0000
  C   C637      1.0  0.54817  0.21629  0.72162  1.0000
  H   H1033     1.0  0.76511  0.15758  0.73914  1.0000
  H   H1034     1.0  0.83572  0.05863  0.93739  1.0000
  H   H1035     1.0  0.81738  0.14344  0.86310  1.0000
  H   H1036     1.0  0.94823  0.35356  0.91517  1.0000
  H   H1037     1.0  0.88377  0.20726  0.66919  1.0000
  C   C638      1.0  0.76708  0.18808  0.73300  1.0000
  C   C639      1.0  0.92049  0.19668  0.70190  1.0000
  H   H1038     1.0  0.92843  0.39309  0.70326  1.0000
  C   C640      1.0  0.58712  0.10584  0.73807  1.0000
  H   H1039     1.0  0.62863  0.33466  0.96171  1.0000
  H   H1040     1.0  0.97627  0.45064  0.67596  1.0000
  C   C641      1.0  0.99438  0.32088  0.86494  1.0000
  H   H1041     1.0  0.68703  0.21163  0.74701  1.0000
  H   H1042     1.0  0.71471  0.27637  0.74739  1.0000
  H   H1043     1.0  0.80677  0.18330  0.88219  1.0000
  Fe  Fe95      1.0  0.64700  0.11530  0.66849  1.0000
  H   H1044     1.0  0.92163  0.23596  0.71727  1.0000
  H   H1045     1.0  0.66920  0.17722  0.76587  1.0000
  H   H1046     1.0  0.78812  0.12517  0.90408  1.0000
  H   H1047     1.0  0.82416  0.06984  0.90429  1.0000
  C   C642      1.0  0.79346  0.05488  0.90725  1.0000
  H   H1048     1.0  0.76669  0.24724  0.98587  1.0000
  H   H1049     1.0  0.74153  0.18724  0.72776  1.0000
  C   C643      1.0  0.74808  0.10073  0.87447  1.0000
  H   H1050     1.0  0.74429  0.04545  0.89763  1.0000
  H   H1051     1.0  0.89768  0.44944  0.73816  1.0000
  H   H1052     1.0  0.75077  0.12951  0.86658  1.0000
  H   H1053     1.0  0.73620  0.16492  0.76450  1.0000
  H   H1054     1.0  0.94926  0.43740  0.71854  1.0000
  H   H1055     1.0  0.74103  0.04185  0.87033  1.0000
  H   H1056     1.0  0.60999  0.37356  0.95185  1.0000
  S   S191      1.0  0.92599  0.35531  0.78886  1.0000
  C   C644      1.0  0.62248  0.08868  0.78659  1.0000
  H   H1057     1.0  0.54003  0.13501  0.76337  1.0000
  Fe  Fe96      1.0  0.91121  0.44329  0.82710  1.0000
  S   S192      1.0  0.93297  0.38915  0.82743  1.0000
  S   S193      1.0  0.91007  0.45463  0.80121  1.0000
  H   H1058     1.0  0.79226  0.02369  0.91152  1.0000
  C   C645      1.0  0.94454  0.33929  0.92791  1.0000
  C   C646      1.0  0.60936  0.25609  0.93303  1.0000
  H   H1059     1.0  0.73982  0.11587  0.90271  1.0000
  C   C647      1.0  0.91397  0.26549  0.91109  1.0000
  C   C648      1.0  0.71956  0.31358  0.97968  1.0000
  N   N47       1.0  0.56805  0.02518  0.83639  1.0000
  H   H1060     1.0  0.53522  0.23384  0.71323  1.0000
  C   C649      1.0  0.52117  0.17600  0.72840  1.0000
  C   C650      1.0  0.99409  0.04987  0.85724  1.0000
  C   C651      1.0  0.95504  0.05398  0.68856  1.0000
  H   H1061     1.0  0.71860  0.09333  0.88261  1.0000
  H   H1062     1.0  0.92419  0.41510  0.85740  1.0000
  H   H1063     1.0  0.95406  0.07380  0.67746  1.0000
  H   H1064     1.0  0.62769  0.25408  0.92166  1.0000
  C   C652      1.0  0.73702  0.25264  0.69928  1.0000
  H   H1065     1.0  0.75068  0.33448  0.65667  1.0000
  H   H1066     1.0  0.64224  0.25081  0.70111  1.0000
  S   S194      1.0  0.67935  0.18763  0.70873  1.0000
  Fe  Fe97      1.0  0.97103  0.48836  0.79713  1.0000
  C   C653      1.0  0.67283  0.26235  0.69919  1.0000
  H   H1067     1.0  0.82872  0.22780  0.73993  1.0000
  C   C654      1.0  0.69751  0.23751  0.70189  1.0000
  C   C655      1.0  0.80304  0.21576  0.75018  1.0000
  H   H1068     1.0  0.53101  0.04176  0.71632  1.0000
  H   H1069     1.0  0.56634  0.38599  0.92427  1.0000
  H   H1070     1.0  0.95027  0.42108  0.75947  1.0000
  H   H1071     1.0  0.65782  0.01113  0.81699  1.0000
  C   C656      1.0  0.99056  0.23251  0.94438  1.0000
  C   C657      1.0  0.75180  0.29254  0.69456  1.0000
  H   H1072     1.0  0.66863  0.32153  0.69206  1.0000
  H   H1073     1.0  0.57940  0.31832  0.92219  1.0000
  H   H1074     1.0  0.57296  0.11402  0.84722  1.0000
  S   S195      1.0  0.74674  0.36721  0.68407  1.0000
  C   C658      1.0  0.72741  0.31749  0.69163  1.0000
  C   C659      1.0  0.68776  0.30236  0.69412  1.0000
  H   H1075     1.0  0.89151  0.31481  0.73669  1.0000
  S   S196      1.0  0.90985  0.47707  0.69115  1.0000
  Fe  Fe98      1.0  0.81158  0.37906  0.67763  1.0000
  H   H1076     1.0  0.57415  0.00951  0.86052  1.0000
  H   H1077     1.0  0.81188  0.36587  0.73674  1.0000
  C   C660      1.0  0.61109  0.03252  0.82937  1.0000
  H   H1078     1.0  0.69249  0.36471  0.88951  1.0000
  S   S197      1.0  0.92219  0.39207  0.66979  1.0000
  C   C661      1.0  0.91324  0.22969  0.70680  1.0000
  C   C662      1.0  0.98642  0.47363  0.68122  1.0000
  H   H1079     1.0  0.93429  0.17748  0.70864  1.0000
  S   S198      1.0  0.60235  0.19445  0.68403  1.0000
  H   H1080     1.0  0.75623  0.23347  0.70089  1.0000
  H   H1081     1.0  0.61391  0.09543  0.84071  1.0000
  H   H1082     1.0  0.72368  0.19685  0.97545  1.0000
  H   H1083     1.0  0.57983  0.25723  0.93169  1.0000
  H   H1084     1.0  0.57693  0.21550  0.71473  1.0000
  Fe  Fe99      1.0  0.99378  0.22712  0.88301  1.0000
  H   H1085     1.0  0.78204  0.30386  0.69335  1.0000
  H   H1086     1.0  0.63706  0.31724  0.90551  1.0000
  H   H1087     1.0  0.68893  0.16157  0.74875  1.0000
  H   H1088     1.0  0.62721  0.03403  0.83880  1.0000
  C   C663      1.0  0.54301  0.16028  0.75342  1.0000
  H   H1089     1.0  0.68430  0.34903  0.93724  1.0000
  C   C664      1.0  0.55841  0.06326  0.83806  1.0000
  C   C665      1.0  0.58319  0.18643  0.75159  1.0000
  H   H1090     1.0  0.73740  0.26561  0.66395  1.0000
  S   S199      1.0  0.66286  0.06572  0.65912  1.0000
  Fe  Fe100     1.0  0.57326  0.13383  0.68523  1.0000
  Fe  Fe101     1.0  0.64987  0.16825  0.69082  1.0000
  N   N48       1.0  0.90907  0.39285  0.73771  1.0000
  H   H1091     1.0  0.59695  0.38081  0.90634  1.0000
  C   C666      1.0  0.56023  0.10492  0.79358  1.0000
  H   H1092     1.0  0.62343  0.04258  0.77452  1.0000
  H   H1093     1.0  0.94356  0.35411  0.71477  1.0000
  H   H1094     1.0  0.86981  0.26504  0.67820  1.0000
  C   C667      1.0  0.76259  0.25286  0.73647  1.0000
  C   C668      1.0  0.91028  0.31979  0.74484  1.0000
  H   H1095     1.0  0.77535  0.07879  0.85435  1.0000
  H   H1096     1.0  0.74304  0.24974  0.72840  1.0000
  H   H1097     1.0  0.94580  0.32007  0.66955  1.0000
  H   H1098     1.0  0.72476  0.07536  0.85715  1.0000
  H   H1099     1.0  0.77474  0.02736  0.67259  1.0000
  H   H1100     1.0  0.72946  0.20941  0.76816  1.0000
  H   H1101     1.0  0.97335  0.05302  0.71029  1.0000
  H   H1102     1.0  0.90359  0.28615  0.95558  1.0000
  H   H1103     1.0  0.52097  0.11936  0.66361  1.0000
  H   H1104     1.0  0.60211  0.16943  0.75688  1.0000
  H   H1105     1.0  0.59464  0.16327  0.72413  1.0000
  H   H1106     1.0  0.97966  0.35227  0.84452  1.0000
  H   H1107     1.0  0.92800  0.29602  0.90507  1.0000
  C   C669      1.0  0.80904  0.24128  0.76186  1.0000
  H   H1108     1.0  0.79110  0.27001  0.72874  1.0000
  H   H1109     1.0  0.93989  0.31726  0.73948  1.0000
  H   H1110     1.0  0.50002  0.09749  0.73416  1.0000
  C   C670      1.0  0.90510  0.42516  0.74600  1.0000
  H   H1111     1.0  0.88723  0.25836  0.90693  1.0000
  H   H1112     1.0  0.96996  0.29675  0.86747  1.0000
  H   H1113     1.0  0.65541  0.36389  0.65544  1.0000
  C   C671      1.0  0.59422  0.37906  0.91924  1.0000
  H   H1114     1.0  0.88104  0.41533  0.75698  1.0000
  H   H1115     1.0  0.52770  0.05910  0.84454  1.0000
  H   H1116     1.0  0.81412  0.27227  0.75594  1.0000
  H   H1117     1.0  0.87406  0.15259  0.87055  1.0000
  H   H1118     1.0  0.96025  0.05514  0.87966  1.0000
  C   C672      1.0  0.96339  0.30404  0.92922  1.0000
  C   C673      1.0  0.89227  0.21357  0.67960  1.0000
  H   H1119     1.0  0.51427  0.16488  0.71814  1.0000
  C   C674      1.0  0.74570  0.27795  0.74718  1.0000
  H   H1120     1.0  0.95754  0.09513  0.70282  1.0000
  S   S200      1.0  0.84216  0.37997  0.69706  1.0000
  H   H1121     1.0  0.74898  0.27171  0.75952  1.0000
  H   H1122     1.0  0.83543  0.23736  0.76597  1.0000
  H   H1123     1.0  0.96588  0.33194  0.81360  1.0000
  H   H1124     1.0  0.96748  0.28202  0.67464  1.0000
  H   H1125     1.0  0.89771  0.29560  0.75559  1.0000
  H   H1126     1.0  0.78102  0.20515  0.98299  1.0000
  H   H1127     1.0  0.56613  0.03237  0.69102  1.0000
  H   H1128     1.0  0.60676  0.22868  0.94183  1.0000
  H   H1129     1.0  0.58534  0.01506  0.70710  1.0000
  C   C675      1.0  0.58278  0.08681  0.84689  1.0000
  S   S201      1.0  0.96954  0.48106  0.82292  1.0000
  C   C676      1.0  0.78137  0.34246  0.98373  1.0000
  H   H1130     1.0  0.63805  0.00639  0.69110  1.0000
  H   H1131     1.0  0.59857  0.20268  0.73933  1.0000
  S   S202      1.0  0.59922  0.13677  0.65974  1.0000
  C   C677      1.0  0.94097  0.44282  0.75128  1.0000
  H   H1132     1.0  0.69545  0.27887  0.65917  1.0000
  H   H1133     1.0  0.83277  0.34514  0.75212  1.0000
  H   H1134     1.0  0.93824  0.36407  0.75396  1.0000
  H   H1135     1.0  0.93364  0.46467  0.75790  1.0000
  H   H1136     1.0  0.97659  0.48540  0.88610  1.0000
  H   H1137     1.0  0.99328  0.32296  0.68828  1.0000
  C   C678      1.0  0.97686  0.03477  0.87533  1.0000
  H   H1138     1.0  0.62165  0.06113  0.82064  1.0000
  H   H1139     1.0  0.49874  0.01069  0.70906  1.0000
  H   H1140     1.0  0.98338  0.11855  0.72087  1.0000
  Fe  Fe102     1.0  0.99168  0.42823  0.82098  1.0000
  H   H1141     1.0  0.69253  0.34749  0.66343  1.0000
  C   C679      1.0  0.96281  0.47876  0.87655  1.0000
  H   H1142     1.0  0.57924  0.07148  0.85944  1.0000
  H   H1143     1.0  0.55608  0.03073  0.81327  1.0000
  C   C680      1.0  0.62568  0.00382  0.82016  1.0000
  H   H1144     1.0  0.99022  0.07754  0.82581  1.0000
  H   H1145     1.0  0.86487  0.00833  0.68506  1.0000
  C   C681      1.0  0.50438  0.10989  0.74445  1.0000
  H   H1146     1.0  0.84361  0.03309  0.66168  1.0000
  H   H1147     1.0  0.97818  0.39609  0.70276  1.0000
  H   H1148     1.0  0.99253  0.36618  0.67445  1.0000
  C   C682      1.0  0.98339  0.31043  0.81609  1.0000
  H   H1149     1.0  0.96539  0.45801  0.74091  1.0000
  H   H1150     1.0  0.52106  0.01547  0.67887  1.0000
  C   C683      1.0  0.49772  0.09472  0.66958  1.0000
  H   H1151     1.0  0.61694  0.00656  0.80871  1.0000
  H   H1152     1.0  0.51310  0.08753  0.75267  1.0000
  C   C684      1.0  0.50172  0.00428  0.83016  1.0000
  C   C685      1.0  0.56019  0.00847  0.70186  1.0000
  C   C686      1.0  0.82437  0.00364  0.66496  1.0000
  Fe  Fe103     1.0  0.92361  0.15165  0.65607  1.0000
  H   H1153     1.0  0.89995  0.01133  0.65494  1.0000
  C   C687      1.0  0.78846  0.00431  0.67766  1.0000
  H   H1154     1.0  0.81381  0.00028  0.65421  1.0000
  H   H1155     1.0  0.95575  0.25604  0.65418  1.0000
  C   C688      1.0  0.72606  0.27921  0.65398  1.0000
  C   C689      1.0  0.58080  0.89551  0.15837  1.0000
  H   H1156     1.0  0.51047  0.73012  0.28797  1.0000
  C   C690      1.0  0.63655  0.93536  0.19817  1.0000
  H   H1157     1.0  0.95890  0.61559  0.25185  1.0000
  H   H1158     1.0  0.55147  0.77140  0.26033  1.0000
  C   C691      1.0  0.69142  0.59118  0.27968  1.0000
  H   H1159     1.0  0.91303  0.50817  0.13325  1.0000
  Fe  Fe104     1.0  0.72344  0.54410  0.30975  1.0000
  C   C692      1.0  0.53317  0.54923  0.17572  1.0000
  C   C693      1.0  0.55626  0.88687  0.13516  1.0000
  H   H1160     1.0  0.52875  0.50129  0.23970  1.0000
  H   H1161     1.0  0.50866  0.81159  0.31327  1.0000
  H   H1162     1.0  0.67893  0.64764  0.27714  1.0000
  S   S203      1.0  0.71844  0.59813  0.29370  1.0000
  H   H1163     1.0  0.52762  0.88387  0.11590  1.0000
  C   C694      1.0  0.52698  0.96536  0.17793  1.0000
  H   H1164     1.0  0.91935  0.60761  0.31889  1.0000
  Fe  Fe105     1.0  0.55806  0.68133  0.26562  1.0000
  H   H1165     1.0  0.80289  0.52436  0.11424  1.0000
  H   H1166     1.0  0.64253  0.96093  0.18799  1.0000
  C   C695      1.0  0.56107  0.99225  0.16950  1.0000
  H   H1167     1.0  0.84326  0.53519  0.26107  1.0000
  C   C696      1.0  0.57282  0.78807  0.26478  1.0000
  C   C697      1.0  0.58362  0.83624  0.14952  1.0000
  H   H1168     1.0  0.52511  0.83740  0.12789  1.0000
  H   H1169     1.0  0.61304  0.97091  0.22164  1.0000
  C   C698      1.0  0.93588  0.63158  0.25436  1.0000
  H   H1170     1.0  0.82533  0.51127  0.09645  1.0000
  H   H1171     1.0  0.53068  0.50012  0.19435  1.0000
  H   H1172     1.0  0.64155  0.53579  0.31516  1.0000
  Fe  Fe106     1.0  0.55927  0.92356  0.26638  1.0000
  H   H1173     1.0  0.50191  0.51818  0.31707  1.0000
  H   H1174     1.0  0.53399  0.78934  0.15009  1.0000
  H   H1175     1.0  0.86771  0.55915  0.29620  1.0000
  C   C699      1.0  0.88218  0.58415  0.28592  1.0000
  C   C700      1.0  0.52418  0.86739  0.12831  1.0000
  H   H1176     1.0  0.88386  0.63762  0.29386  1.0000
  H   H1177     1.0  0.52097  0.95618  0.19077  1.0000
  C   C701      1.0  0.63940  0.55289  0.19407  1.0000
  S   S204      1.0  0.58941  0.71919  0.27834  1.0000
  C   C702      1.0  0.56533  0.79976  0.14483  1.0000
  H   H1178     1.0  0.66495  0.55850  0.18388  1.0000
  S   S205      1.0  0.78174  0.53529  0.31173  1.0000
  H   H1179     1.0  0.58748  0.88136  0.16955  1.0000
  C   C703      1.0  0.60437  0.59209  0.30905  1.0000
  Fe  Fe107     1.0  0.50349  0.95096  0.24818  1.0000
  H   H1180     1.0  0.57468  0.63359  0.21308  1.0000
  H   H1181     1.0  0.81683  0.59368  0.25689  1.0000
  H   H1182     1.0  0.65027  0.84763  0.28048  1.0000
  C   C704      1.0  0.71884  0.93610  0.19147  1.0000
  H   H1183     1.0  0.50178  0.82915  0.15755  1.0000
  H   H1184     1.0  0.86812  0.53109  0.12169  1.0000
  H   H1185     1.0  0.65515  0.52316  0.26169  1.0000
  H   H1186     1.0  0.66035  0.97579  0.23861  1.0000
  C   C705      1.0  0.52532  0.51724  0.22815  1.0000
  H   H1187     1.0  0.58383  0.89391  0.21372  1.0000
  H   H1188     1.0  0.88813  0.50626  0.29234  1.0000
  N   N49       1.0  0.65764  0.94516  0.21046  1.0000
  H   H1189     1.0  0.78249  0.55405  0.27059  1.0000
  H   H1190     1.0  0.80572  0.59090  0.27816  1.0000
  C   C706      1.0  0.61938  0.92157  0.14772  1.0000
  C   C707      1.0  0.83077  0.52633  0.10584  1.0000
  S   S206      1.0  0.60603  0.56929  0.24928  1.0000
  H   H1191     1.0  0.75081  0.94614  0.18852  1.0000
  C   C708      1.0  0.58874  0.62779  0.31165  1.0000
  H   H1192     1.0  0.53338  0.58029  0.17351  1.0000
  C   C709      1.0  0.59219  0.92078  0.20412  1.0000
  H   H1193     1.0  0.51010  0.56890  0.31351  1.0000
  Fe  Fe108     1.0  0.51932  0.66310  0.24013  1.0000
  H   H1194     1.0  0.63199  0.94100  0.15456  1.0000
  H   H1195     1.0  0.50651  0.53483  0.17297  1.0000
  H   H1196     1.0  0.59819  0.58632  0.29788  1.0000
  H   H1197     1.0  0.54321  0.79993  0.29808  1.0000
  C   C710      1.0  0.51968  0.82724  0.17923  1.0000
  C   C711      1.0  0.86415  0.61834  0.28911  1.0000
  C   C712      1.0  0.58885  0.61253  0.20795  1.0000
  N   N50       1.0  0.88146  0.57276  0.27041  1.0000
  H   H1198     1.0  0.58693  0.53414  0.22058  1.0000
  C   C713      1.0  0.86006  0.51067  0.11437  1.0000
  Fe  Fe109     1.0  0.53002  0.99479  0.27130  1.0000
  S   S207      1.0  0.53227  0.94076  0.28830  1.0000
  S   S208      1.0  0.95254  0.55049  0.30658  1.0000
  H   H1199     1.0  0.64226  0.50181  0.23648  1.0000
  C   C714      1.0  0.62343  0.79114  0.27899  1.0000
  H   H1200     1.0  0.94207  0.65683  0.24405  1.0000
  H   H1201     1.0  0.58399  0.89259  0.12600  1.0000
  H   H1202     1.0  0.66563  0.91969  0.23353  1.0000
  C   C715      1.0  0.64132  0.57877  0.25984  1.0000
  S   S209      1.0  0.50759  0.59890  0.14379  1.0000
  H   H1203     1.0  0.59631  0.59491  0.21805  1.0000
  C   C716      1.0  0.89597  0.50550  0.27963  1.0000
  C   C717      1.0  0.56308  0.52353  0.21530  1.0000
  C   C718      1.0  0.52520  0.54474  0.31417  1.0000
  H   H1204     1.0  0.64973  0.86653  0.21147  1.0000
  H   H1205     1.0  0.56210  0.91516  0.16184  1.0000
  C   C719      1.0  0.89535  0.60669  0.25613  1.0000
  H   H1206     1.0  0.93782  0.64299  0.26500  1.0000
  H   H1207     1.0  0.54298  0.54660  0.30223  1.0000
  C   C720      1.0  0.60265  0.55109  0.18769  1.0000
  H   H1208     1.0  0.51856  0.54483  0.22994  1.0000
  H   H1209     1.0  0.93768  0.55884  0.26996  1.0000
  C   C721      1.0  0.67400  0.62047  0.27372  1.0000
  H   H1210     1.0  0.71010  0.94291  0.18007  1.0000
  C   C722      1.0  0.52037  0.84929  0.16231  1.0000
  C   C723      1.0  0.84165  0.55093  0.27074  1.0000
  C   C724      1.0  0.64857  0.61408  0.26401  1.0000
  H   H1211     1.0  0.69961  0.53408  0.27919  1.0000
  H   H1212     1.0  0.53071  0.58907  0.20684  1.0000
  H   H1213     1.0  0.55689  0.62118  0.31589  1.0000
  C   C725      1.0  0.68538  0.55636  0.27502  1.0000
  C   C726      1.0  0.81057  0.57442  0.26896  1.0000
  C   C727      1.0  0.59573  0.76949  0.27335  1.0000
  C   C728      1.0  0.54264  0.98840  0.14479  1.0000
  H   H1214     1.0  0.55028  0.91576  0.13563  1.0000
  H   H1215     1.0  0.85881  0.63683  0.27866  1.0000
  H   H1216     1.0  0.57772  0.94288  0.20812  1.0000
  H   H1217     1.0  0.52662  0.81213  0.23048  1.0000
  H   H1218     1.0  0.64116  0.77689  0.28562  1.0000
  H   H1219     1.0  0.60880  0.57612  0.17724  1.0000
  S   S210      1.0  0.61245  0.90004  0.26510  1.0000
  C   C729      1.0  0.64425  0.97898  0.21553  1.0000
  H   H1220     1.0  0.56390  0.60794  0.18851  1.0000
  H   H1221     1.0  0.87546  0.62653  0.25591  1.0000
  H   H1222     1.0  0.64427  0.57601  0.20039  1.0000
  H   H1223     1.0  0.60315  0.53038  0.29370  1.0000
  N   N51       1.0  0.55990  0.86608  0.15121  1.0000
  H   H1224     1.0  0.91434  0.54174  0.25598  1.0000
  H   H1225     1.0  0.57781  0.77543  0.14962  1.0000
  C   C730      1.0  0.90887  0.54613  0.26831  1.0000
  H   H1226     1.0  0.55942  0.84280  0.25582  1.0000
  H   H1227     1.0  0.84287  0.55729  0.09983  1.0000
  H   H1228     1.0  0.64703  0.91297  0.19274  1.0000
  C   C731      1.0  0.53222  0.53148  0.19321  1.0000
  H   H1229     1.0  0.50459  0.87267  0.16349  1.0000
  H   H1230     1.0  0.89569  0.59664  0.24496  1.0000
  H   H1231     1.0  0.50390  0.53333  0.20040  1.0000
  H   H1232     1.0  0.55789  0.54458  0.16720  1.0000
  N   N52       1.0  0.56528  0.54942  0.19937  1.0000
  S   S211      1.0  0.54896  0.61890  0.27740  1.0000
  H   H1233     1.0  0.91233  0.59125  0.28722  1.0000
  C   C732      1.0  0.49987  0.72523  0.30111  1.0000
  H   H1234     1.0  0.63863  0.52476  0.20200  1.0000
  C   C733      1.0  0.62855  0.83116  0.27613  1.0000
  C   C734      1.0  0.56062  0.58935  0.20053  1.0000
  S   S212      1.0  0.58162  0.67359  0.24123  1.0000
  C   C735      1.0  0.51644  0.81071  0.30058  1.0000
  H   H1235     1.0  0.63432  0.63648  0.25990  1.0000
  S   S213      1.0  0.56189  0.97968  0.24986  1.0000
  H   H1236     1.0  0.63602  0.84969  0.23227  1.0000
  H   H1237     1.0  0.57132  0.80413  0.13168  1.0000
  Fe  Fe110     1.0  0.56731  0.61040  0.25291  1.0000
  C   C736      1.0  0.66058  0.55032  0.26497  1.0000
  H   H1238     1.0  0.61519  0.94064  0.13702  1.0000
  H   H1239     1.0  0.68607  0.87146  0.22279  1.0000
  C   C737      1.0  0.57715  0.82834  0.26232  1.0000
  S   S214      1.0  0.53689  0.52252  0.12318  1.0000
  C   C738      1.0  0.64837  0.91228  0.22502  1.0000
  H   H1240     1.0  0.61119  0.84916  0.14030  1.0000
  H   H1241     1.0  0.61567  0.62865  0.19884  1.0000
  H   H1242     1.0  0.82959  0.52832  0.28206  1.0000
  H   H1243     1.0  0.59344  0.82666  0.16052  1.0000
  C   C739      1.0  0.60509  0.84981  0.26806  1.0000
  H   H1244     1.0  0.61795  0.90740  0.23197  1.0000
  C   C740      1.0  0.65593  0.87319  0.22249  1.0000
  H   H1245     1.0  0.88713  0.51400  0.10515  1.0000
  H   H1246     1.0  0.83644  0.60785  0.29834  1.0000
  H   H1247     1.0  0.53162  0.84674  0.18614  1.0000
  H   H1248     1.0  0.60021  0.52497  0.18275  1.0000
  C   C741      1.0  0.50035  0.95058  0.16990  1.0000
  C   C742      1.0  0.50802  0.96199  0.15333  1.0000
  H   H1249     1.0  0.64092  0.90479  0.14411  1.0000
  C   C743      1.0  0.70080  0.95781  0.20333  1.0000
  H   H1250     1.0  0.58029  0.91420  0.19406  1.0000
  H   H1251     1.0  0.70894  0.98874  0.19670  1.0000
  H   H1252     1.0  0.52535  0.73678  0.30539  1.0000
  H   H1253     1.0  0.71682  0.95626  0.21289  1.0000
  H   H1254     1.0  0.51661  0.68144  0.18535  1.0000
  H   H1255     1.0  0.71200  0.90457  0.19631  1.0000
  H   H1256     1.0  0.51712  0.67053  0.30558  1.0000
  H   H1257     1.0  0.52352  0.84105  0.29347  1.0000
  S   S215      1.0  0.50391  0.89313  0.26258  1.0000
  H   H1258     1.0  0.59681  0.64964  0.30010  1.0000
  S   S216      1.0  0.50709  0.59906  0.24965  1.0000
  H   H1259     1.0  0.53476  0.80324  0.17905  1.0000
  H   H1260     1.0  0.98225  0.50375  0.16549  1.0000
  H   H1261     1.0  0.60741  0.50995  0.13140  1.0000
  H   H1262     1.0  0.65736  0.50890  0.10242  1.0000
  H   H1263     1.0  0.63648  0.60122  0.30622  1.0000
  S   S217      1.0  0.49913  0.69968  0.11825  1.0000
  H   H1264     1.0  0.60227  0.64171  0.31991  1.0000
  C   C744      1.0  0.60949  0.52535  0.31845  1.0000
  S   S218      1.0  0.50315  0.68802  0.21777  1.0000
  C   C745      1.0  0.59829  0.50835  0.30493  1.0000
  C   C746      1.0  0.66513  0.99655  0.22699  1.0000
  H   H1265     1.0  0.49726  0.82588  0.21730  1.0000
  H   H1266     1.0  0.54886  0.99719  0.13194  1.0000
  H   H1267     1.0  0.50057  0.49950  0.22532  1.0000
  H   H1268     1.0  0.93160  0.56602  0.35232  1.0000
  C   C747      1.0  0.99031  0.99538  0.62307  1.0000
  H   H1269     1.0  0.71010  0.50591  0.37228  1.0000
  C   C748      1.0  0.86533  0.57722  0.33546  1.0000
  H   H1270     1.0  0.98451  0.61795  0.34285  1.0000
  H   H1271     1.0  0.74795  0.55823  0.39706  1.0000
  C   C749      1.0  0.59551  0.53520  0.35199  1.0000
  C   C750      1.0  0.87709  0.97742  0.64001  1.0000
  C   C751      1.0  0.98134  0.98146  0.63961  1.0000
  C   C752      1.0  0.83970  0.54143  0.34230  1.0000
  H   H1272     1.0  0.86179  0.94785  0.64039  1.0000
  H   H1273     1.0  0.59107  0.59089  0.34037  1.0000
  H   H1274     1.0  0.94588  0.54458  0.36998  1.0000
  H   H1275     1.0  0.98036  0.59537  0.32703  1.0000
  H   H1276     1.0  0.53857  0.51283  0.33499  1.0000
  H   H1277     1.0  0.98796  0.97542  0.61550  1.0000
  S   S219      1.0  0.79310  0.53908  0.35324  1.0000
  H   H1278     1.0  0.53416  0.56058  0.33551  1.0000
  H   H1279     1.0  0.61420  0.51441  0.35069  1.0000
  H   H1280     1.0  0.85738  0.60314  0.33798  1.0000
  C   C753      1.0  0.60428  0.56767  0.33666  1.0000
  S   S220      1.0  0.70002  0.53198  0.33614  1.0000
  H   H1281     1.0  0.60222  0.54807  0.36182  1.0000
  C   C754      1.0  0.88478  0.51042  0.32811  1.0000
  S   S221      1.0  0.96908  0.93189  0.64807  1.0000
  H   H1282     1.0  0.75278  0.50495  0.38574  1.0000
  Fe  Fe111     1.0  0.75650  0.51737  0.33796  1.0000
  C   C755      1.0  0.54687  0.54311  0.32766  1.0000
  C   C756      1.0  0.72335  0.53269  0.40199  1.0000
  C   C757      1.0  0.90022  0.57972  0.32461  1.0000
  C   C758      1.0  0.97977  0.53633  0.34759  1.0000
  H   H1283     1.0  0.97201  0.52781  0.33698  1.0000
  H   H1284     1.0  0.63617  0.57969  0.33318  1.0000
  H   H1285     1.0  0.71410  0.53038  0.41496  1.0000
  C   C759      1.0  0.94235  0.54149  0.35808  1.0000
  H   H1286     1.0  0.69992  0.53867  0.39617  1.0000
  N   N53       1.0  0.59035  0.55680  0.32276  1.0000
  H   H1287     1.0  0.56476  0.51961  0.35588  1.0000
  C   C760      1.0  0.84940  0.50806  0.33862  1.0000
  H   H1288     1.0  0.98692  0.51058  0.35446  1.0000
  H   H1289     1.0  0.91918  0.51522  0.36007  1.0000
  H   H1290     1.0  0.90589  0.98301  0.63163  1.0000
  H   H1291     1.0  0.60266  0.50010  0.32877  1.0000
  C   C761      1.0  0.90986  0.54634  0.32087  1.0000
  H   H1292     1.0  0.95369  0.50484  0.85403  1.0000
  H   H1293     1.0  0.58367  0.95030  0.71701  1.0000
  C   C762      1.0  0.96663  0.65894  0.73960  1.0000
  H   H1294     1.0  0.91521  0.65211  0.71849  1.0000
  H   H1295     1.0  0.95434  0.58487  0.75610  1.0000
  H   H1296     1.0  0.88663  0.63793  0.74667  1.0000
  H   H1297     1.0  0.82467  0.87717  0.66797  1.0000
  H   H1298     1.0  0.98099  0.69192  0.70964  1.0000
  H   H1299     1.0  0.65281  0.98234  0.67595  1.0000
  C   C763      1.0  0.96254  0.57165  0.74603  1.0000
  H   H1300     1.0  0.58321  0.89851  0.70047  1.0000
  H   H1301     1.0  0.95160  0.58076  0.84730  1.0000
  H   H1302     1.0  0.58633  0.94681  0.67897  1.0000
  N   N54       1.0  0.96385  0.63662  0.72697  1.0000
  C   C764      1.0  0.55652  0.99831  0.85276  1.0000
  H   H1303     1.0  0.56172  0.88142  0.72135  1.0000
  H   H1304     1.0  0.91775  0.97570  0.68177  1.0000
  H   H1305     1.0  0.96885  0.98590  0.85071  1.0000
  N   N55       1.0  0.55724  0.96979  0.69776  1.0000
  C   C765      1.0  0.89028  0.61344  0.74113  1.0000
  H   H1306     1.0  0.90247  0.96276  0.65949  1.0000
  H   H1307     1.0  0.55308  0.94415  0.84424  1.0000
  H   H1308     1.0  0.88565  0.92860  0.68927  1.0000
  C   C766      1.0  0.55848  0.94048  0.71222  1.0000
  H   H1309     1.0  0.89044  0.96090  0.70187  1.0000
  H   H1310     1.0  0.63437  0.95472  0.69600  1.0000
  S   S222      1.0  0.98466  0.97354  0.71771  1.0000
  S   S223      1.0  0.99624  0.54799  0.78149  1.0000
  H   H1311     1.0  0.51854  0.92923  0.68988  1.0000
  H   H1312     1.0  0.55209  0.98285  0.82296  1.0000
  H   H1313     1.0  0.89477  0.58953  0.74993  1.0000
  H   H1314     1.0  0.53304  0.93739  0.72207  1.0000
  H   H1315     1.0  0.86239  0.60299  0.73827  1.0000
  H   H1316     1.0  0.95064  0.53344  0.86823  1.0000
  C   C767      1.0  0.82070  0.93430  0.67138  1.0000
  H   H1317     1.0  0.98952  0.62008  0.69633  1.0000
  C   C768      1.0  0.55874  0.89933  0.71009  1.0000
  H   H1318     1.0  0.95377  0.53592  0.70184  1.0000
  C   C769      1.0  0.51996  0.95737  0.69318  1.0000
  H   H1319     1.0  0.51831  0.99151  0.72548  1.0000
  H   H1320     1.0  0.95418  0.64892  0.69394  1.0000
  C   C770      1.0  0.96816  0.51466  0.86302  1.0000
  C   C771      1.0  0.98326  0.64891  0.69612  1.0000
  H   H1321     1.0  0.54058  0.93753  0.86496  1.0000
  H   H1322     1.0  0.95731  0.68653  0.73637  1.0000
  H   H1323     1.0  0.80668  0.93413  0.66125  1.0000
  H   H1324     1.0  0.52867  0.98029  0.66736  1.0000
  H   H1325     1.0  0.98025  0.92843  0.86570  1.0000
  H   H1326     1.0  0.79579  0.92794  0.68191  1.0000
  N   N56       1.0  0.84640  0.97325  0.66955  1.0000
  H   H1327     1.0  0.76630  0.97693  0.68098  1.0000
  C   C772      1.0  0.85625  0.97723  0.68508  1.0000
  C   C773      1.0  0.92256  0.62660  0.72557  1.0000
  H   H1328     1.0  0.94680  0.64342  0.75128  1.0000
  C   C774      1.0  0.63093  0.97937  0.68718  1.0000
  S   S224      1.0  0.96177  0.89351  0.69398  1.0000
  H   H1329     1.0  0.91885  0.60369  0.71890  1.0000
  H   H1330     1.0  0.53106  0.88522  0.70804  1.0000
  C   C775      1.0  0.56101  0.95648  0.85393  1.0000
  H   H1331     1.0  0.59088  0.95415  0.85449  1.0000
  H   H1332     1.0  0.61616  0.97355  0.82711  1.0000
  C   C776      1.0  0.51301  0.98467  0.67881  1.0000
  H   H1333     1.0  0.93734  0.55009  0.74543  1.0000
  C   C777      1.0  0.98781  0.66281  0.71127  1.0000
  C   C778      1.0  0.98277  0.59499  0.84315  1.0000
  H   H1334     1.0  0.98476  0.55624  0.74922  1.0000
  H   H1335     1.0  0.83488  0.88525  0.68631  1.0000
  C   C779      1.0  0.98008  0.60108  0.72988  1.0000
  C   C780      1.0  0.88931  0.95926  0.68953  1.0000
  C   C781      1.0  0.97394  0.52184  0.69573  1.0000
  H   H1336     1.0  0.97641  0.58462  0.72072  1.0000
  C   C782      1.0  0.83900  0.89887  0.67348  1.0000
  H   H1337     1.0  0.86998  0.90480  0.66743  1.0000
  H   H1338     1.0  0.83041  0.96464  0.69525  1.0000
  C   C783      1.0  0.59038  0.97289  0.68384  1.0000
  H   H1339     1.0  0.59130  0.99728  0.67377  1.0000
  C   C784      1.0  0.88283  0.98158  0.65648  1.0000
  H   H1340     1.0  0.52643  0.99748  0.85909  1.0000
  H   H1341     1.0  0.99142  0.61243  0.85137  1.0000
  H   H1342     1.0  0.98654  0.61554  0.83151  1.0000
  H   H1343     1.0  0.99066  0.96313  0.87692  1.0000
  Fe  Fe112     1.0  0.99563  0.92126  0.66886  1.0000
  H   H1344     1.0  0.97515  0.99671  0.66216  1.0000
