data_image0
_chemical_formula_structural       CFeS2HSFeS2CHCS2H2C2H3FeS2FeHFeS2CS2H2C4H4C6H8SHCH3C7HCH2CHFeHNH3S2HCHCH2C2FeC2HCH4CH2SH2C2FeH6C2H2CH2CH2CHSNCH2SFeCH3CHCHC2HCNH2CH4CH2CH2CH2CH5SHCHFeH4C3H5FeCHC2HNH3C2H2CSH2NH4CFeHC2H4CHSCH2SHC2H4CHSH2SH2FeHSHC2H2CSH4CH5C2HSC2HC2HC4FeC2H4SC2H3C2SH2CH3FeH2CH2CHFeH2FeSH3CHCNCH9SCHCHCHC2HCH3C2HC2H2S2CNHFeH3C2S2FeHCH5CNHCH3NH2CH2CSHCFeHCNCH2SH3SH3CFeHSFeH2SCSC3H2SHC2H5CH5NCHCHFeC2HSCFeCH2C2H2C2HCH4FeH3CNC2FeCHCHC2HSC2HC2SCH5CH3C2H2FeH3CHSFeHCSHFeHSFeS2H2FeS3FeS2FeS2FeNFeS3H2CH6CHNHCHCFeHS2C2H3S2H3CHCSH2C2H4C3HCHCNCH7SH2CH2C6H6C2NCHC2H2C3H5FeCH4CHCHCH2CH9CH3C6H4CHC2H3C2HC2H2CHCHCH3CH3CHC2H2CHCH9C2HCH2CH3CHCSCHCHNH2CH2SHC3SH5CFeS2H2FeSHSHSHFeNCHSH2SC2HSFeCH2SFeH3SCSCHSCHC3FeCHCH4CHCH2CH3C3H5NCHSH3C6H4C6HCH2SH2CH3FeH2CH2C3H2FeH3CHCHCH8CH2S2FeC4H3CHCHCH3CHS2HSCSC4H3CH2SNC4HC3H7C2H9NC8NH6SHCHFeHCHCH2SHC3HC5FeCH4FeH3C2H4CSFeH4C3SNSH2C3H8C2HC3H3SH2CH3CH2SH3CFeHC2HFeH2SH2CHCHSFeC2H4CHC2HFeHCH2CHC2H2CHCHCHNH3SHC2H5NCSNHCFeC2HSHSC3H5C2H2SCHFeHSCH2CHCH2FeH3FeH3C5H2NSH2FeHC2SFeSH2CHC2HC2FeSC2SHSC2H3FeS2FeSFeSFeS3C2SC2H6C3H8C2H2C2HCHCHSHC7H4C6H7CH2CHCSH4N2H2FeCH4CHC2HCHCHFeH4C2HCH2CS2CH2C2H4SH2FeH3SHCH4C2HCH2CSHCSH2NC5H14C2H2CHCSNCHCSC4H8C2HCHCHCH2FeH3CH4CH7NCH3CHNHCHSHSH2FeH3C2HCH2SCSH5NC2HCH2SHC2H3CH2CH2CH3C2H4CH4CH2CHC2H2CHSH5CHCH2CFeH5CHSH2NC2FeH3FeS2FeS2FeSFeS3FeS2FeS2FeHFeS3CSH2FeS5C4H6CHSHFeHC3HCH3C8H4C6H4C6H4C3H2C2H4CHCHNC7H16CSHCNC7H8SHCH9CHNC8H8CH11NC4FeNH4S2H4CH4NH2CH4CH4C3HSFeC2HCHCHCH4S2HCSH3CFeCHSH3CHCFeH4CH2SH2SH5CFeHCH2C2HC3H4C2H3SHCH3CHC2NH5C2HSH4SCNHCH7C5H5CH5C3HCH4C2SC3H6C3H4CH2C2NCSHC2SHNCH5C5FeHCHCHCHCH2CNSH5CH3CH5SH5CFeH2FeHCH2CH7CH2CSHCH7C5H6C3H3CHNH3CHCH6CH3S2HCHCH2FeCH2CHCHSNC4S2HCSHS2FeC4FeHSH2CH2C2S2C2H2CH2C3H2C3H2CH4C2H2CH3CH3CHCH5SCSC2H2C2FeH2C3H3FeCHCH2NSCS2H5SH3C2SH2CH3FeHCH2CH4C2SHCHCHCHFeCHCHCH4SCSCHC2HNH3CH5C2HCHNFeHSC4HFeH4FeCH4CFeH4C2H3C2HSHCH3CHCH4CH2SCFeH5CFeH3C2H2C2HFeHSH2C2H2CFeHSH5CHFeHSCH3SFeS2FeSCFeSHSNFeS2FeS2H2FeS3FeS2FeS2FeSFeS3CH3CH3CH2SH2SHCH2C2HCHC6H9C6H4C2H3C7H6CSN2C2H2C4HCH2CH7C2H8FeC2SH4C2H3C6H3CH3C3NHCHC2H2SH3CHC2H2CHCHC3H3C2SH2NH9CH2CH3CH4NH4C2H3CH9NC8H14CH4FeH6C2HSFeHC2HCH2C2HCH3C5H2CHC7H6CH2C2SHCH4C3HNCSH2SHCHC3H5NHCH3CH5CHCHCH2C2H6C2SC2H4CH3SCH2C2H3FeSCSH3SH9CH2CHFeCSFeS2FeSH2S2FeS2FeS2FeSFeS3H2SH4CH4C6H6C6H2CH2FeH5C6H4C6H4CH2C4HCHCH8CH2SCHC3HCH3CH2CFeHNC5H10CHNH8CH3C2HC2HNCH4CH3NHCSH2CHC3H3CHSH2NHCH3CHSCHCHCNC2HFeH2CHFeHCSH5C2NCNCH8CHCH3SCSH2CH5C2H6NHC2HCH3FeH3CNFeH2C3H2C2SC3H3C2HCHCH2SC2H3CSCHC2HCH3SH3CHCH7CH2SH5CHC2H2CH3C2H3CH2SCFeS2FeS2FeSFeHS2H2FeSHC2SCH4FeS3H2FeCSFeS2HCFeCS2Fe2SCFeS3FeSFeSFeS2H2C6H4C6H4CHCHC2HNHSCH2CHSH2C3H4C2HCH3FeH3C2H2CNSH4CHC6H6C4SH4C2H2C2HSHCNC7H20CNC3HCH5CH4C2HC3HCH5CH6CHCHSH2C2HCSH2S2CHCH2FeH3CH2FeHCH3SCH3CHCHCHCH4C2SC2H3CHCNC2H3CH6C2H6FeSC2H2FeHCH6C2H3C3H5C2H2NH5SHCHC2H6CHFeHCHC2HCH5C3H3SH2SH2CH2C2H2CH3C2HCH4C2FeHNHCNHNHCSH2CFeSHCH2SH2NHC3H2C4SCH3CH6CHC2H2CH2CH3C4NCHCHC2FeHCSH3SH2C3HCHCH2SCH2C4HSCHCSH2CH4CH4CH2CH6CH3SCHCH4C2H7C3H5CH4NCHFe2H4CH2FeCH2CFeHFeHSFeH4SH2CH2S2H6C2N2H2SC2NH2C6H7CHFe2HCHC3HSCSH2CFeSCHSH2C2SHFeHNHCH3CH5CFeSH3C2SCHC3H2CNH4CHC2H3CH6CFeSC3H7SHCHCH2C2H4C2H2CHCHSCHCH2CH3CH3CH4C2HCH3CH5C2HC2H2CH2CH2C3H5C3HCFeHCSH4S2HCH3NCHC2H3S3CFeH7S2CSCSC3S2H2CHFeHCSCNFeC4HCH6SH2CH2C2SH3CHFeHCSH2FeHC2HCHCH2FeSHNC2SFeH5CHFeSH2CH2CFeHC2H2CNC3HCH2CH2CSH5CFeH3CHFeH4C2HFeHC4HCH3SHNSHC2HC5FeHC2SHCH3SCHCH2CH4CHSC2H2FeH3C3HC2S2NSH2SH5FeHS2H3C2H4CH3FeCHCH4NHCH2SCH6CHS2H2SH2CFeSHC5SCHCHC2HCHFeH3C2H3C2NHCSFeCHCH6CH3C2S2CHCHCHC6H5CSH4C2HCH4CH9CH2CH4SHCH3FeH4CFeHCH5C2SFeHSFeCH4NH2SC2NSHCHCH3C2FeSHFeSCS2CFeSFeS2CH2C6H2CH3S3H3C6HCH2CHCHCHC2H2CFeCSH2SC3SH2SCH5SCHFeH2CS2HCFeHCHC2HCSC2H2FeCSH4CH3CHFeHFeH4SHCH4SHSC3H2C2NC7H16NCHCH5CH2CHCH4SCH2CH4CHNC2H2CH5C2H3C2HC2HFeH2SFeHC2H2SCSC3HCH2CH4FeCHCH2CHC4SC2HCSH3C2HNHCH2C2SHCH2SCH3NFeSH2SCNCH3CH2CHCH3C2NCH3C2H14SCH5SH4CHC2H3CH5FeHSH2
_chemical_formula_sum              "C1456 Fe208 S416 H2496 N104"
_cell_length_a       59.2943
_cell_length_b       60.1763
_cell_length_c       64.6458
_cell_angle_alpha    76.4725
_cell_angle_beta     76.4285
_cell_angle_gamma    79.6935

_space_group_name_H-M_alt    "P 1"
_space_group_IT_number       1

loop_
  _space_group_symop_operation_xyz
  'x, y, z'

loop_
  _atom_site_type_symbol
  _atom_site_label
  _atom_site_symmetry_multiplicity
  _atom_site_fract_x
  _atom_site_fract_y
  _atom_site_fract_z
  _atom_site_occupancy
  C   C1        1.0  0.13094  0.34086  0.23697  1.0000
  Fe  Fe1       1.0  0.07875  0.30271  0.19481  1.0000
  S   S1        1.0  0.05831  0.33701  0.19849  1.0000
  S   S2        1.0  0.09942  0.29875  0.16178  1.0000
  H   H1        1.0  0.07472  0.35680  0.13533  1.0000
  S   S3        1.0  0.05103  0.28208  0.21650  1.0000
  Fe  Fe2       1.0  0.23568  0.42184  0.19684  1.0000
  S   S4        1.0  0.19930  0.41432  0.19986  1.0000
  S   S5        1.0  0.26400  0.42402  0.16671  1.0000
  C   C2        1.0  0.99886  0.26673  0.07585  1.0000
  H   H2        1.0  0.16876  0.37889  0.11168  1.0000
  C   C3        1.0  0.11651  0.43747  0.19727  1.0000
  S   S6        1.0  0.16195  0.45215  0.11771  1.0000
  S   S7        1.0  0.22583  0.45082  0.07993  1.0000
  H   H3        1.0  0.05761  0.37126  0.15587  1.0000
  H   H4        1.0  0.01398  0.30794  0.99043  1.0000
  C   C4        1.0  0.15346  0.30965  0.17515  1.0000
  C   C5        1.0  0.00879  0.36884  0.16905  1.0000
  H   H5        1.0  0.05232  0.43552  0.23502  1.0000
  H   H6        1.0  0.10156  0.44434  0.07831  1.0000
  H   H7        1.0  0.48983  0.04265  0.19386  1.0000
  Fe  Fe3       1.0  0.04277  0.32099  0.06490  1.0000
  S   S8        1.0  0.01738  0.35324  0.06654  1.0000
  S   S9        1.0  0.03837  0.29402  0.09560  1.0000
  Fe  Fe4       1.0  0.06272  0.33652  0.01712  1.0000
  H   H8        1.0  0.18024  0.47195  0.16632  1.0000
  Fe  Fe5       1.0  0.04746  0.37121  0.04625  1.0000
  S   S10       1.0  0.05453  0.40566  0.04898  1.0000
  S   S11       1.0  0.12174  0.40985  0.11046  1.0000
  C   C6        1.0  0.11718  0.36240  0.23450  1.0000
  S   S12       1.0  0.07374  0.33946  0.04725  1.0000
  S   S13       1.0  0.03435  0.31478  0.03476  1.0000
  H   H9        1.0  0.11332  0.20763  0.14866  1.0000
  H   H10       1.0  0.15048  0.35241  0.01124  1.0000
  C   C7        1.0  0.08096  0.42699  0.06548  1.0000
  C   C8        1.0  0.07377  0.40599  0.06578  1.0000
  C   C9        1.0  0.08206  0.38588  0.07928  1.0000
  C   C10       1.0  0.09710  0.38702  0.09280  1.0000
  H   H11       1.0  0.27342  0.43999  0.22674  1.0000
  H   H12       1.0  0.07475  0.44255  0.05497  1.0000
  H   H13       1.0  0.07667  0.36956  0.07951  1.0000
  H   H14       1.0  0.10345  0.37152  0.10330  1.0000
  C   C11       1.0  0.25415  0.42797  0.14233  1.0000
  C   C12       1.0  0.03802  0.35251  0.14169  1.0000
  C   C13       1.0  0.22279  0.43091  0.12313  1.0000
  C   C14       1.0  0.23708  0.44012  0.10364  1.0000
  C   C15       1.0  0.26035  0.44202  0.10329  1.0000
  C   C16       1.0  0.26890  0.43589  0.12261  1.0000
  H   H15       1.0  0.12232  0.43859  0.21218  1.0000
  H   H16       1.0  0.10300  0.44697  0.14190  1.0000
  H   H17       1.0  0.27156  0.44888  0.08818  1.0000
  H   H18       1.0  0.28668  0.43808  0.12237  1.0000
  H   H19       1.0  0.09962  0.36614  0.17869  1.0000
  H   H20       1.0  0.16415  0.39263  0.13358  1.0000
  H   H21       1.0  0.00914  0.28152  0.07149  1.0000
  H   H22       1.0  0.04058  0.22961  0.17569  1.0000
  S   S14       1.0  0.03856  0.36961  0.01492  1.0000
  H   H23       1.0  0.11012  0.42047  0.20054  1.0000
  C   C17       1.0  0.17435  0.47186  0.01060  1.0000
  H   H24       1.0  0.12371  0.33416  0.16910  1.0000
  H   H25       1.0  0.10890  0.16794  0.16965  1.0000
  H   H26       1.0  0.09956  0.24851  0.13836  1.0000
  C   C18       1.0  0.10396  0.40817  0.09272  1.0000
  C   C19       1.0  0.08181  0.29877  0.14352  1.0000
  C   C20       1.0  0.05921  0.29265  0.15107  1.0000
  C   C21       1.0  0.04589  0.29122  0.13625  1.0000
  C   C22       1.0  0.05488  0.29663  0.11388  1.0000
  C   C23       1.0  0.07713  0.30357  0.10633  1.0000
  C   C24       1.0  0.09073  0.30429  0.12116  1.0000
  H   H27       1.0  0.05211  0.28877  0.16830  1.0000
  C   C25       1.0  0.12011  0.37787  0.00285  1.0000
  H   H28       1.0  0.08419  0.30765  0.08908  1.0000
  H   H29       1.0  0.10819  0.30910  0.11529  1.0000
  C   C26       1.0  0.13532  0.37505  0.17266  1.0000
  H   H30       1.0  0.09009  0.47606  0.14181  1.0000
  Fe  Fe6       1.0  0.03209  0.31652  0.22250  1.0000
  H   H31       1.0  0.18612  0.38484  0.16110  1.0000
  N   N1        1.0  0.09309  0.21374  0.17990  1.0000
  H   H32       1.0  0.14749  0.45142  0.17468  1.0000
  H   H33       1.0  0.18186  0.47061  0.02459  1.0000
  H   H34       1.0  0.16884  0.30649  0.18292  1.0000
  S   S15       1.0  0.16543  0.44572  0.06771  1.0000
  S   S16       1.0  0.12002  0.47760  0.09167  1.0000
  H   H35       1.0  0.20283  0.44933  0.99575  1.0000
  C   C27       1.0  0.15806  0.35575  0.14244  1.0000
  H   H36       1.0  0.05654  0.38319  0.12766  1.0000
  C   C28       1.0  0.07832  0.45581  0.21288  1.0000
  H   H37       1.0  0.00566  0.39351  0.09682  1.0000
  H   H38       1.0  0.18790  0.34001  0.16743  1.0000
  C   C29       1.0  0.10117  0.23816  0.20470  1.0000
  C   C30       1.0  0.10625  0.47969  0.18829  1.0000
  Fe  Fe7       1.0  0.18808  0.44286  0.21824  1.0000
  C   C31       1.0  0.12660  0.38194  0.23504  1.0000
  C   C32       1.0  0.17331  0.35092  0.17619  1.0000
  H   H39       1.0  0.22167  0.46654  0.15471  1.0000
  C   C33       1.0  0.99707  0.34201  0.12427  1.0000
  H   H40       1.0  0.10203  0.39603  0.16896  1.0000
  H   H41       1.0  0.09476  0.43363  0.01549  1.0000
  H   H42       1.0  0.11781  0.46606  0.14945  1.0000
  H   H43       1.0  0.08453  0.19992  0.15494  1.0000
  C   C34       1.0  0.17118  0.37594  0.12870  1.0000
  H   H44       1.0  0.08436  0.43543  0.17632  1.0000
  H   H45       1.0  0.09124  0.25114  0.17406  1.0000
  S   S17       1.0  0.09847  0.30084  0.22082  1.0000
  H   H46       1.0  0.02858  0.28607  0.14213  1.0000
  H   H47       1.0  0.08723  0.23222  0.12517  1.0000
  C   C35       1.0  0.01975  0.38821  0.10637  1.0000
  C   C36       1.0  0.13116  0.35440  0.01440  1.0000
  Fe  Fe8       1.0  0.01105  0.34831  0.03528  1.0000
  H   H48       1.0  0.16099  0.42128  0.01853  1.0000
  H   H49       1.0  0.46871  0.47706  0.23958  1.0000
  H   H50       1.0  0.06826  0.20667  0.21046  1.0000
  H   H51       1.0  0.15897  0.30715  0.15816  1.0000
  H   H52       1.0  0.13996  0.42266  0.04312  1.0000
  H   H53       1.0  0.06187  0.29562  0.99440  1.0000
  C   C37       1.0  0.09485  0.21306  0.15633  1.0000
  C   C38       1.0  0.10937  0.19353  0.18926  1.0000
  H   H54       1.0  0.00214  0.28166  0.00027  1.0000
  H   H55       1.0  0.20521  0.42838  0.12336  1.0000
  C   C39       1.0  0.14201  0.42221  0.02569  1.0000
  H   H56       1.0  0.19020  0.37209  0.12873  1.0000
  H   H57       1.0  0.11588  0.39844  0.23413  1.0000
  C   C40       1.0  0.10581  0.16951  0.18687  1.0000
  H   H58       1.0  0.11432  0.22546  0.21236  1.0000
  H   H59       1.0  0.10179  0.38029  0.01209  1.0000
  C   C41       1.0  0.00138  0.25777  0.05481  1.0000
  H   H60       1.0  0.99972  0.33187  0.15782  1.0000
  S   S18       1.0  0.22401  0.45261  0.21235  1.0000
  N   N2        1.0  0.09723  0.45678  0.19251  1.0000
  C   C42       1.0  0.06861  0.21111  0.19275  1.0000
  H   H61       1.0  0.08359  0.23715  0.21522  1.0000
  H   H62       1.0  0.05507  0.24852  0.18466  1.0000
  S   S19       1.0  0.15919  0.47067  0.21034  1.0000
  Fe  Fe9       1.0  0.13925  0.44204  0.09904  1.0000
  C   C43       1.0  0.13868  0.43576  0.17939  1.0000
  H   H63       1.0  0.15153  0.42161  0.18585  1.0000
  H   H64       1.0  0.19993  0.36773  0.18237  1.0000
  H   H65       1.0  0.11870  0.15634  0.19455  1.0000
  C   C44       1.0  0.99767  0.30020  0.99330  1.0000
  H   H66       1.0  0.28834  0.36948  0.22429  1.0000
  C   C45       1.0  0.13891  0.33344  0.17671  1.0000
  H   H67       1.0  0.06242  0.19596  0.18980  1.0000
  C   C46       1.0  0.36347  0.98465  0.21603  1.0000
  C   C47       1.0  0.09618  0.42803  0.07874  1.0000
  H   H68       1.0  0.17109  0.38201  0.18921  1.0000
  C   C48       1.0  0.08680  0.45378  0.17431  1.0000
  N   N3        1.0  0.15163  0.35421  0.16668  1.0000
  H   H69       1.0  0.16984  0.34006  0.13858  1.0000
  H   H70       1.0  0.11145  0.37690  0.15034  1.0000
  C   C49       1.0  0.18294  0.37284  0.17696  1.0000
  H   H71       1.0  0.01065  0.29371  0.19718  1.0000
  H   H72       1.0  0.31353  0.37515  0.20375  1.0000
  H   H73       1.0  0.22015  0.41788  0.15732  1.0000
  H   H74       1.0  0.17000  0.34145  0.19342  1.0000
  C   C50       1.0  0.11081  0.37848  0.16717  1.0000
  H   H75       1.0  0.14265  0.35551  0.13546  1.0000
  H   H76       1.0  0.13252  0.37421  0.19044  1.0000
  C   C51       1.0  0.04917  0.23141  0.18864  1.0000
  H   H77       1.0  0.14300  0.39116  0.16505  1.0000
  H   H78       1.0  0.10581  0.25548  0.20387  1.0000
  C   C52       1.0  0.09485  0.42802  0.00031  1.0000
  H   H79       1.0  0.03173  0.40160  0.10027  1.0000
  H   H80       1.0  0.14228  0.29603  0.18395  1.0000
  C   C53       1.0  0.10151  0.23537  0.18154  1.0000
  H   H81       1.0  0.13151  0.33328  0.19425  1.0000
  H   H82       1.0  0.03570  0.23155  0.20383  1.0000
  H   H83       1.0  0.08829  0.16487  0.19556  1.0000
  H   H84       1.0  0.04041  0.33693  0.15464  1.0000
  H   H85       1.0  0.15710  0.39553  0.23690  1.0000
  S   S20       1.0  0.24159  0.39757  0.22770  1.0000
  H   H86       1.0  0.11377  0.40137  0.03390  1.0000
  C   C54       1.0  0.10039  0.46126  0.15081  1.0000
  H   H87       1.0  0.13276  0.43869  0.01813  1.0000
  Fe  Fe10      1.0  0.07594  0.33383  0.22632  1.0000
  H   H88       1.0  0.13509  0.43120  0.16497  1.0000
  H   H89       1.0  0.11973  0.23641  0.17206  1.0000
  H   H90       1.0  0.02959  0.37199  0.10211  1.0000
  H   H91       1.0  0.04216  0.34554  0.12665  1.0000
  C   C55       1.0  0.99269  0.30021  0.19619  1.0000
  C   C56       1.0  0.08714  0.23577  0.14130  1.0000
  C   C57       1.0  0.15424  0.33905  0.23922  1.0000
  H   H92       1.0  0.14194  0.38566  0.03270  1.0000
  H   H93       1.0  0.12800  0.19582  0.18181  1.0000
  H   H94       1.0  0.99346  0.03288  0.16843  1.0000
  H   H95       1.0  0.10767  0.19230  0.20701  1.0000
  H   H96       1.0  0.35118  0.99964  0.21151  1.0000
  Fe  Fe11      1.0  0.18667  0.45904  0.08550  1.0000
  C   C58       1.0  0.05752  0.36709  0.14010  1.0000
  H   H97       1.0  0.31424  0.44926  0.21472  1.0000
  C   C59       1.0  0.13186  0.40096  0.02402  1.0000
  C   C60       1.0  0.23133  0.42481  0.14242  1.0000
  H   H98       1.0  0.06926  0.24363  0.14744  1.0000
  N   N4        1.0  0.13227  0.39833  0.00132  1.0000
  H   H99       1.0  0.08279  0.41494  0.00382  1.0000
  H   H100      1.0  0.01915  0.24812  0.05090  1.0000
  H   H101      1.0  0.01617  0.40091  0.13560  1.0000
  C   C61       1.0  0.18634  0.46001  0.99414  1.0000
  C   C62       1.0  0.99656  0.34831  0.14613  1.0000
  H   H102      1.0  0.06889  0.46356  0.17513  1.0000
  H   H103      1.0  0.16870  0.38304  0.99968  1.0000
  C   C63       1.0  0.31489  0.38453  0.23387  1.0000
  S   S21       1.0  0.99373  0.32837  0.22385  1.0000
  H   H104      1.0  0.31584  0.35079  0.22545  1.0000
  H   H105      1.0  0.01455  0.33441  0.11668  1.0000
  N   N5        1.0  0.01325  0.36448  0.14623  1.0000
  H   H106      1.0  0.01884  0.41839  0.99212  1.0000
  H   H107      1.0  0.06080  0.42767  0.20908  1.0000
  H   H108      1.0  0.00839  0.25325  0.08675  1.0000
  H   H109      1.0  0.06336  0.46948  0.21032  1.0000
  C   C64       1.0  0.30757  0.36888  0.22148  1.0000
  Fe  Fe12      1.0  0.20413  0.39230  0.23197  1.0000
  H   H110      1.0  0.08504  0.45923  0.22644  1.0000
  C   C65       1.0  0.16385  0.35882  0.23881  1.0000
  C   C66       1.0  0.30449  0.45117  0.23074  1.0000
  H   H111      1.0  0.07985  0.41885  0.22856  1.0000
  H   H112      1.0  0.12680  0.34036  0.00807  1.0000
  H   H113      1.0  0.38524  0.00390  0.22567  1.0000
  H   H114      1.0  0.02090  0.38034  0.17033  1.0000
  C   C67       1.0  0.00920  0.38722  0.13085  1.0000
  H   H115      1.0  0.25899  0.47629  0.13733  1.0000
  S   S22       1.0  0.34457  0.46314  0.23660  1.0000
  C   C68       1.0  0.06747  0.43306  0.22153  1.0000
  H   H116      1.0  0.33402  0.38437  0.22807  1.0000
  H   H117      1.0  0.30740  0.40259  0.22779  1.0000
  S   S23       1.0  0.08895  0.36588  0.22893  1.0000
  H   H118      1.0  0.99978  0.27240  0.04090  1.0000
  C   C69       1.0  0.28139  0.44598  0.23751  1.0000
  C   C70       1.0  0.14994  0.38025  0.23685  1.0000
  H   H119      1.0  0.12443  0.35166  0.03223  1.0000
  H   H120      1.0  0.12371  0.32558  0.23724  1.0000
  H   H121      1.0  0.01234  0.35244  0.18076  1.0000
  H   H122      1.0  0.00405  0.26212  0.11801  1.0000
  C   C71       1.0  0.38272  0.98707  0.22405  1.0000
  H   H123      1.0  0.99373  0.09270  0.20061  1.0000
  S   S24       1.0  0.04139  0.11691  0.23886  1.0000
  H   H124      1.0  0.12178  0.48129  0.17496  1.0000
  H   H125      1.0  0.11266  0.48142  0.20265  1.0000
  S   S25       1.0  0.19337  0.35687  0.24006  1.0000
  H   H126      1.0  0.25153  0.48098  0.17554  1.0000
  H   H127      1.0  0.00841  0.07489  0.25044  1.0000
  Fe  Fe13      1.0  0.99635  0.01700  0.40817  1.0000
  H   H128      1.0  0.06050  0.03292  0.35582  1.0000
  S   S26       1.0  0.07644  0.25334  0.26947  1.0000
  H   H129      1.0  0.06146  0.22357  0.31164  1.0000
  C   C72       1.0  0.06928  0.05072  0.32251  1.0000
  C   C73       1.0  0.04006  0.01252  0.33377  1.0000
  H   H130      1.0  0.05068  0.99496  0.45022  1.0000
  H   H131      1.0  0.07797  0.06422  0.32551  1.0000
  C   C74       1.0  0.09904  0.21165  0.26183  1.0000
  S   S27       1.0  0.24140  0.43844  0.26831  1.0000
  H   H132      1.0  0.04475  0.19282  0.25033  1.0000
  H   H133      1.0  0.07300  0.01072  0.30111  1.0000
  H   H134      1.0  0.31647  0.38741  0.28609  1.0000
  H   H135      1.0  0.41743  0.47873  0.34912  1.0000
  C   C75       1.0  0.34200  0.40083  0.25845  1.0000
  H   H136      1.0  0.09099  0.14608  0.31041  1.0000
  H   H137      1.0  0.09909  0.99369  0.36448  1.0000
  H   H138      1.0  0.27549  0.36430  0.29882  1.0000
  H   H139      1.0  0.31046  0.46664  0.27632  1.0000
  H   H140      1.0  0.03743  0.24013  0.32567  1.0000
  C   C76       1.0  0.08094  0.18306  0.25278  1.0000
  C   C77       1.0  0.31711  0.39447  0.26846  1.0000
  H   H141      1.0  0.32226  0.98677  0.26278  1.0000
  S   S28       1.0  0.04344  0.05275  0.27535  1.0000
  C   C78       1.0  0.02406  0.09791  0.34814  1.0000
  C   C79       1.0  0.99932  0.19119  0.31791  1.0000
  H   H142      1.0  0.11417  0.21682  0.26520  1.0000
  C   C80       1.0  0.06525  0.17513  0.31852  1.0000
  C   C81       1.0  0.03084  0.07854  0.36332  1.0000
  H   H143      1.0  0.46828  0.46128  0.32671  1.0000
  C   C82       1.0  0.27944  0.45557  0.27228  1.0000
  C   C83       1.0  0.05854  0.21996  0.25813  1.0000
  C   C84       1.0  0.02394  0.04156  0.26516  1.0000
  C   C85       1.0  0.31611  0.35361  0.26737  1.0000
  Fe  Fe14      1.0  0.03457  0.09130  0.27025  1.0000
  C   C86       1.0  0.02556  0.18230  0.31170  1.0000
  C   C87       1.0  0.00040  0.10676  0.34947  1.0000
  H   H144      1.0  0.01176  0.99943  0.32632  1.0000
  H   H145      1.0  0.04918  0.07214  0.36253  1.0000
  H   H146      1.0  0.07047  0.18846  0.30379  1.0000
  H   H147      1.0  0.05067  0.05803  0.32287  1.0000
  S   S29       1.0  0.02288  0.04198  0.39706  1.0000
  C   C88       1.0  0.10057  0.19004  0.25663  1.0000
  C   C89       1.0  0.10639  0.00322  0.31033  1.0000
  H   H148      1.0  0.46012  0.43619  0.32190  1.0000
  H   H149      1.0  0.08973  0.02646  0.34312  1.0000
  H   H150      1.0  0.27470  0.39538  0.29461  1.0000
  C   C90       1.0  0.07208  0.15199  0.31075  1.0000
  C   C91       1.0  0.30238  0.46114  0.26537  1.0000
  S   S30       1.0  0.04769  0.31645  0.25094  1.0000
  H   H151      1.0  0.27397  0.36916  0.25913  1.0000
  H   H152      1.0  0.04770  0.20192  0.34812  1.0000
  C   C92       1.0  0.46624  0.46290  0.29275  1.0000
  H   H153      1.0  0.06514  0.14507  0.35733  1.0000
  H   H154      1.0  0.01431  0.16824  0.35717  1.0000
  H   H155      1.0  0.32497  0.98719  0.30333  1.0000
  Fe  Fe15      1.0  0.01102  0.12762  0.29637  1.0000
  H   H156      1.0  0.02901  0.14678  0.34278  1.0000
  H   H157      1.0  0.04232  0.23160  0.25860  1.0000
  C   C93       1.0  0.00827  0.00889  0.26033  1.0000
  H   H158      1.0  0.07704  0.17611  0.32929  1.0000
  H   H159      1.0  0.26992  0.45690  0.28852  1.0000
  C   C94       1.0  0.07814  0.22672  0.26233  1.0000
  H   H160      1.0  0.02663  0.16508  0.30770  1.0000
  Fe  Fe16      1.0  0.00488  0.13364  0.24981  1.0000
  H   H161      1.0  0.25119  0.38351  0.29042  1.0000
  H   H162      1.0  0.00826  0.99057  0.26319  1.0000
  Fe  Fe17      1.0  0.05125  0.13829  0.25865  1.0000
  S   S31       1.0  0.99715  0.10617  0.27956  1.0000
  H   H163      1.0  0.02875  0.01909  0.34808  1.0000
  H   H164      1.0  0.03573  0.00611  0.27796  1.0000
  H   H165      1.0  0.06286  0.13791  0.32166  1.0000
  C   C95       1.0  0.04239  0.22451  0.31839  1.0000
  H   H166      1.0  0.03276  0.22738  0.30504  1.0000
  C   C96       1.0  0.02377  0.01772  0.26880  1.0000
  N   N6        1.0  0.03982  0.18071  0.32858  1.0000
  C   C97       1.0  0.02907  0.99245  0.33062  1.0000
  H   H167      1.0  0.44797  0.47161  0.29676  1.0000
  H   H168      1.0  0.06864  0.15391  0.29424  1.0000
  H   H169      1.0  0.03796  0.02639  0.31939  1.0000
  H   H170      1.0  0.05091  0.16832  0.37126  1.0000
  H   H171      1.0  0.31171  0.35010  0.28543  1.0000
  H   H172      1.0  0.17975  0.47584  0.24471  1.0000
  H   H173      1.0  0.11378  0.00386  0.32430  1.0000
  H   H174      1.0  0.03282  0.19340  0.29609  1.0000
  H   H175      1.0  0.03721  0.10620  0.33567  1.0000
  S   S32       1.0  0.04808  0.11096  0.28913  1.0000
  C   C98       1.0  0.27056  0.38112  0.28849  1.0000
  H   H176      1.0  0.10992  0.01870  0.29738  1.0000
  C   C99       1.0  0.07167  0.02883  0.34036  1.0000
  H   H177      1.0  0.11668  0.98834  0.30345  1.0000
  C   C100      1.0  0.04805  0.15403  0.36444  1.0000
  H   H178      1.0  0.34650  0.41144  0.26849  1.0000
  C   C101      1.0  0.28163  0.38212  0.26419  1.0000
  C   C102      1.0  0.34246  0.34506  0.26135  1.0000
  H   H179      1.0  0.35282  0.99602  0.29320  1.0000
  C   C103      1.0  0.01395  0.06723  0.37927  1.0000
  H   H180      1.0  0.27466  0.39919  0.25536  1.0000
  H   H181      1.0  0.99640  0.20956  0.31928  1.0000
  H   H182      1.0  0.01826  0.20706  0.34513  1.0000
  C   C104      1.0  0.00824  0.05649  0.25356  1.0000
  C   C105      1.0  0.47186  0.44972  0.31488  1.0000
  H   H183      1.0  0.46533  0.44978  0.28345  1.0000
  C   C106      1.0  0.03651  0.20314  0.33619  1.0000
  C   C107      1.0  0.03181  0.16228  0.34791  1.0000
  H   H184      1.0  0.00988  0.05853  0.31678  1.0000
  H   H185      1.0  0.07753  0.04762  0.30601  1.0000
  S   S33       1.0  0.18951  0.42036  0.25090  1.0000
  S   S34       1.0  0.01518  0.15688  0.26754  1.0000
  C   C108      1.0  0.26904  0.44770  0.25848  1.0000
  N   N7        1.0  0.06537  0.00738  0.33602  1.0000
  H   H186      1.0  0.03971  0.14128  0.37822  1.0000
  Fe  Fe18      1.0  0.06879  0.28354  0.24311  1.0000
  H   H187      1.0  0.07553  0.99347  0.42776  1.0000
  H   H188      1.0  0.11692  0.17858  0.25592  1.0000
  H   H189      1.0  0.05491  0.99308  0.37026  1.0000
  C   C109      1.0  0.08007  0.00039  0.31550  1.0000
  C   C110      1.0  0.05984  0.19794  0.25371  1.0000
  S   S35       1.0  0.00608  0.98762  0.39085  1.0000
  S   S36       1.0  0.08352  0.15595  0.24619  1.0000
  Fe  Fe19      1.0  0.22667  0.42787  0.24358  1.0000
  H   H190      1.0  0.30558  0.41126  0.26763  1.0000
  C   C111      1.0  0.06691  0.98812  0.35551  1.0000
  H   H191      1.0  0.16489  0.32239  0.24103  1.0000
  H   H192      1.0  0.35184  0.34747  0.27350  1.0000
  H   H193      1.0  0.03963  0.98433  0.31714  1.0000
  H   H194      1.0  0.44242  0.47734  0.26073  1.0000
  H   H195      1.0  0.04722  0.98988  0.42518  1.0000
  C   C112      1.0  0.31508  0.45857  0.24473  1.0000
  N   N8        1.0  0.30807  0.37846  0.25834  1.0000
  H   H196      1.0  0.30626  0.34171  0.26318  1.0000
  C   C113      1.0  0.05936  0.98601  0.43670  1.0000
  H   H197      1.0  0.35558  0.38572  0.25794  1.0000
  H   H198      1.0  0.34481  0.32637  0.26111  1.0000
  H   H199      1.0  0.07885  0.98207  0.31572  1.0000
  N   N9        1.0  0.48226  0.48017  0.27920  1.0000
  H   H200      1.0  0.35105  0.35322  0.24493  1.0000
  H   H201      1.0  0.34291  0.41181  0.24195  1.0000
  C   C114      1.0  0.99291  0.02384  0.24825  1.0000
  H   H202      1.0  0.49003  0.44103  0.31368  1.0000
  H   H203      1.0  0.21204  0.44180  0.73737  1.0000
  C   C115      1.0  0.04795  0.12591  0.72509  1.0000
  S   S37       1.0  0.04361  0.42017  0.72770  1.0000
  H   H204      1.0  0.00039  0.13834  0.72496  1.0000
  C   C116      1.0  0.05426  0.00173  0.57932  1.0000
  Fe  Fe20      1.0  0.99925  0.04600  0.67503  1.0000
  H   H205      1.0  0.09218  0.47275  0.73913  1.0000
  C   C117      1.0  0.10994  0.07378  0.70773  1.0000
  N   N10       1.0  0.07300  0.98485  0.58911  1.0000
  C   C118      1.0  0.03573  0.08101  0.73347  1.0000
  H   H206      1.0  0.13402  0.02734  0.62664  1.0000
  H   H207      1.0  0.32732  0.47275  0.73663  1.0000
  S   S38       1.0  0.45243  0.45743  0.67396  1.0000
  H   H208      1.0  0.10455  0.29338  0.72402  1.0000
  H   H209      1.0  0.42421  0.47382  0.64170  1.0000
  H   H210      1.0  0.00580  0.10307  0.69450  1.0000
  S   S39       1.0  0.03710  0.26773  0.71312  1.0000
  H   H211      1.0  0.08226  0.00978  0.60439  1.0000
  H   H212      1.0  0.06095  0.12120  0.69221  1.0000
  H   H213      1.0  0.34192  0.46607  0.71134  1.0000
  C   C119      1.0  0.04965  0.44744  0.72903  1.0000
  Fe  Fe21      1.0  0.05122  0.02604  0.66742  1.0000
  H   H214      1.0  0.40495  0.45402  0.68872  1.0000
  S   S40       1.0  0.01381  0.20815  0.71736  1.0000
  Fe  Fe22      1.0  0.02636  0.03827  0.71056  1.0000
  H   H215      1.0  0.37496  0.46184  0.69032  1.0000
  H   H216      1.0  0.09551  0.08400  0.69998  1.0000
  S   S41       1.0  0.08577  0.02476  0.64369  1.0000
  C   C120      1.0  0.45998  0.46644  0.64581  1.0000
  S   S42       1.0  0.47535  0.44546  0.72638  1.0000
  C   C121      1.0  0.09045  0.02294  0.73365  1.0000
  C   C122      1.0  0.34268  0.47618  0.72328  1.0000
  C   C123      1.0  0.14674  0.01395  0.70555  1.0000
  H   H217      1.0  0.06029  0.00733  0.56145  1.0000
  H   H218      1.0  0.05856  0.99274  0.63146  1.0000
  S   S43       1.0  0.03177  0.05910  0.67662  1.0000
  H   H219      1.0  0.11088  0.06477  0.64780  1.0000
  C   C124      1.0  0.13274  0.01269  0.64007  1.0000
  C   C125      1.0  0.12305  0.05277  0.67828  1.0000
  H   H220      1.0  0.09501  0.02473  0.69956  1.0000
  H   H221      1.0  0.15067  0.04808  0.70797  1.0000
  H   H222      1.0  0.09867  0.00870  0.57807  1.0000
  H   H223      1.0  0.08745  0.06141  0.67085  1.0000
  H   H224      1.0  0.08035  0.33139  0.71210  1.0000
  C   C126      1.0  0.15317  0.99988  0.64610  1.0000
  H   H225      1.0  0.25374  0.44627  0.73265  1.0000
  H   H226      1.0  0.00819  0.34788  0.71954  1.0000
  H   H227      1.0  0.09312  0.36695  0.69162  1.0000
  H   H228      1.0  0.01671  0.46562  0.72221  1.0000
  H   H229      1.0  0.10379  0.08581  0.66442  1.0000
  N   N11       1.0  0.38624  0.45739  0.72108  1.0000
  C   C127      1.0  0.44238  0.47409  0.63370  1.0000
  H   H230      1.0  0.07334  0.37570  0.71454  1.0000
  C   C128      1.0  0.40787  0.46157  0.72743  1.0000
  H   H231      1.0  0.03106  0.03406  0.58064  1.0000
  Fe  Fe23      1.0  0.02616  0.23328  0.73158  1.0000
  C   C129      1.0  0.07118  0.44968  0.73337  1.0000
  C   C130      1.0  0.04606  0.02438  0.58790  1.0000
  H   H232      1.0  0.05020  0.08198  0.69954  1.0000
  S   S44       1.0  0.01926  0.01564  0.66144  1.0000
  C   C131      1.0  0.05247  0.11354  0.70841  1.0000
  Fe  Fe24      1.0  0.00526  0.41693  0.73170  1.0000
  C   C132      1.0  0.38964  0.46483  0.69669  1.0000
  H   H233      1.0  0.15784  0.00363  0.71701  1.0000
  H   H234      1.0  0.15829  0.01669  0.68917  1.0000
  C   C133      1.0  0.00384  0.33064  0.72209  1.0000
  C   C134      1.0  0.04623  0.09129  0.71253  1.0000
  H   H235      1.0  0.13958  0.06074  0.67230  1.0000
  H   H236      1.0  0.10923  0.33179  0.71522  1.0000
  C   C135      1.0  0.02090  0.31290  0.71539  1.0000
  C   C136      1.0  0.01521  0.29050  0.71893  1.0000
  H   H237      1.0  0.08426  0.43474  0.73537  1.0000
  C   C137      1.0  0.48343  0.46662  0.63544  1.0000
  H   H238      1.0  0.40169  0.42218  0.71999  1.0000
  H   H239      1.0  0.03857  0.31637  0.70788  1.0000
  H   H240      1.0  0.07816  0.04926  0.70850  1.0000
  H   H241      1.0  0.04000  0.02151  0.60572  1.0000
  Fe  Fe25      1.0  0.03592  0.18088  0.73686  1.0000
  H   H242      1.0  0.36493  0.42745  0.70396  1.0000
  H   H243      1.0  0.12701  0.03572  0.67347  1.0000
  H   H244      1.0  0.00467  0.14166  0.68330  1.0000
  C   C138      1.0  0.10214  0.07544  0.73182  1.0000
  N   N12       1.0  0.11559  0.04990  0.70266  1.0000
  C   C139      1.0  0.10503  0.06708  0.66490  1.0000
  C   C140      1.0  0.09443  0.03711  0.71016  1.0000
  Fe  Fe26      1.0  0.01476  0.99726  0.69615  1.0000
  C   C141      1.0  0.09011  0.36508  0.70954  1.0000
  H   H245      1.0  0.03120  0.98664  0.62731  1.0000
  C   C142      1.0  0.99914  0.15590  0.69222  1.0000
  H   H246      1.0  0.10440  0.37246  0.71297  1.0000
  C   C143      1.0  0.07568  0.47118  0.73551  1.0000
  C   C144      1.0  0.36482  0.42315  0.72160  1.0000
  H   H247      1.0  0.12528  0.08347  0.70080  1.0000
  S   S45       1.0  0.04798  0.00600  0.70149  1.0000
  C   C145      1.0  0.13621  0.03720  0.71239  1.0000
  C   C146      1.0  0.11072  0.00712  0.65163  1.0000
  H   H248      1.0  0.05994  0.03584  0.58283  1.0000
  C   C147      1.0  0.10929  0.98797  0.66892  1.0000
  C   C148      1.0  0.09058  0.99764  0.59344  1.0000
  S   S46       1.0  0.05719  0.15330  0.71922  1.0000
  C   C149      1.0  0.09065  0.33921  0.72029  1.0000
  H   H249      1.0  0.01522  0.16306  0.69215  1.0000
  H   H250      1.0  0.42399  0.45319  0.71793  1.0000
  H   H251      1.0  0.13317  0.00352  0.70542  1.0000
  H   H252      1.0  0.17006  0.00472  0.63730  1.0000
  H   H253      1.0  0.12196  0.99423  0.60632  1.0000
  C   C150      1.0  0.03297  0.46691  0.72628  1.0000
  H   H254      1.0  0.03832  0.99342  0.58130  1.0000
  H   H255      1.0  0.34761  0.42935  0.73102  1.0000
  H   H256      1.0  0.09239  0.98314  0.67759  1.0000
  C   C151      1.0  0.48928  0.47459  0.61295  1.0000
  C   C152      1.0  0.38501  0.43181  0.72741  1.0000
  H   H257      1.0  0.10087  0.09377  0.73306  1.0000
  H   H258      1.0  0.36686  0.40402  0.72629  1.0000
  Fe  Fe27      1.0  0.48051  0.46019  0.69078  1.0000
  H   H259      1.0  0.13176  0.03373  0.73040  1.0000
  H   H260      1.0  0.04192  0.35960  0.72807  1.0000
  H   H261      1.0  0.10369  0.00751  0.73560  1.0000
  C   C153      1.0  0.36507  0.47065  0.73298  1.0000
  H   H262      1.0  0.07310  0.01673  0.73750  1.0000
  S   S47       1.0  0.99262  0.02700  0.70954  1.0000
  Fe  Fe28      1.0  0.48230  0.47990  0.72909  1.0000
  H   H263      1.0  0.40958  0.48024  0.72353  1.0000
  C   C154      1.0  0.11061  0.98270  0.60379  1.0000
  S   S48       1.0  0.02914  0.05245  0.73915  1.0000
  H   H264      1.0  0.08428  0.07066  0.73857  1.0000
  Fe  Fe29      1.0  0.18391  0.45340  0.87967  1.0000
  H   H265      1.0  0.24732  0.44559  0.95703  1.0000
  S   S49       1.0  0.21053  0.45197  0.84888  1.0000
  Fe  Fe30      1.0  0.14759  0.42403  0.90882  1.0000
  S   S50       1.0  0.13550  0.44810  0.93204  1.0000
  S   S51       1.0  0.13391  0.39034  0.91433  1.0000
  H   H266      1.0  0.06342  0.34643  0.78644  1.0000
  H   H267      1.0  0.17734  0.38333  0.86293  1.0000
  Fe  Fe31      1.0  0.17365  0.45014  0.92829  1.0000
  S   S52       1.0  0.19190  0.44600  0.95592  1.0000
  S   S53       1.0  0.14683  0.45156  0.87903  1.0000
  S   S54       1.0  0.18558  0.42354  0.90761  1.0000
  Fe  Fe32      1.0  0.05628  0.35406  0.85796  1.0000
  S   S55       1.0  0.03161  0.34742  0.89002  1.0000
  S   S56       1.0  0.07290  0.38665  0.84763  1.0000
  Fe  Fe33      1.0  0.04647  0.31273  0.84387  1.0000
  S   S57       1.0  0.02062  0.30226  0.87465  1.0000
  S   S58       1.0  0.05491  0.29865  0.81312  1.0000
  Fe  Fe34      1.0  0.00750  0.33992  0.87142  1.0000
  N   N13       1.0  0.01995  0.44126  0.80244  1.0000
  Fe  Fe35      1.0  0.04665  0.31041  0.89126  1.0000
  S   S59       1.0  0.04976  0.28859  0.92414  1.0000
  S   S60       1.0  0.03078  0.34992  0.83906  1.0000
  S   S61       1.0  0.07402  0.31755  0.86062  1.0000
  H   H268      1.0  0.14668  0.41230  0.77964  1.0000
  H   H269      1.0  0.03349  0.45906  0.93155  1.0000
  C   C155      1.0  0.15737  0.39518  0.98936  1.0000
  H   H270      1.0  0.02463  0.44354  0.83410  1.0000
  H   H271      1.0  0.08741  0.45465  0.91515  1.0000
  H   H272      1.0  0.13005  0.43422  0.98451  1.0000
  H   H273      1.0  0.03299  0.39977  0.96243  1.0000
  H   H274      1.0  0.13661  0.44040  0.78581  1.0000
  H   H275      1.0  0.02310  0.08556  0.76652  1.0000
  C   C156      1.0  0.06903  0.46212  0.91447  1.0000
  H   H276      1.0  0.01728  0.32805  0.94282  1.0000
  N   N14       1.0  0.05336  0.42525  0.93947  1.0000
  H   H277      1.0  0.15759  0.36905  0.97024  1.0000
  C   C157      1.0  0.08255  0.34617  0.78030  1.0000
  H   H278      1.0  0.07833  0.39160  0.97647  1.0000
  C   C158      1.0  0.18331  0.42031  0.80174  1.0000
  Fe  Fe36      1.0  0.02081  0.20316  0.77652  1.0000
  H   H279      1.0  0.11590  0.45446  0.81829  1.0000
  S   S62       1.0  0.02223  0.20490  0.81068  1.0000
  S   S63       1.0  0.08798  0.33402  0.98575  1.0000
  C   C159      1.0  0.17474  0.38818  0.84588  1.0000
  C   C160      1.0  0.02486  0.43019  0.82468  1.0000
  H   H280      1.0  0.05504  0.41191  0.77772  1.0000
  H   H281      1.0  0.01658  0.30056  0.76642  1.0000
  H   H282      1.0  0.11463  0.06540  0.74195  1.0000
  S   S64       1.0  0.00760  0.17509  0.76669  1.0000
  S   S65       1.0  0.99676  0.23141  0.76068  1.0000
  H   H283      1.0  0.15680  0.45931  0.79965  1.0000
  H   H284      1.0  0.10828  0.35132  0.75050  1.0000
  H   H285      1.0  0.14872  0.39396  0.81497  1.0000
  C   C161      1.0  0.08909  0.35044  0.75527  1.0000
  H   H286      1.0  0.08771  0.36029  0.78590  1.0000
  C   C162      1.0  0.17697  0.46179  0.97579  1.0000
  S   S66       1.0  0.16983  0.46855  0.75380  1.0000
  H   H287      1.0  0.22770  0.45273  0.88968  1.0000
  H   H288      1.0  0.02603  0.44586  0.97708  1.0000
  C   C163      1.0  0.01046  0.35111  0.96533  1.0000
  C   C164      1.0  0.03318  0.41865  0.95780  1.0000
  H   H289      1.0  0.09019  0.03297  0.74599  1.0000
  H   H290      1.0  0.11073  0.42619  0.88514  1.0000
  H   H291      1.0  0.38302  0.42577  0.74529  1.0000
  H   H292      1.0  0.26643  0.47690  0.87616  1.0000
  C   C165      1.0  0.16529  0.41406  0.84114  1.0000
  C   C166      1.0  0.03911  0.40461  0.78766  1.0000
  C   C167      1.0  0.24650  0.47597  0.74752  1.0000
  H   H293      1.0  0.16498  0.41163  0.98549  1.0000
  C   C168      1.0  0.14274  0.41267  0.81429  1.0000
  H   H294      1.0  0.12675  0.41290  0.82738  1.0000
  C   C169      1.0  0.22989  0.47266  0.84143  1.0000
  N   N15       1.0  0.16132  0.42423  0.81844  1.0000
  C   C170      1.0  0.15576  0.47579  0.97369  1.0000
  H   H295      1.0  0.23950  0.42337  0.89751  1.0000
  H   H296      1.0  0.01621  0.42548  0.95254  1.0000
  H   H297      1.0  0.10380  0.27389  0.74952  1.0000
  H   H298      1.0  0.36019  0.46146  0.75015  1.0000
  H   H299      1.0  0.00731  0.39894  0.83161  1.0000
  H   H300      1.0  0.18823  0.40170  0.80124  1.0000
  H   H301      1.0  0.18036  0.42860  0.78516  1.0000
  S   S67       1.0  0.05120  0.20650  0.74821  1.0000
  H   H302      1.0  0.08072  0.36817  0.74955  1.0000
  H   H303      1.0  0.99660  0.46907  0.81586  1.0000
  C   C171      1.0  0.04127  0.47683  0.79677  1.0000
  H   H304      1.0  0.07002  0.38267  0.92241  1.0000
  H   H305      1.0  0.04211  0.47400  0.81415  1.0000
  C   C172      1.0  0.04734  0.27161  0.81330  1.0000
  C   C173      1.0  0.04988  0.26503  0.79340  1.0000
  C   C174      1.0  0.04257  0.24440  0.79258  1.0000
  C   C175      1.0  0.03279  0.23008  0.81172  1.0000
  C   C176      1.0  0.03070  0.23637  0.83174  1.0000
  C   C177      1.0  0.03799  0.25713  0.83255  1.0000
  H   H306      1.0  0.05694  0.27617  0.77849  1.0000
  H   H307      1.0  0.04417  0.23979  0.77707  1.0000
  H   H308      1.0  0.02329  0.22525  0.84661  1.0000
  H   H309      1.0  0.03619  0.26196  0.84801  1.0000
  H   H310      1.0  0.07699  0.28720  0.74169  1.0000
  H   H311      1.0  0.03398  0.42606  0.91471  1.0000
  C   C178      1.0  0.13554  0.42179  0.79202  1.0000
  C   C179      1.0  0.07938  0.39104  0.95924  1.0000
  N   N16       1.0  0.25487  0.47119  0.91120  1.0000
  C   C180      1.0  0.05230  0.39166  0.92088  1.0000
  H   H312      1.0  0.01452  0.31138  0.79026  1.0000
  C   C181      1.0  0.06072  0.30139  0.94089  1.0000
  C   C182      1.0  0.05688  0.29242  0.96328  1.0000
  H   H313      1.0  0.04284  0.42060  0.82351  1.0000
  H   H314      1.0  0.02216  0.34960  0.75243  1.0000
  C   C183      1.0  0.08136  0.33039  0.94616  1.0000
  C   C184      1.0  0.07270  0.32061  0.93235  1.0000
  C   C185      1.0  0.04005  0.45428  0.78988  1.0000
  H   H315      1.0  0.05384  0.45791  0.94820  1.0000
  H   H316      1.0  0.09128  0.34477  0.93948  1.0000
  H   H317      1.0  0.07585  0.32754  0.91506  1.0000
  H   H318      1.0  0.99772  0.28658  0.83122  1.0000
  H   H319      1.0  0.04780  0.27745  0.96989  1.0000
  Fe  Fe37      1.0  0.13804  0.47589  0.90192  1.0000
  C   C186      1.0  0.15402  0.44986  0.81681  1.0000
  H   H320      1.0  0.04002  0.45856  0.77227  1.0000
  H   H321      1.0  0.08756  0.44336  0.98938  1.0000
  H   H322      1.0  0.28918  0.46557  0.89085  1.0000
  H   H323      1.0  0.20160  0.44838  0.80401  1.0000
  C   C187      1.0  0.00399  0.30695  0.78011  1.0000
  H   H324      1.0  0.25320  0.45529  0.81746  1.0000
  C   C188      1.0  0.25010  0.46973  0.82553  1.0000
  H   H325      1.0  0.09075  0.41601  0.93021  1.0000
  C   C189      1.0  0.20489  0.42956  0.80438  1.0000
  H   H326      1.0  0.06770  0.48083  0.91425  1.0000
  H   H327      1.0  0.06702  0.37974  0.95841  1.0000
  C   C190      1.0  0.12844  0.45718  0.82748  1.0000
  H   H328      1.0  0.11693  0.41968  0.79363  1.0000
  H   H329      1.0  0.12597  0.47592  0.82744  1.0000
  H   H330      1.0  0.09199  0.32988  0.78803  1.0000
  H   H331      1.0  0.00465  0.47544  0.77040  1.0000
  H   H332      1.0  0.17746  0.42343  0.84553  1.0000
  H   H333      1.0  0.08185  0.42697  0.95443  1.0000
  H   H334      1.0  0.16530  0.45730  0.82432  1.0000
  H   H335      1.0  0.28145  0.46015  0.93071  1.0000
  H   H336      1.0  0.06503  0.46094  0.89887  1.0000
  C   C191      1.0  0.27273  0.47790  0.89076  1.0000
  H   H337      1.0  0.05714  0.44331  0.79107  1.0000
  H   H338      1.0  0.00440  0.29331  0.96147  1.0000
  H   H339      1.0  0.01535  0.43188  0.77347  1.0000
  C   C192      1.0  0.11714  0.38939  0.89562  1.0000
  C   C193      1.0  0.11234  0.36814  0.89363  1.0000
  C   C194      1.0  0.09862  0.36721  0.87896  1.0000
  C   C195      1.0  0.09004  0.38753  0.86599  1.0000
  C   C196      1.0  0.09477  0.40878  0.86800  1.0000
  C   C197      1.0  0.10804  0.40971  0.88301  1.0000
  H   H340      1.0  0.11922  0.35235  0.90345  1.0000
  H   H341      1.0  0.09495  0.35074  0.87753  1.0000
  H   H342      1.0  0.08776  0.42454  0.85828  1.0000
  H   H343      1.0  0.21955  0.42683  0.79056  1.0000
  C   C198      1.0  0.07695  0.41569  0.94522  1.0000
  H   H344      1.0  0.04291  0.36714  0.75341  1.0000
  C   C199      1.0  0.24841  0.46438  0.95304  1.0000
  C   C200      1.0  0.05085  0.41772  0.91953  1.0000
  H   H345      1.0  0.39356  0.46059  0.76251  1.0000
  H   H346      1.0  0.15100  0.39848  0.95626  1.0000
  H   H347      1.0  0.03531  0.39234  0.77892  1.0000
  C   C201      1.0  0.04040  0.35335  0.74579  1.0000
  C   C202      1.0  0.01789  0.42350  0.79021  1.0000
  H   H348      1.0  0.00428  0.34527  0.98291  1.0000
  C   C203      1.0  0.00782  0.41351  0.83914  1.0000
  C   C204      1.0  0.00198  0.33927  0.95021  1.0000
  H   H349      1.0  0.14858  0.47747  0.95942  1.0000
  H   H350      1.0  0.08869  0.30334  0.77039  1.0000
  C   C205      1.0  0.05135  0.45129  0.93429  1.0000
  H   H351      1.0  0.16208  0.37722  0.84476  1.0000
  C   C206      1.0  0.19916  0.47113  0.75253  1.0000
  H   H352      1.0  0.14874  0.41623  0.85317  1.0000
  C   C207      1.0  0.07725  0.32156  0.96860  1.0000
  H   H353      1.0  0.04927  0.38883  0.90542  1.0000
  H   H354      1.0  0.12388  0.44808  0.84456  1.0000
  H   H355      1.0  0.06477  0.42337  0.90547  1.0000
  C   C208      1.0  0.16140  0.38700  0.96770  1.0000
  H   H356      1.0  0.04269  0.39445  0.80348  1.0000
  H   H357      1.0  0.00127  0.27216  0.79717  1.0000
  H   H358      1.0  0.03888  0.38361  0.93401  1.0000
  C   C209      1.0  0.21670  0.45549  0.74318  1.0000
  H   H359      1.0  0.21726  0.47693  0.92137  1.0000
  C   C210      1.0  0.25155  0.44647  0.91272  1.0000
  C   C211      1.0  0.09570  0.30980  0.75285  1.0000
  H   H360      1.0  0.41231  0.43445  0.75643  1.0000
  H   H361      1.0  0.25582  0.46811  0.96594  1.0000
  C   C212      1.0  0.24373  0.44134  0.89334  1.0000
  H   H362      1.0  0.03226  0.99011  0.75346  1.0000
  C   C213      1.0  0.06476  0.30273  0.97716  1.0000
  H   H363      1.0  0.26797  0.43463  0.91488  1.0000
  H   H364      1.0  0.23803  0.44065  0.92720  1.0000
  H   H365      1.0  0.00194  0.41495  0.79779  1.0000
  H   H366      1.0  0.09714  0.38208  0.95382  1.0000
  H   H367      1.0  0.21096  0.42031  0.81945  1.0000
  H   H368      1.0  0.19197  0.38412  0.83538  1.0000
  H   H369      1.0  0.05196  0.32399  0.76869  1.0000
  H   H370      1.0  0.25776  0.44237  0.87851  1.0000
  H   H371      1.0  0.01394  0.40584  0.85458  1.0000
  C   C214      1.0  0.05700  0.33108  0.75100  1.0000
  C   C215      1.0  0.03700  0.11592  0.74602  1.0000
  H   H372      1.0  0.11798  0.37611  0.98667  1.0000
  C   C216      1.0  0.11972  0.41943  0.98891  1.0000
  H   H373      1.0  0.18012  0.38721  0.95959  1.0000
  H   H374      1.0  0.42451  0.45989  0.75444  1.0000
  C   C217      1.0  0.99710  0.45698  0.80504  1.0000
  H   H375      1.0  0.00556  0.37007  0.96129  1.0000
  H   H376      1.0  0.00335  0.31304  0.91977  1.0000
  H   H377      1.0  0.99777  0.35317  0.93637  1.0000
  C   C218      1.0  0.40922  0.45351  0.75166  1.0000
  H   H378      1.0  0.03363  0.12531  0.75904  1.0000
  C   C219      1.0  0.09500  0.29028  0.74116  1.0000
  S   S68       1.0  0.17523  0.48028  0.90023  1.0000
  C   C220      1.0  0.03112  0.09340  0.75023  1.0000
  H   H379      1.0  0.02989  0.34805  0.96245  1.0000
  C   C221      1.0  0.03197  0.42707  0.97888  1.0000
  H   H380      1.0  0.04889  0.42300  0.98430  1.0000
  N   N17       1.0  0.08278  0.33310  0.74474  1.0000
  H   H381      1.0  0.11452  0.31110  0.75160  1.0000
  H   H382      1.0  0.11795  0.41619  0.97318  1.0000
  C   C222      1.0  0.26446  0.47164  0.93073  1.0000
  H   H383      1.0  0.23051  0.47393  0.95410  1.0000
  H   H384      1.0  0.05252  0.31861  0.74284  1.0000
  S   S69       1.0  0.27604  0.48049  0.74080  1.0000
  H   H385      1.0  0.99329  0.32243  0.77280  1.0000
  C   C223      1.0  0.24028  0.45798  0.74058  1.0000
  C   C224      1.0  0.16481  0.49518  0.21746  1.0000
  C   C225      1.0  0.32312  0.78346  0.22994  1.0000
  S   S70       1.0  0.22942  0.92051  0.23072  1.0000
  H   H386      1.0  0.45071  0.80366  0.11931  1.0000
  H   H387      1.0  0.45463  0.66658  0.18797  1.0000
  H   H388      1.0  0.42557  0.74763  0.20878  1.0000
  H   H389      1.0  0.47112  0.65245  0.14418  1.0000
  H   H390      1.0  0.18500  0.48560  0.13861  1.0000
  C   C226      1.0  0.17485  0.53423  0.22845  1.0000
  Fe  Fe38      1.0  0.18690  0.60353  0.15822  1.0000
  S   S71       1.0  0.21265  0.58231  0.17780  1.0000
  S   S72       1.0  0.18625  0.59418  0.12652  1.0000
  H   H391      1.0  0.41472  0.81026  0.19886  1.0000
  H   H392      1.0  0.28999  0.51318  0.19831  1.0000
  Fe  Fe39      1.0  0.22197  0.61604  0.17965  1.0000
  S   S73       1.0  0.25975  0.61973  0.17587  1.0000
  H   H393      1.0  0.18706  0.74985  0.12022  1.0000
  S   S74       1.0  0.19867  0.63721  0.15760  1.0000
  H   H394      1.0  0.07178  0.59300  0.04135  1.0000
  S   S75       1.0  0.32149  0.72265  0.22261  1.0000
  H   H395      1.0  0.48216  0.92968  0.08340  1.0000
  Fe  Fe40      1.0  0.48529  0.88770  0.02375  1.0000
  N   N18       1.0  0.45847  0.62918  0.19269  1.0000
  C   C227      1.0  0.13419  0.59170  0.08419  1.0000
  H   H396      1.0  0.20789  0.51101  0.11346  1.0000
  S   S76       1.0  0.38085  0.68750  0.20780  1.0000
  H   H397      1.0  0.45820  0.84822  0.01837  1.0000
  H   H398      1.0  0.37212  0.81282  0.23718  1.0000
  S   S77       1.0  0.46390  0.90608  0.99904  1.0000
  C   C228      1.0  0.48793  0.94395  0.10917  1.0000
  C   C229      1.0  0.05084  0.89487  0.19744  1.0000
  H   H399      1.0  0.13406  0.74144  0.22149  1.0000
  S   S78       1.0  0.45318  0.93607  0.19601  1.0000
  Fe  Fe41      1.0  0.47504  0.90534  0.21154  1.0000
  C   C230      1.0  0.37600  0.94364  0.21976  1.0000
  H   H400      1.0  0.11843  0.54353  0.04206  1.0000
  H   H401      1.0  0.12519  0.88729  0.21111  1.0000
  S   S79       1.0  0.48254  0.74820  0.20532  1.0000
  Fe  Fe42      1.0  0.48709  0.94866  0.17847  1.0000
  H   H402      1.0  0.14904  0.60109  0.08328  1.0000
  H   H403      1.0  0.40910  0.64407  0.19667  1.0000
  H   H404      1.0  0.43513  0.81437  0.05681  1.0000
  S   S80       1.0  0.13156  0.51123  0.13183  1.0000
  C   C231      1.0  0.08851  0.50123  0.18294  1.0000
  S   S81       1.0  0.46655  0.88535  0.10469  1.0000
  C   C232      1.0  0.45275  0.55141  0.21496  1.0000
  H   H405      1.0  0.24657  0.74967  0.19433  1.0000
  S   S82       1.0  0.47070  0.86276  0.05332  1.0000
  C   C233      1.0  0.11309  0.55000  0.08422  1.0000
  H   H406      1.0  0.27470  0.78844  0.18704  1.0000
  C   C234      1.0  0.21923  0.52509  0.14400  1.0000
  C   C235      1.0  0.24391  0.50734  0.09704  1.0000
  C   C236      1.0  0.24526  0.79773  0.23330  1.0000
  Fe  Fe43      1.0  0.49088  0.74506  0.17049  1.0000
  C   C237      1.0  0.47491  0.90305  0.13658  1.0000
  H   H407      1.0  0.41153  0.97020  0.15137  1.0000
  C   C238      1.0  0.18016  0.70986  0.14465  1.0000
  H   H408      1.0  0.48128  0.91656  0.16203  1.0000
  H   H409      1.0  0.46958  0.88741  0.14743  1.0000
  H   H410      1.0  0.42231  0.79023  0.02406  1.0000
  H   H411      1.0  0.22977  0.57386  0.21951  1.0000
  C   C239      1.0  0.21387  0.48457  0.15579  1.0000
  H   H412      1.0  0.44182  0.61794  0.17105  1.0000
  C   C240      1.0  0.15291  0.48550  0.00878  1.0000
  H   H413      1.0  0.14743  0.55397  0.01161  1.0000
  H   H414      1.0  0.40611  0.94089  0.13453  1.0000
  C   C241      1.0  0.20329  0.74233  0.12659  1.0000
  H   H415      1.0  0.04891  0.88706  0.23203  1.0000
  H   H416      1.0  0.41576  0.75282  0.17458  1.0000
  H   H417      1.0  0.07467  0.50396  0.19730  1.0000
  C   C242      1.0  0.40507  0.68917  0.21813  1.0000
  C   C243      1.0  0.42290  0.70093  0.20438  1.0000
  C   C244      1.0  0.44318  0.70153  0.21155  1.0000
  H   H418      1.0  0.12876  0.85781  0.18427  1.0000
  H   H419      1.0  0.39963  0.82429  0.23273  1.0000
  H   H420      1.0  0.22939  0.55918  0.13901  1.0000
  H   H421      1.0  0.42108  0.70958  0.18806  1.0000
  H   H422      1.0  0.45645  0.71116  0.20088  1.0000
  N   N19       1.0  0.40556  0.77805  0.22021  1.0000
  C   C245      1.0  0.13939  0.70998  0.20923  1.0000
  H   H423      1.0  0.30079  0.77538  0.19619  1.0000
  S   S83       1.0  0.09519  0.82441  0.19632  1.0000
  H   H424      1.0  0.27769  0.81035  0.21319  1.0000
  H   H425      1.0  0.22720  0.53800  0.21860  1.0000
  H   H426      1.0  0.18462  0.72241  0.18122  1.0000
  C   C246      1.0  0.26180  0.64424  0.18509  1.0000
  C   C247      1.0  0.28343  0.64849  0.18748  1.0000
  C   C248      1.0  0.28453  0.66686  0.19706  1.0000
  C   C249      1.0  0.26404  0.68108  0.20386  1.0000
  C   C250      1.0  0.24268  0.67737  0.20058  1.0000
  C   C251      1.0  0.24152  0.65891  0.19133  1.0000
  H   H427      1.0  0.29918  0.63716  0.18261  1.0000
  H   H428      1.0  0.30116  0.66986  0.19929  1.0000
  H   H429      1.0  0.22695  0.68857  0.20554  1.0000
  H   H430      1.0  0.22487  0.65590  0.18922  1.0000
  C   C252      1.0  0.17139  0.57079  0.12850  1.0000
  C   C253      1.0  0.15470  0.56358  0.14699  1.0000
  C   C254      1.0  0.14255  0.54528  0.14786  1.0000
  C   C255      1.0  0.14755  0.53364  0.13058  1.0000
  C   C256      1.0  0.16474  0.54043  0.11237  1.0000
  C   C257      1.0  0.17635  0.55921  0.11116  1.0000
  H   H431      1.0  0.15080  0.57240  0.16045  1.0000
  C   C258      1.0  0.14524  0.72535  0.21993  1.0000
  H   H432      1.0  0.16883  0.53153  0.09904  1.0000
  H   H433      1.0  0.18932  0.56470  0.09685  1.0000
  S   S84       1.0  0.34535  0.52651  0.23658  1.0000
  H   H434      1.0  0.08677  0.92641  0.16803  1.0000
  H   H435      1.0  0.49049  0.82534  0.00830  1.0000
  C   C259      1.0  0.14530  0.56435  0.02427  1.0000
  H   H436      1.0  0.38813  0.75919  0.19180  1.0000
  H   H437      1.0  0.22018  0.76481  0.18629  1.0000
  H   H438      1.0  0.21858  0.74660  0.21246  1.0000
  Fe  Fe44      1.0  0.14518  0.48831  0.10733  1.0000
  H   H439      1.0  0.23155  0.49474  0.23361  1.0000
  H   H440      1.0  0.10654  0.55951  0.09770  1.0000
  C   C260      1.0  0.49036  0.80751  0.20829  1.0000
  H   H441      1.0  0.25320  0.89294  0.19942  1.0000
  H   H442      1.0  0.17520  0.86727  0.23192  1.0000
  C   C261      1.0  0.41897  0.76566  0.20238  1.0000
  C   C262      1.0  0.14088  0.57719  0.06628  1.0000
  C   C263      1.0  0.46226  0.80756  0.00464  1.0000
  H   H443      1.0  0.18554  0.66790  0.21374  1.0000
  H   H444      1.0  0.38502  0.95948  0.16624  1.0000
  Fe  Fe45      1.0  0.18448  0.58761  0.20666  1.0000
  H   H445      1.0  0.24249  0.73510  0.14440  1.0000
  H   H446      1.0  0.43108  0.93130  0.14653  1.0000
  H   H447      1.0  0.28540  0.75850  0.18671  1.0000
  C   C264      1.0  0.14493  0.86224  0.17250  1.0000
  H   H448      1.0  0.41148  0.95185  0.17712  1.0000
  C   C265      1.0  0.46981  0.55737  0.22370  1.0000
  H   H449      1.0  0.10348  0.88869  0.19616  1.0000
  C   C266      1.0  0.35998  0.96295  0.21397  1.0000
  H   H450      1.0  0.43727  0.78635  0.22608  1.0000
  H   H451      1.0  0.17567  0.69717  0.16001  1.0000
  H   H452      1.0  0.16576  0.93857  0.19401  1.0000
  H   H453      1.0  0.09786  0.51666  0.17802  1.0000
  H   H454      1.0  0.16080  0.87905  0.18995  1.0000
  H   H455      1.0  0.05618  0.89765  0.16288  1.0000
  H   H456      1.0  0.15125  0.51897  0.19138  1.0000
  H   H457      1.0  0.15380  0.91285  0.20931  1.0000
  C   C267      1.0  0.21923  0.70790  0.15223  1.0000
  H   H458      1.0  0.14232  0.86380  0.15575  1.0000
  H   H459      1.0  0.10915  0.60061  0.04738  1.0000
  S   S85       1.0  0.13281  0.84029  0.23058  1.0000
  S   S86       1.0  0.48848  0.96803  0.20366  1.0000
  Fe  Fe46      1.0  0.48600  0.88187  0.07128  1.0000
  C   C268      1.0  0.47743  0.60100  0.16634  1.0000
  C   C269      1.0  0.43920  0.62893  0.21272  1.0000
  C   C270      1.0  0.18781  0.48667  0.15468  1.0000
  C   C271      1.0  0.19852  0.89151  0.23091  1.0000
  H   H460      1.0  0.12931  0.54013  0.16203  1.0000
  H   H461      1.0  0.17772  0.50262  0.15959  1.0000
  H   H462      1.0  0.21805  0.52532  0.16140  1.0000
  C   C272      1.0  0.13193  0.55157  0.04598  1.0000
  H   H463      1.0  0.18809  0.70814  0.11002  1.0000
  C   C273      1.0  0.48777  0.80849  0.00591  1.0000
  H   H464      1.0  0.25604  0.83193  0.22294  1.0000
  C   C274      1.0  0.48144  0.62324  0.20023  1.0000
  H   H465      1.0  0.22990  0.50354  0.20577  1.0000
  H   H466      1.0  0.09649  0.57855  0.02586  1.0000
  H   H467      1.0  0.40679  0.81380  0.03563  1.0000
  C   C275      1.0  0.18733  0.73549  0.16584  1.0000
  H   H468      1.0  0.23914  0.74099  0.10706  1.0000
  S   S87       1.0  0.15753  0.79787  0.20554  1.0000
  S   S88       1.0  0.19589  0.61971  0.21034  1.0000
  H   H469      1.0  0.09696  0.52643  0.07189  1.0000
  S   S89       1.0  0.03613  0.92319  0.19590  1.0000
  C   C276      1.0  0.24489  0.52788  0.21684  1.0000
  S   S90       1.0  0.13727  0.49947  0.02985  1.0000
  C   C277      1.0  0.10206  0.58442  0.05672  1.0000
  C   C278      1.0  0.42163  0.85582  0.03101  1.0000
  C   C279      1.0  0.32746  0.80432  0.21550  1.0000
  C   C280      1.0  0.48171  0.84747  0.21212  1.0000
  H   H470      1.0  0.40151  0.63157  0.22478  1.0000
  H   H471      1.0  0.21705  0.74427  0.09194  1.0000
  H   H472      1.0  0.43928  0.65668  0.17289  1.0000
  C   C281      1.0  0.47811  0.80412  0.09072  1.0000
  H   H473      1.0  0.25213  0.82098  0.20100  1.0000
  H   H474      1.0  0.44890  0.59599  0.19297  1.0000
  S   S91       1.0  0.47332  0.68811  0.23949  1.0000
  N   N20       1.0  0.40172  0.91215  0.16201  1.0000
  C   C282      1.0  0.41159  0.93430  0.15039  1.0000
  C   C283      1.0  0.41056  0.89498  0.14730  1.0000
  C   C284      1.0  0.41159  0.90342  0.18236  1.0000
  C   C285      1.0  0.37536  0.91716  0.16725  1.0000
  H   H475      1.0  0.23335  0.72366  0.17312  1.0000
  C   C286      1.0  0.40307  0.90162  0.12512  1.0000
  C   C287      1.0  0.40297  0.88145  0.19754  1.0000
  C   C288      1.0  0.36134  0.89660  0.17145  1.0000
  H   H476      1.0  0.25155  0.54054  0.12619  1.0000
  H   H477      1.0  0.40557  0.87767  0.15507  1.0000
  H   H478      1.0  0.42998  0.89198  0.14390  1.0000
  H   H479      1.0  0.43110  0.90016  0.17818  1.0000
  H   H480      1.0  0.40751  0.91649  0.19267  1.0000
  H   H481      1.0  0.36960  0.92540  0.18169  1.0000
  H   H482      1.0  0.36903  0.93016  0.15376  1.0000
  C   C289      1.0  0.25967  0.49419  0.16227  1.0000
  C   C290      1.0  0.06942  0.85925  0.21699  1.0000
  H   H483      1.0  0.41339  0.91476  0.11371  1.0000
  H   H484      1.0  0.40698  0.88620  0.11755  1.0000
  H   H485      1.0  0.38413  0.90778  0.12651  1.0000
  H   H486      1.0  0.41196  0.87691  0.21151  1.0000
  H   H487      1.0  0.40730  0.86639  0.18957  1.0000
  H   H488      1.0  0.38401  0.88431  0.20461  1.0000
  H   H489      1.0  0.34731  0.89746  0.18609  1.0000
  H   H490      1.0  0.37126  0.87923  0.17456  1.0000
  H   H491      1.0  0.35225  0.89799  0.15791  1.0000
  N   N21       1.0  0.13381  0.90465  0.17735  1.0000
  C   C291      1.0  0.15936  0.51710  0.20512  1.0000
  C   C292      1.0  0.14561  0.92519  0.17641  1.0000
  C   C293      1.0  0.12225  0.90905  0.15804  1.0000
  C   C294      1.0  0.11641  0.89876  0.19837  1.0000
  C   C295      1.0  0.48770  0.94035  0.13137  1.0000
  C   C296      1.0  0.16180  0.92160  0.19282  1.0000
  C   C297      1.0  0.10305  0.92989  0.15592  1.0000
  C   C298      1.0  0.10245  0.91892  0.20896  1.0000
  N   N22       1.0  0.22806  0.50146  0.13899  1.0000
  H   H492      1.0  0.07631  0.54807  0.08470  1.0000
  H   H493      1.0  0.13271  0.94059  0.17897  1.0000
  H   H494      1.0  0.15646  0.93037  0.15990  1.0000
  H   H495      1.0  0.13567  0.91119  0.14266  1.0000
  H   H496      1.0  0.11357  0.89405  0.15819  1.0000
  H   H497      1.0  0.47397  0.63938  0.22894  1.0000
  S   S92       1.0  0.46161  0.87263  0.21195  1.0000
  H   H498      1.0  0.32573  0.76783  0.22382  1.0000
  C   C299      1.0  0.18706  0.69637  0.12611  1.0000
  H   H499      1.0  0.46518  0.81432  0.04525  1.0000
  Fe  Fe47      1.0  0.29486  0.69813  0.23363  1.0000
  H   H500      1.0  0.07328  0.84854  0.23203  1.0000
  C   C300      1.0  0.05553  0.88093  0.21703  1.0000
  H   H501      1.0  0.27459  0.55752  0.23880  1.0000
  C   C301      1.0  0.47799  0.77518  0.12389  1.0000
  H   H502      1.0  0.09828  0.93254  0.13980  1.0000
  H   H503      1.0  0.11372  0.92693  0.21581  1.0000
  S   S93       1.0  0.47622  0.92029  0.23997  1.0000
  H   H504      1.0  0.09332  0.93244  0.19791  1.0000
  C   C302      1.0  0.40740  0.67817  0.23931  1.0000
  C   C303      1.0  0.22447  0.50031  0.11686  1.0000
  C   C304      1.0  0.23095  0.78005  0.20907  1.0000
  H   H505      1.0  0.45781  0.54430  0.20037  1.0000
  C   C305      1.0  0.26994  0.76418  0.21976  1.0000
  C   C306      1.0  0.41098  0.81898  0.00068  1.0000
  C   C307      1.0  0.22920  0.75889  0.20021  1.0000
  C   C308      1.0  0.25858  0.81600  0.21637  1.0000
  C   C309      1.0  0.28289  0.77236  0.19609  1.0000
  Fe  Fe48      1.0  0.17141  0.63808  0.18821  1.0000
  C   C310      1.0  0.22227  0.73514  0.10749  1.0000
  H   H506      1.0  0.23724  0.79338  0.19495  1.0000
  H   H507      1.0  0.21268  0.78755  0.21528  1.0000
  H   H508      1.0  0.26525  0.50480  0.12783  1.0000
  H   H509      1.0  0.21397  0.48627  0.17254  1.0000
  Fe  Fe49      1.0  0.26826  0.91422  0.22951  1.0000
  H   H510      1.0  0.27026  0.74531  0.22196  1.0000
  H   H511      1.0  0.25503  0.51144  0.16657  1.0000
  H   H512      1.0  0.20073  0.53011  0.14221  1.0000
  C   C311      1.0  0.44188  0.84276  0.01682  1.0000
  C   C312      1.0  0.39900  0.80282  0.20947  1.0000
  H   H513      1.0  0.25981  0.49437  0.09708  1.0000
  H   H514      1.0  0.22783  0.69791  0.13950  1.0000
  H   H515      1.0  0.22584  0.55202  0.11458  1.0000
  H   H516      1.0  0.07915  0.85907  0.16303  1.0000
  C   C313      1.0  0.20751  0.86225  0.20889  1.0000
  S   S94       1.0  0.42354  0.97163  0.23858  1.0000
  Fe  Fe50      1.0  0.45643  0.95194  0.22283  1.0000
  H   H517      1.0  0.22524  0.71658  0.10712  1.0000
  H   H518      1.0  0.43511  0.77365  0.19384  1.0000
  H   H519      1.0  0.40673  0.83802  0.99756  1.0000
  H   H520      1.0  0.45908  0.77688  0.06698  1.0000
  C   C314      1.0  0.07790  0.85130  0.19746  1.0000
  C   C315      1.0  0.08671  0.57901  0.04266  1.0000
  C   C316      1.0  0.23236  0.54507  0.12989  1.0000
  S   S95       1.0  0.17154  0.49608  0.07639  1.0000
  N   N23       1.0  0.24522  0.77544  0.22648  1.0000
  S   S96       1.0  0.20028  0.83922  0.20051  1.0000
  H   H521      1.0  0.24854  0.52464  0.09586  1.0000
  H   H522      1.0  0.20940  0.75691  0.13074  1.0000
  C   C317      1.0  0.39914  0.96796  0.22924  1.0000
  C   C318      1.0  0.23838  0.71941  0.15671  1.0000
  C   C319      1.0  0.05968  0.88695  0.17804  1.0000
  H   H523      1.0  0.42303  0.87458  0.02584  1.0000
  H   H524      1.0  0.39443  0.81191  0.00233  1.0000
  H   H525      1.0  0.37963  0.83590  0.21506  1.0000
  H   H526      1.0  0.07922  0.56267  0.04951  1.0000
  H   H527      1.0  0.10861  0.94621  0.15673  1.0000
  H   H528      1.0  0.33302  0.80473  0.19824  1.0000
  H   H529      1.0  0.25405  0.53498  0.20010  1.0000
  H   H530      1.0  0.47206  0.58992  0.15728  1.0000
  C   C320      1.0  0.15273  0.88430  0.17532  1.0000
  C   C321      1.0  0.17548  0.49276  0.23515  1.0000
  H   H531      1.0  0.47112  0.81444  0.14764  1.0000
  C   C322      1.0  0.42911  0.55486  0.22492  1.0000
  C   C323      1.0  0.07275  0.86514  0.17811  1.0000
  C   C324      1.0  0.28013  0.51482  0.23329  1.0000
  H   H532      1.0  0.14440  0.53671  0.05218  1.0000
  H   H533      1.0  0.14913  0.74127  0.16732  1.0000
  H   H534      1.0  0.08061  0.50075  0.16917  1.0000
  S   S97       1.0  0.29833  0.91414  0.20098  1.0000
  H   H535      1.0  0.38663  0.80388  0.19859  1.0000
  H   H536      1.0  0.37319  0.92679  0.21855  1.0000
  C   C325      1.0  0.16386  0.75130  0.16483  1.0000
  H   H537      1.0  0.46983  0.81962  0.08184  1.0000
  H   H538      1.0  0.16455  0.76440  0.14955  1.0000
  H   H539      1.0  0.15889  0.84752  0.17526  1.0000
  C   C326      1.0  0.40548  0.76509  0.18483  1.0000
  H   H540      1.0  0.09054  0.52392  0.10059  1.0000
  H   H541      1.0  0.48619  0.65774  0.20367  1.0000
  S   S98       1.0  0.32952  0.85071  0.20515  1.0000
  H   H542      1.0  0.48249  0.60566  0.21059  1.0000
  H   H543      1.0  0.48973  0.58969  0.17616  1.0000
  H   H544      1.0  0.27889  0.48952  0.16088  1.0000
  C   C327      1.0  0.32442  0.82468  0.22334  1.0000
  Fe  Fe51      1.0  0.31617  0.93048  0.21961  1.0000
  H   H545      1.0  0.22695  0.80587  0.23845  1.0000
  C   C328      1.0  0.17412  0.68369  0.21565  1.0000
  C   C329      1.0  0.48323  0.82668  0.14723  1.0000
  H   H546      1.0  0.20342  0.68427  0.12680  1.0000
  Fe  Fe52      1.0  0.31294  0.88105  0.22063  1.0000
  H   H547      1.0  0.40220  0.73161  0.23714  1.0000
  H   H548      1.0  0.25474  0.70703  0.15658  1.0000
  S   S99       1.0  0.46469  0.76497  0.15086  1.0000
  H   H549      1.0  0.15599  0.56403  0.06991  1.0000
  H   H550      1.0  0.22249  0.48239  0.11636  1.0000
  C   C330      1.0  0.47516  0.65805  0.15794  1.0000
  H   H551      1.0  0.24112  0.86184  0.18702  1.0000
  C   C331      1.0  0.16539  0.71971  0.22879  1.0000
  H   H552      1.0  0.14787  0.58923  0.05116  1.0000
  S   S100      1.0  0.15749  0.60598  0.18708  1.0000
  Fe  Fe53      1.0  0.12105  0.81346  0.21833  1.0000
  C   C332      1.0  0.23611  0.88753  0.20643  1.0000
  C   C333      1.0  0.22928  0.86985  0.19949  1.0000
  H   H553      1.0  0.12791  0.53709  0.08897  1.0000
  H   H554      1.0  0.17884  0.91142  0.18728  1.0000
  H   H555      1.0  0.09007  0.58931  0.07150  1.0000
  H   H556      1.0  0.17308  0.68561  0.12772  1.0000
  C   C334      1.0  0.44917  0.80784  0.04412  1.0000
  H   H557      1.0  0.30400  0.53368  0.20590  1.0000
  C   C335      1.0  0.22071  0.89850  0.22200  1.0000
  C   C336      1.0  0.39576  0.94619  0.22710  1.0000
  H   H558      1.0  0.36949  0.77450  0.22293  1.0000
  Fe  Fe54      1.0  0.34687  0.69133  0.23130  1.0000
  H   H559      1.0  0.28103  0.76605  0.23080  1.0000
  C   C337      1.0  0.38347  0.76802  0.23246  1.0000
  H   H560      1.0  0.48497  0.79283  0.20496  1.0000
  H   H561      1.0  0.47589  0.67695  0.15343  1.0000
  C   C338      1.0  0.46723  0.79502  0.11195  1.0000
  H   H562      1.0  0.37577  0.73572  0.22676  1.0000
  C   C339      1.0  0.09310  0.53652  0.08490  1.0000
  C   C340      1.0  0.17965  0.69878  0.22679  1.0000
  H   H563      1.0  0.15963  0.76074  0.17841  1.0000
  H   H564      1.0  0.28597  0.63365  0.23759  1.0000
  C   C341      1.0  0.48142  0.91974  0.14496  1.0000
  H   H565      1.0  0.44252  0.61336  0.22539  1.0000
  C   C342      1.0  0.24103  0.50301  0.21755  1.0000
  H   H566      1.0  0.11871  0.60479  0.08222  1.0000
  C   C343      1.0  0.29745  0.51669  0.21121  1.0000
  H   H567      1.0  0.08871  0.91204  0.22273  1.0000
  N   N24       1.0  0.44346  0.81682  0.02188  1.0000
  H   H568      1.0  0.16734  0.88892  0.16135  1.0000
  H   H569      1.0  0.16072  0.55351  0.20071  1.0000
  H   H570      1.0  0.45735  0.82860  0.20575  1.0000
  S   S101      1.0  0.33583  0.96070  0.20352  1.0000
  H   H571      1.0  0.13606  0.58162  0.01859  1.0000
  C   C344      1.0  0.25342  0.49405  0.14049  1.0000
  C   C345      1.0  0.40428  0.95480  0.16226  1.0000
  H   H572      1.0  0.21402  0.69445  0.16690  1.0000
  H   H573      1.0  0.44030  0.84985  0.99962  1.0000
  H   H574      1.0  0.42245  0.85104  0.04845  1.0000
  H   H575      1.0  0.44741  0.50206  0.23978  1.0000
  H   H576      1.0  0.47484  0.84414  0.14075  1.0000
  N   N25       1.0  0.12150  0.56591  0.06303  1.0000
  C   C346      1.0  0.47539  0.90646  0.11439  1.0000
  S   S102      1.0  0.40784  0.54816  0.21351  1.0000
  N   N26       1.0  0.19786  0.72394  0.14672  1.0000
  H   H577      1.0  0.19944  0.74650  0.16799  1.0000
  C   C347      1.0  0.15387  0.68915  0.20699  1.0000
  Fe  Fe55      1.0  0.16896  0.82275  0.22055  1.0000
  C   C348      1.0  0.41410  0.62944  0.20943  1.0000
  C   C349      1.0  0.45612  0.65295  0.17859  1.0000
  H   H578      1.0  0.43555  0.77433  0.05521  1.0000
  S   S103      1.0  0.14682  0.67079  0.19250  1.0000
  H   H579      1.0  0.41157  0.61304  0.20574  1.0000
  S   S104      1.0  0.33277  0.89736  0.23734  1.0000
  C   C350      1.0  0.16477  0.53661  0.21038  1.0000
  C   C351      1.0  0.19206  0.87306  0.22465  1.0000
  C   C352      1.0  0.45546  0.61118  0.18105  1.0000
  H   H580      1.0  0.43871  0.64386  0.22023  1.0000
  H   H581      1.0  0.13120  0.58083  0.10074  1.0000
  H   H582      1.0  0.16350  0.72084  0.14204  1.0000
  H   H583      1.0  0.23771  0.50763  0.08202  1.0000
  H   H584      1.0  0.12368  0.71431  0.20256  1.0000
  C   C353      1.0  0.48218  0.92682  0.10054  1.0000
  C   C354      1.0  0.45243  0.78135  0.05161  1.0000
  H   H585      1.0  0.31300  0.50357  0.21301  1.0000
  H   H586      1.0  0.40352  0.78212  0.17374  1.0000
  S   S105      1.0  0.26428  0.70302  0.21735  1.0000
  C   C355      1.0  0.47476  0.82790  0.20858  1.0000
  H   H587      1.0  0.16319  0.56612  0.02566  1.0000
  Fe  Fe56      1.0  0.14795  0.48215  0.06148  1.0000
  H   H588      1.0  0.40425  0.85349  0.02890  1.0000
  S   S106      1.0  0.32067  0.66635  0.23919  1.0000
  C   C356      1.0  0.42059  0.80933  0.02172  1.0000
  H   H589      1.0  0.46084  0.78933  0.00475  1.0000
  H   H590      1.0  0.48481  0.82549  0.16417  1.0000
  C   C357      1.0  0.26279  0.55531  0.22851  1.0000
  H   H591      1.0  0.26370  0.62396  0.22801  1.0000
  C   C358      1.0  0.44632  0.68952  0.23216  1.0000
  H   H592      1.0  0.25768  0.49192  0.21288  1.0000
  H   H593      1.0  0.48674  0.61428  0.15421  1.0000
  Fe  Fe57      1.0  0.38125  0.53030  0.23984  1.0000
  H   H594      1.0  0.46533  0.77246  0.03980  1.0000
  H   H595      1.0  0.27259  0.55987  0.21149  1.0000
  H   H596      1.0  0.19516  0.69441  0.23367  1.0000
  Fe  Fe58      1.0  0.00643  0.93214  0.22281  1.0000
  H   H597      1.0  0.43901  0.74187  0.23836  1.0000
  H   H598      1.0  0.40823  0.93128  0.23141  1.0000
  H   H599      1.0  0.48788  0.55511  0.21568  1.0000
  C   C359      1.0  0.48636  0.63981  0.21311  1.0000
  C   C360      1.0  0.42147  0.77810  0.23531  1.0000
  C   C361      1.0  0.38457  0.74142  0.23765  1.0000
  C   C362      1.0  0.38697  0.81959  0.22479  1.0000
  C   C363      1.0  0.24135  0.57397  0.23062  1.0000
  H   H600      1.0  0.24746  0.59116  0.22570  1.0000
  H   H601      1.0  0.28759  0.60413  0.23659  1.0000
  N   N27       1.0  0.25745  0.53081  0.23360  1.0000
  S   S107      1.0  0.18140  0.55843  0.23544  1.0000
  H   H602      1.0  0.27674  0.49660  0.23890  1.0000
  H   H603      1.0  0.49207  0.96012  0.09886  1.0000
  Fe  Fe59      1.0  0.15499  0.77483  0.23837  1.0000
  H   H604      1.0  0.22756  0.64388  0.23943  1.0000
  C   C364      1.0  0.27518  0.61964  0.23998  1.0000
  C   C365      1.0  0.10332  0.96050  0.45134  1.0000
  S   S108      1.0  0.48386  0.57622  0.25267  1.0000
  Fe  Fe60      1.0  0.13150  0.81368  0.26138  1.0000
  S   S109      1.0  0.11303  0.82685  0.29137  1.0000
  H   H605      1.0  0.37482  0.90310  0.26549  1.0000
  H   H606      1.0  0.11567  0.95297  0.46253  1.0000
  C   C366      1.0  0.43961  0.57016  0.25237  1.0000
  H   H607      1.0  0.03740  0.87772  0.30242  1.0000
  C   C367      1.0  0.41388  0.50266  0.31921  1.0000
  C   C368      1.0  0.49150  0.59065  0.34258  1.0000
  H   H608      1.0  0.04516  0.94949  0.30096  1.0000
  C   C369      1.0  0.06382  0.95964  0.44454  1.0000
  C   C370      1.0  0.34505  0.56616  0.36209  1.0000
  Fe  Fe61      1.0  0.29948  0.89929  0.26252  1.0000
  S   S110      1.0  0.29842  0.88941  0.29853  1.0000
  C   C371      1.0  0.14648  0.77347  0.43913  1.0000
  C   C372      1.0  0.23278  0.75938  0.24575  1.0000
  S   S111      1.0  0.36936  0.53913  0.27286  1.0000
  H   H609      1.0  0.26309  0.65339  0.27469  1.0000
  S   S112      1.0  0.29988  0.55040  0.28402  1.0000
  C   C373      1.0  0.05783  0.94811  0.28553  1.0000
  C   C374      1.0  0.39456  0.55082  0.36471  1.0000
  H   H610      1.0  0.49207  0.48187  0.47828  1.0000
  H   H611      1.0  0.31530  0.95546  0.33334  1.0000
  H   H612      1.0  0.14246  0.81728  0.39476  1.0000
  Fe  Fe62      1.0  0.16535  0.85909  0.36836  1.0000
  S   S113      1.0  0.16385  0.89340  0.34551  1.0000
  S   S114      1.0  0.17694  0.82567  0.35683  1.0000
  Fe  Fe63      1.0  0.14628  0.87966  0.40853  1.0000
  S   S115      1.0  0.14317  0.91599  0.38945  1.0000
  Fe  Fe64      1.0  0.12904  0.90171  0.36671  1.0000
  S   S116      1.0  0.09685  0.91881  0.35370  1.0000
  Fe  Fe65      1.0  0.17835  0.90463  0.36992  1.0000
  S   S117      1.0  0.20603  0.92826  0.35813  1.0000
  S   S118      1.0  0.12918  0.86634  0.38739  1.0000
  S   S119      1.0  0.18286  0.86942  0.39113  1.0000
  C   C375      1.0  0.15710  0.76842  0.45970  1.0000
  C   C376      1.0  0.31752  0.82404  0.24566  1.0000
  S   S120      1.0  0.46474  0.54142  0.33598  1.0000
  C   C377      1.0  0.30366  0.57627  0.28972  1.0000
  C   C378      1.0  0.29007  0.58339  0.30843  1.0000
  H   H613      1.0  0.17529  0.85636  0.28473  1.0000
  H   H614      1.0  0.31885  0.96360  0.25070  1.0000
  H   H615      1.0  0.25602  0.59695  0.26572  1.0000
  H   H616      1.0  0.27789  0.57252  0.31955  1.0000
  H   H617      1.0  0.45713  0.59343  0.31929  1.0000
  H   H618      1.0  0.04597  0.88194  0.27328  1.0000
  C   C379      1.0  0.44475  0.52679  0.32982  1.0000
  C   C380      1.0  0.43593  0.53518  0.31073  1.0000
  C   C381      1.0  0.23528  0.83997  0.33722  1.0000
  H   H619      1.0  0.44144  0.55072  0.29985  1.0000
  H   H620      1.0  0.41426  0.52935  0.29038  1.0000
  H   H621      1.0  0.12130  0.93736  0.42889  1.0000
  H   H622      1.0  0.29391  0.98009  0.26353  1.0000
  H   H623      1.0  0.09493  0.90386  0.39974  1.0000
  H   H624      1.0  0.36896  0.95283  0.29318  1.0000
  H   H625      1.0  0.05104  0.95469  0.48743  1.0000
  H   H626      1.0  0.10323  0.97125  0.34865  1.0000
  C   C382      1.0  0.12519  0.78771  0.39852  1.0000
  C   C383      1.0  0.22838  0.86145  0.32041  1.0000
  H   H627      1.0  0.21362  0.59584  0.28987  1.0000
  H   H628      1.0  0.08187  0.88131  0.33883  1.0000
  C   C384      1.0  0.16115  0.81213  0.42881  1.0000
  C   C385      1.0  0.42257  0.56419  0.24366  1.0000
  H   H629      1.0  0.40431  0.56759  0.25099  1.0000
  C   C386      1.0  0.19671  0.64046  0.26506  1.0000
  H   H630      1.0  0.04632  0.95409  0.45206  1.0000
  C   C387      1.0  0.45630  0.48753  0.25039  1.0000
  H   H631      1.0  0.47416  0.58451  0.34693  1.0000
  S   S121      1.0  0.31022  0.75709  0.27070  1.0000
  H   H632      1.0  0.34446  0.52503  0.32113  1.0000
  C   C388      1.0  0.26115  0.61441  0.26343  1.0000
  C   C389      1.0  0.27295  0.90076  0.31496  1.0000
  C   C390      1.0  0.25656  0.91765  0.30589  1.0000
  C   C391      1.0  0.23598  0.92598  0.31919  1.0000
  C   C392      1.0  0.23137  0.91701  0.34155  1.0000
  C   C393      1.0  0.24767  0.90000  0.35066  1.0000
  C   C394      1.0  0.26855  0.89209  0.33742  1.0000
  H   H633      1.0  0.25957  0.92432  0.28865  1.0000
  H   H634      1.0  0.22353  0.93928  0.31211  1.0000
  H   H635      1.0  0.24431  0.89323  0.36799  1.0000
  H   H636      1.0  0.28110  0.87896  0.34454  1.0000
  C   C395      1.0  0.15852  0.82424  0.33977  1.0000
  C   C396      1.0  0.13913  0.84099  0.33800  1.0000
  C   C397      1.0  0.12494  0.84099  0.32362  1.0000
  C   C398      1.0  0.13054  0.82490  0.31019  1.0000
  C   C399      1.0  0.14995  0.80799  0.31185  1.0000
  C   C400      1.0  0.16378  0.80744  0.32695  1.0000
  H   H637      1.0  0.13509  0.85423  0.34746  1.0000
  H   H638      1.0  0.10987  0.85382  0.32260  1.0000
  H   H639      1.0  0.15413  0.79526  0.30170  1.0000
  H   H640      1.0  0.17884  0.79444  0.32825  1.0000
  H   H641      1.0  0.23958  0.58644  0.30137  1.0000
  H   H642      1.0  0.26721  0.51885  0.27739  1.0000
  H   H643      1.0  0.47852  0.64598  0.29256  1.0000
  C   C401      1.0  0.24893  0.65471  0.26555  1.0000
  H   H644      1.0  0.22145  0.67228  0.28831  1.0000
  H   H645      1.0  0.00940  0.90602  0.47769  1.0000
  C   C402      1.0  0.24771  0.83505  0.26878  1.0000
  H   H646      1.0  0.36861  0.90225  0.29399  1.0000
  C   C403      1.0  0.44993  0.61343  0.28889  1.0000
  S   S122      1.0  0.48515  0.48238  0.37457  1.0000
  H   H647      1.0  0.43436  0.60438  0.29192  1.0000
  H   H648      1.0  0.23499  0.82287  0.27093  1.0000
  H   H649      1.0  0.18792  0.51041  0.25482  1.0000
  H   H650      1.0  0.44808  0.65086  0.32016  1.0000
  N   N28       1.0  0.24022  0.63171  0.26953  1.0000
  N   N29       1.0  0.36306  0.56663  0.34130  1.0000
  H   H651      1.0  0.06090  0.86644  0.33269  1.0000
  H   H652      1.0  0.10596  0.96383  0.41596  1.0000
  Fe  Fe66      1.0  0.35424  0.48938  0.25166  1.0000
  C   C404      1.0  0.30745  0.61893  0.29807  1.0000
  H   H653      1.0  0.25265  0.54822  0.27288  1.0000
  H   H654      1.0  0.23742  0.52551  0.28998  1.0000
  H   H655      1.0  0.31606  0.92626  0.34787  1.0000
  H   H656      1.0  0.01184  0.95145  0.48389  1.0000
  C   C405      1.0  0.23060  0.67514  0.27108  1.0000
  H   H657      1.0  0.21532  0.63599  0.29952  1.0000
  C   C406      1.0  0.31408  0.93775  0.33204  1.0000
  C   C407      1.0  0.46878  0.49753  0.26394  1.0000
  H   H658      1.0  0.23629  0.76947  0.27539  1.0000
  C   C408      1.0  0.46737  0.59859  0.30269  1.0000
  H   H659      1.0  0.38408  0.55527  0.38015  1.0000
  C   C409      1.0  0.31962  0.59016  0.27547  1.0000
  H   H660      1.0  0.22389  0.53449  0.25585  1.0000
  Fe  Fe67      1.0  0.31580  0.72455  0.25764  1.0000
  H   H661      1.0  0.25377  0.79458  0.24748  1.0000
  H   H662      1.0  0.18786  0.64903  0.25139  1.0000
  H   H663      1.0  0.32657  0.53923  0.34160  1.0000
  H   H664      1.0  0.19373  0.65293  0.27583  1.0000
  C   C410      1.0  0.20315  0.89830  0.29050  1.0000
  C   C411      1.0  0.07359  0.91980  0.37609  1.0000
  H   H665      1.0  0.45328  0.62205  0.33511  1.0000
  C   C412      1.0  0.18010  0.51232  0.24087  1.0000
  H   H666      1.0  0.13026  0.78629  0.38113  1.0000
  H   H667      1.0  0.06970  0.89338  0.47744  1.0000
  C   C413      1.0  0.34121  0.54129  0.32736  1.0000
  S   S123      1.0  0.28700  0.70240  0.26816  1.0000
  S   S124      1.0  0.39130  0.49263  0.25198  1.0000
  C   C414      1.0  0.42259  0.49446  0.33831  1.0000
  H   H668      1.0  0.33592  0.55527  0.31426  1.0000
  H   H669      1.0  0.06704  0.97797  0.47857  1.0000
  C   C415      1.0  0.03306  0.93240  0.39107  1.0000
  C   C416      1.0  0.23078  0.62420  0.29351  1.0000
  H   H670      1.0  0.44417  0.50012  0.35856  1.0000
  H   H671      1.0  0.26531  0.82574  0.26347  1.0000
  H   H672      1.0  0.09082  0.91947  0.44761  1.0000
  H   H673      1.0  0.36597  0.60721  0.29223  1.0000
  S   S125      1.0  0.17361  0.73848  0.24207  1.0000
  H   H674      1.0  0.99441  0.91662  0.34985  1.0000
  H   H675      1.0  0.36851  0.52933  0.34535  1.0000
  Fe  Fe68      1.0  0.37708  0.50119  0.28490  1.0000
  H   H676      1.0  0.03886  0.90518  0.31907  1.0000
  H   H677      1.0  0.06118  0.97248  0.35322  1.0000
  H   H678      1.0  0.09962  0.91816  0.47199  1.0000
  S   S126      1.0  0.99728  0.91584  0.30456  1.0000
  H   H679      1.0  0.13278  0.96390  0.42398  1.0000
  C   C417      1.0  0.37154  0.59018  0.30204  1.0000
  H   H680      1.0  0.34780  0.54976  0.37404  1.0000
  H   H681      1.0  0.14756  0.77868  0.47191  1.0000
  H   H682      1.0  0.15818  0.92681  0.46787  1.0000
  H   H683      1.0  0.34810  0.97495  0.31824  1.0000
  C   C418      1.0  0.35216  0.96157  0.28855  1.0000
  C   C419      1.0  0.31323  0.80317  0.26007  1.0000
  H   H684      1.0  0.44363  0.63056  0.29314  1.0000
  C   C420      1.0  0.18634  0.80456  0.41730  1.0000
  H   H685      1.0  0.16105  0.79055  0.39629  1.0000
  H   H686      1.0  0.30793  0.80275  0.27734  1.0000
  C   C421      1.0  0.06403  0.91222  0.47588  1.0000
  S   S127      1.0  0.34371  0.69527  0.26552  1.0000
  H   H687      1.0  0.06299  0.90777  0.43132  1.0000
  C   C422      1.0  0.05961  0.91399  0.41513  1.0000
  S   S128      1.0  0.13150  0.86621  0.44368  1.0000
  H   H688      1.0  0.15831  0.76269  0.42806  1.0000
  H   H689      1.0  0.43047  0.66891  0.26230  1.0000
  N   N30       1.0  0.07253  0.90485  0.29660  1.0000
  C   C423      1.0  0.09657  0.90943  0.29717  1.0000
  C   C424      1.0  0.05770  0.90395  0.31914  1.0000
  C   C425      1.0  0.06116  0.92360  0.28092  1.0000
  C   C426      1.0  0.07485  0.88243  0.28923  1.0000
  C   C427      1.0  0.11362  0.91418  0.27505  1.0000
  H   H690      1.0  0.25695  0.66021  0.24818  1.0000
  H   H691      1.0  0.45724  0.61569  0.27123  1.0000
  H   H692      1.0  0.21378  0.76584  0.24982  1.0000
  H   H693      1.0  0.09547  0.92417  0.30521  1.0000
  H   H694      1.0  0.10549  0.89454  0.30740  1.0000
  H   H695      1.0  0.24398  0.62504  0.30301  1.0000
  H   H696      1.0  0.29629  0.93671  0.32981  1.0000
  H   H697      1.0  0.07087  0.92397  0.26390  1.0000
  H   H698      1.0  0.12370  0.77007  0.40831  1.0000
  H   H699      1.0  0.08524  0.88360  0.27238  1.0000
  H   H700      1.0  0.08519  0.86830  0.29879  1.0000
  H   H701      1.0  0.10731  0.93006  0.26418  1.0000
  H   H702      1.0  0.13060  0.91694  0.27790  1.0000
  H   H703      1.0  0.11741  0.89934  0.26678  1.0000
  C   C428      1.0  0.20372  0.84620  0.30297  1.0000
  C   C429      1.0  0.05103  0.92953  0.37307  1.0000
  H   H704      1.0  0.36919  0.57695  0.29365  1.0000
  H   H705      1.0  0.38936  0.58528  0.34573  1.0000
  C   C430      1.0  0.35621  0.58778  0.32510  1.0000
  H   H706      1.0  0.21799  0.67970  0.26008  1.0000
  C   C431      1.0  0.06374  0.88266  0.33646  1.0000
  S   S129      1.0  0.11711  0.78775  0.24988  1.0000
  N   N31       1.0  0.33563  0.94424  0.29137  1.0000
  C   C432      1.0  0.34606  0.92890  0.27517  1.0000
  H   H707      1.0  0.23494  0.73954  0.27819  1.0000
  C   C433      1.0  0.33309  0.92909  0.31384  1.0000
  S   S130      1.0  0.39485  0.48671  0.31334  1.0000
  C   C434      1.0  0.36969  0.91407  0.27792  1.0000
  C   C435      1.0  0.34250  0.58681  0.37327  1.0000
  C   C436      1.0  0.31217  0.97235  0.26462  1.0000
  C   C437      1.0  0.48254  0.63333  0.30731  1.0000
  H   H708      1.0  0.05201  0.88446  0.35230  1.0000
  H   H709      1.0  0.34898  0.93919  0.25844  1.0000
  H   H710      1.0  0.41263  0.78852  0.24775  1.0000
  H   H711      1.0  0.32881  0.91184  0.31364  1.0000
  H   H712      1.0  0.33334  0.62257  0.26830  1.0000
  H   H713      1.0  0.34997  0.92554  0.31951  1.0000
  H   H714      1.0  0.33774  0.58873  0.32363  1.0000
  H   H715      1.0  0.04941  0.91663  0.46709  1.0000
  C   C438      1.0  0.12586  0.87276  0.48483  1.0000
  C   C439      1.0  0.14387  0.79913  0.40386  1.0000
  H   H716      1.0  0.05026  0.96046  0.27242  1.0000
  C   C440      1.0  0.06927  0.95884  0.48118  1.0000
  H   H717      1.0  0.21296  0.59750  0.31734  1.0000
  C   C441      1.0  0.07771  0.91163  0.39717  1.0000
  H   H718      1.0  0.04752  0.93545  0.35689  1.0000
  C   C442      1.0  0.22267  0.63258  0.25566  1.0000
  H   H719      1.0  0.15676  0.83061  0.42141  1.0000
  H   H720      1.0  0.11623  0.82821  0.42732  1.0000
  Fe  Fe69      1.0  0.33441  0.53137  0.27096  1.0000
  H   H721      1.0  0.16172  0.81217  0.44583  1.0000
  H   H722      1.0  0.15476  0.90609  0.43982  1.0000
  H   H723      1.0  0.05898  0.91922  0.32550  1.0000
  C   C443      1.0  0.38717  0.56761  0.34471  1.0000
  H   H724      1.0  0.08928  0.96642  0.37644  1.0000
  H   H725      1.0  0.06989  0.95183  0.42986  1.0000
  H   H726      1.0  0.40072  0.56382  0.33043  1.0000
  H   H727      1.0  0.10476  0.80151  0.43447  1.0000
  C   C444      1.0  0.11626  0.95603  0.42873  1.0000
  H   H728      1.0  0.43436  0.57787  0.26657  1.0000
  H   H729      1.0  0.33020  0.58463  0.26102  1.0000
  H   H730      1.0  0.30193  0.96537  0.29909  1.0000
  H   H731      1.0  0.25435  0.83406  0.33324  1.0000
  H   H732      1.0  0.19894  0.81171  0.42344  1.0000
  H   H733      1.0  0.01573  0.94014  0.38868  1.0000
  H   H734      1.0  0.18889  0.81167  0.39957  1.0000
  N   N32       1.0  0.14276  0.79835  0.42760  1.0000
  C   C445      1.0  0.11894  0.81011  0.43653  1.0000
  H   H735      1.0  0.23960  0.69059  0.26816  1.0000
  H   H736      1.0  0.24036  0.88870  0.28212  1.0000
  H   H737      1.0  0.05464  0.85503  0.29071  1.0000
  C   C446      1.0  0.13544  0.88062  0.46291  1.0000
  H   H738      1.0  0.07456  0.95372  0.28576  1.0000
  N   N33       1.0  0.22556  0.85739  0.29899  1.0000
  H   H739      1.0  0.20678  0.82789  0.31135  1.0000
  C   C447      1.0  0.43794  0.50646  0.34359  1.0000
  H   H740      1.0  0.41312  0.55201  0.36451  1.0000
  S   S131      1.0  0.28456  0.93399  0.24623  1.0000
  H   H741      1.0  0.19094  0.78559  0.41989  1.0000
  S   S132      1.0  0.34088  0.49395  0.28602  1.0000
  H   H742      1.0  0.24197  0.87285  0.31770  1.0000
  H   H743      1.0  0.18948  0.85454  0.31438  1.0000
  Fe  Fe70      1.0  0.31532  0.67279  0.27294  1.0000
  H   H744      1.0  0.39033  0.58956  0.30197  1.0000
  H   H745      1.0  0.37788  0.54407  0.31851  1.0000
  H   H746      1.0  0.21205  0.87068  0.32871  1.0000
  C   C448      1.0  0.46176  0.63740  0.32627  1.0000
  C   C449      1.0  0.14912  0.91175  0.47258  1.0000
  H   H747      1.0  0.10786  0.79851  0.40036  1.0000
  C   C450      1.0  0.22386  0.59957  0.30066  1.0000
  H   H748      1.0  0.17576  0.77115  0.45569  1.0000
  H   H749      1.0  0.20344  0.85397  0.26713  1.0000
  S   S133      1.0  0.30908  0.64569  0.30340  1.0000
  C   C451      1.0  0.11348  0.81099  0.46084  1.0000
  S   S134      1.0  0.16912  0.79879  0.25270  1.0000
  H   H750      1.0  0.19124  0.82879  0.28241  1.0000
  H   H751      1.0  0.45515  0.50896  0.27302  1.0000
  H   H752      1.0  0.23159  0.84458  0.35347  1.0000
  H   H753      1.0  0.20346  0.91411  0.27753  1.0000
  H   H754      1.0  0.22436  0.87938  0.26706  1.0000
  N   N34       1.0  0.08032  0.95104  0.46012  1.0000
  C   C452      1.0  0.09121  0.97982  0.36126  1.0000
  C   C453      1.0  0.03755  0.92525  0.41209  1.0000
  H   H755      1.0  0.04345  0.92000  0.28081  1.0000
  C   C454      1.0  0.05181  0.87411  0.28882  1.0000
  H   H756      1.0  0.47290  0.58193  0.29705  1.0000
  H   H757      1.0  0.35899  0.59412  0.37074  1.0000
  S   S135      1.0  0.28134  0.87967  0.24745  1.0000
  H   H758      1.0  0.12967  0.76600  0.44383  1.0000
  C   C455      1.0  0.24704  0.84201  0.29037  1.0000
  C   C456      1.0  0.42062  0.52305  0.30534  1.0000
  H   H759      1.0  0.41545  0.74728  0.26102  1.0000
  H   H760      1.0  0.44300  0.75703  0.25741  1.0000
  H   H761      1.0  0.39361  0.53263  0.36458  1.0000
  C   C457      1.0  0.19321  0.84663  0.28304  1.0000
  H   H762      1.0  0.32913  0.60084  0.36738  1.0000
  H   H763      1.0  0.38396  0.92478  0.27503  1.0000
  C   C458      1.0  0.14721  0.90006  0.45674  1.0000
  H   H764      1.0  0.22545  0.82555  0.33855  1.0000
  H   H765      1.0  0.28173  0.61005  0.32725  1.0000
  C   C459      1.0  0.29224  0.60455  0.31277  1.0000
  H   H766      1.0  0.32733  0.56618  0.35907  1.0000
  H   H767      1.0  0.33707  0.58105  0.39113  1.0000
  H   H768      1.0  0.11037  0.79384  0.47109  1.0000
  C   C460      1.0  0.08493  0.92512  0.46345  1.0000
  C   C461      1.0  0.31196  0.95546  0.28668  1.0000
  H   H769      1.0  0.47308  0.50148  0.30315  1.0000
  H   H770      1.0  0.37436  0.73595  0.25431  1.0000
  H   H771      1.0  0.30087  0.94201  0.28751  1.0000
  H   H772      1.0  0.46777  0.64416  0.33837  1.0000
  C   C462      1.0  0.22434  0.88062  0.28381  1.0000
  H   H773      1.0  0.24921  0.82529  0.30195  1.0000
  H   H774      1.0  0.48041  0.50923  0.25195  1.0000
  H   H775      1.0  0.20397  0.90369  0.30554  1.0000
  H   H776      1.0  0.33369  0.91690  0.27549  1.0000
  C   C463      1.0  0.24192  0.52515  0.25573  1.0000
  H   H777      1.0  0.22295  0.61513  0.25247  1.0000
  H   H778      1.0  0.35668  0.60374  0.33083  1.0000
  C   C464      1.0  0.36387  0.54490  0.33318  1.0000
  H   H779      1.0  0.18628  0.89182  0.29245  1.0000
  C   C465      1.0  0.32122  0.61171  0.27947  1.0000
  C   C466      1.0  0.43001  0.75455  0.24853  1.0000
  H   H780      1.0  0.15655  0.74996  0.46759  1.0000
  H   H781      1.0  0.26307  0.85012  0.28863  1.0000
  C   C467      1.0  0.25059  0.52987  0.27481  1.0000
  H   H782      1.0  0.27367  0.61271  0.27416  1.0000
  S   S136      1.0  0.01647  0.93214  0.43443  1.0000
  H   H783      1.0  0.18731  0.62538  0.27330  1.0000
  H   H784      1.0  0.35778  0.96974  0.27113  1.0000
  H   H785      1.0  0.09698  0.82281  0.46433  1.0000
  H   H786      1.0  0.26149  0.75089  0.26413  1.0000
  H   H787      1.0  0.23970  0.50654  0.26009  1.0000
  C   C468      1.0  0.24217  0.75476  0.26692  1.0000
  H   H788      1.0  0.23355  0.74213  0.24188  1.0000
  C   C469      1.0  0.34382  0.98076  0.30183  1.0000
  H   H789      1.0  0.12701  0.81800  0.46575  1.0000
  H   H790      1.0  0.28988  0.51781  0.24495  1.0000
  C   C470      1.0  0.42825  0.67808  0.24624  1.0000
  Fe  Fe71      1.0  0.99471  0.96543  0.42332  1.0000
  H   H791      1.0  0.02575  0.97921  0.34572  1.0000
  H   H792      1.0  0.10110  0.97940  0.45067  1.0000
  H   H793      1.0  0.39360  0.66898  0.24998  1.0000
  H   H794      1.0  0.23104  0.57241  0.24745  1.0000
  H   H795      1.0  0.18662  0.89997  0.24304  1.0000
  C   C471      1.0  0.31592  0.78286  0.25223  1.0000
  H   H796      1.0  0.24495  0.84988  0.25542  1.0000
  S   S137      1.0  0.01357  0.95199  0.24535  1.0000
  H   H797      1.0  0.37685  0.77409  0.24807  1.0000
  H   H798      1.0  0.31586  0.83953  0.25191  1.0000
  N   N35       1.0  0.48856  0.60936  0.30254  1.0000
  C   C472      1.0  0.48903  0.49316  0.29362  1.0000
  C   C473      1.0  0.46323  0.56684  0.24237  1.0000
  Fe  Fe72      1.0  0.49061  0.51764  0.35465  1.0000
  H   H799      1.0  0.49063  0.60672  0.34846  1.0000
  H   H800      1.0  0.11657  0.85785  0.48963  1.0000
  H   H801      1.0  0.20403  0.57412  0.68410  1.0000
  Fe  Fe73      1.0  0.13750  0.89528  0.54740  1.0000
  S   S138      1.0  0.14493  0.85667  0.55338  1.0000
  S   S139      1.0  0.14141  0.91856  0.51433  1.0000
  Fe  Fe74      1.0  0.12660  0.89617  0.59585  1.0000
  S   S140      1.0  0.13315  0.85779  0.60610  1.0000
  S   S141      1.0  0.11311  0.92185  0.61755  1.0000
  Fe  Fe75      1.0  0.16404  0.86030  0.57825  1.0000
  S   S142      1.0  0.19924  0.83945  0.57992  1.0000
  Fe  Fe76      1.0  0.11362  0.85757  0.58051  1.0000
  S   S143      1.0  0.15924  0.89897  0.57005  1.0000
  S   S144      1.0  0.10434  0.89593  0.57242  1.0000
  S   S145      1.0  0.20409  0.84895  0.67696  1.0000
  Fe  Fe77      1.0  0.16733  0.72682  0.64490  1.0000
  S   S146      1.0  0.12863  0.73760  0.65320  1.0000
  S   S147      1.0  0.18880  0.73358  0.61111  1.0000
  Fe  Fe78      1.0  0.17108  0.70943  0.69191  1.0000
  S   S148      1.0  0.13307  0.71931  0.70438  1.0000
  S   S149      1.0  0.19580  0.69341  0.71399  1.0000
  Fe  Fe79      1.0  0.12845  0.70390  0.67740  1.0000
  H   H802      1.0  0.09060  0.93196  0.50141  1.0000
  Fe  Fe80      1.0  0.13739  0.75186  0.67909  1.0000
  S   S150      1.0  0.12429  0.78768  0.68535  1.0000
  S   S151      1.0  0.16652  0.69188  0.66663  1.0000
  S   S152      1.0  0.17592  0.74313  0.66922  1.0000
  C   C474      1.0  0.20116  0.62834  0.72139  1.0000
  S   S153      1.0  0.06292  0.51752  0.73662  1.0000
  H   H803      1.0  0.99818  0.86786  0.50222  1.0000
  H   H804      1.0  0.00594  0.87720  0.52430  1.0000
  Fe  Fe81      1.0  0.30784  0.72594  0.69131  1.0000
  S   S154      1.0  0.29118  0.72468  0.66380  1.0000
  S   S155      1.0  0.28768  0.72301  0.72585  1.0000
  S   S156      1.0  0.39045  0.73473  0.69454  1.0000
  S   S157      1.0  0.33802  0.69965  0.69926  1.0000
  S   S158      1.0  0.32460  0.75634  0.69184  1.0000
  C   C475      1.0  0.40646  0.70775  0.70169  1.0000
  C   C476      1.0  0.43050  0.70429  0.69352  1.0000
  C   C477      1.0  0.40753  0.66721  0.71873  1.0000
  C   C478      1.0  0.39512  0.68938  0.71498  1.0000
  H   H805      1.0  0.43940  0.71847  0.68344  1.0000
  H   H806      1.0  0.33127  0.61147  0.73194  1.0000
  H   H807      1.0  0.39864  0.65297  0.72852  1.0000
  H   H808      1.0  0.42455  0.78226  0.71439  1.0000
  H   H809      1.0  0.09001  0.78856  0.54994  1.0000
  H   H810      1.0  0.20609  0.51476  0.71812  1.0000
  C   C479      1.0  0.44690  0.89497  0.71312  1.0000
  H   H811      1.0  0.14718  0.94608  0.62911  1.0000
  S   S159      1.0  0.17032  0.87026  0.72887  1.0000
  H   H812      1.0  0.01479  0.57956  0.69328  1.0000
  Fe  Fe82      1.0  0.18772  0.89868  0.73313  1.0000
  H   H813      1.0  0.41835  0.60177  0.69836  1.0000
  C   C480      1.0  0.11681  0.64995  0.68912  1.0000
  C   C481      1.0  0.13675  0.64323  0.67432  1.0000
  C   C482      1.0  0.14797  0.62046  0.67775  1.0000
  H   H814      1.0  0.08237  0.94879  0.55128  1.0000
  C   C483      1.0  0.06708  0.87683  0.63145  1.0000
  H   H815      1.0  0.33965  0.49485  0.71602  1.0000
  H   H816      1.0  0.14331  0.65549  0.65998  1.0000
  H   H817      1.0  0.16329  0.61536  0.66614  1.0000
  C   C484      1.0  0.45974  0.82883  0.66277  1.0000
  C   C485      1.0  0.18399  0.76406  0.71827  1.0000
  C   C486      1.0  0.22386  0.69615  0.69834  1.0000
  C   C487      1.0  0.24304  0.69100  0.70843  1.0000
  C   C488      1.0  0.26462  0.69753  0.69671  1.0000
  C   C489      1.0  0.26689  0.70986  0.67536  1.0000
  C   C490      1.0  0.24845  0.71263  0.66455  1.0000
  C   C491      1.0  0.22695  0.70554  0.67605  1.0000
  H   H818      1.0  0.48305  0.58651  0.63950  1.0000
  H   H819      1.0  0.27938  0.69376  0.70438  1.0000
  H   H820      1.0  0.25037  0.72100  0.64766  1.0000
  H   H821      1.0  0.21267  0.70796  0.66775  1.0000
  C   C492      1.0  0.18165  0.83254  0.67841  1.0000
  C   C493      1.0  0.18544  0.81577  0.66576  1.0000
  C   C494      1.0  0.16770  0.80244  0.66716  1.0000
  C   C495      1.0  0.14628  0.80534  0.68172  1.0000
  C   C496      1.0  0.14235  0.82251  0.69391  1.0000
  C   C497      1.0  0.15987  0.83616  0.69211  1.0000
  H   H822      1.0  0.20192  0.81344  0.65459  1.0000
  H   H823      1.0  0.17045  0.79028  0.65669  1.0000
  H   H824      1.0  0.12575  0.82521  0.70495  1.0000
  H   H825      1.0  0.15633  0.84946  0.70146  1.0000
  C   C498      1.0  0.19605  0.81012  0.58864  1.0000
  C   C499      1.0  0.21158  0.79386  0.57817  1.0000
  C   C500      1.0  0.20926  0.77035  0.58507  1.0000
  C   C501      1.0  0.19159  0.76301  0.60265  1.0000
  C   C502      1.0  0.17613  0.77925  0.61322  1.0000
  C   C503      1.0  0.17822  0.80282  0.60608  1.0000
  H   H826      1.0  0.22526  0.79949  0.56455  1.0000
  H   H827      1.0  0.22117  0.75783  0.57683  1.0000
  H   H828      1.0  0.16245  0.77371  0.62684  1.0000
  H   H829      1.0  0.16638  0.81525  0.61446  1.0000
  C   C504      1.0  0.10870  0.91322  0.64600  1.0000
  C   C505      1.0  0.09685  0.92913  0.65890  1.0000
  C   C506      1.0  0.11731  0.89114  0.65594  1.0000
  H   H830      1.0  0.09023  0.94631  0.65142  1.0000
  H   H831      1.0  0.12679  0.87882  0.64616  1.0000
  C   C507      1.0  0.13944  0.60433  0.69610  1.0000
  C   C508      1.0  0.07505  0.86537  0.54960  1.0000
  H   H832      1.0  0.20573  0.91906  0.56768  1.0000
  H   H833      1.0  0.46717  0.84172  0.66809  1.0000
  H   H834      1.0  0.09211  0.83568  0.62940  1.0000
  H   H835      1.0  0.01487  0.91371  0.50085  1.0000
  C   C509      1.0  0.05198  0.88046  0.66978  1.0000
  H   H836      1.0  0.12031  0.87839  0.51744  1.0000
  C   C510      1.0  0.46856  0.80405  0.67354  1.0000
  H   H837      1.0  0.23095  0.58572  0.68149  1.0000
  N   N36       1.0  0.26760  0.78087  0.61900  1.0000
  C   C511      1.0  0.26993  0.76121  0.60744  1.0000
  C   C512      1.0  0.25008  0.77574  0.63999  1.0000
  C   C513      1.0  0.29133  0.78160  0.62355  1.0000
  C   C514      1.0  0.25971  0.80288  0.60431  1.0000
  C   C515      1.0  0.28882  0.76175  0.58638  1.0000
  C   C516      1.0  0.29175  0.79229  0.64292  1.0000
  C   C517      1.0  0.25353  0.82504  0.61365  1.0000
  H   H838      1.0  0.27392  0.74436  0.61846  1.0000
  H   H839      1.0  0.24784  0.78890  0.64999  1.0000
  H   H840      1.0  0.25655  0.75948  0.65031  1.0000
  H   H841      1.0  0.30089  0.76382  0.62707  1.0000
  H   H842      1.0  0.30261  0.79091  0.60898  1.0000
  H   H843      1.0  0.27355  0.80681  0.58955  1.0000
  H   H844      1.0  0.24471  0.80106  0.59756  1.0000
  H   H845      1.0  0.30661  0.76157  0.58917  1.0000
  H   H846      1.0  0.28926  0.74598  0.58007  1.0000
  H   H847      1.0  0.28473  0.77665  0.57344  1.0000
  H   H848      1.0  0.28139  0.80952  0.64249  1.0000
  H   H849      1.0  0.31012  0.79414  0.64272  1.0000
  H   H850      1.0  0.28555  0.78060  0.65852  1.0000
  H   H851      1.0  0.26943  0.83309  0.61217  1.0000
  H   H852      1.0  0.24366  0.82261  0.63061  1.0000
  H   H853      1.0  0.24148  0.83745  0.60429  1.0000
  C   C518      1.0  0.09963  0.95328  0.73654  1.0000
  S   S160      1.0  0.44533  0.63523  0.70914  1.0000
  H   H854      1.0  0.41989  0.81111  0.70079  1.0000
  C   C519      1.0  0.47175  0.48314  0.60088  1.0000
  N   N37       1.0  0.28689  0.85198  0.70291  1.0000
  C   C520      1.0  0.30756  0.86302  0.70373  1.0000
  C   C521      1.0  0.27547  0.86684  0.68490  1.0000
  C   C522      1.0  0.29626  0.82874  0.69713  1.0000
  C   C523      1.0  0.27070  0.84945  0.72498  1.0000
  C   C524      1.0  0.32276  0.84962  0.72011  1.0000
  C   C525      1.0  0.26958  0.89267  0.68564  1.0000
  C   C526      1.0  0.27810  0.81450  0.69495  1.0000
  H   H855      1.0  0.01874  0.89680  0.57992  1.0000
  H   H856      1.0  0.31930  0.86638  0.68743  1.0000
  H   H857      1.0  0.30166  0.88010  0.70844  1.0000
  H   H858      1.0  0.25900  0.86079  0.68443  1.0000
  H   H859      1.0  0.28703  0.86572  0.66877  1.0000
  H   H860      1.0  0.30954  0.83060  0.68166  1.0000
  H   H861      1.0  0.30561  0.81754  0.70956  1.0000
  H   H862      1.0  0.12202  0.97128  0.59331  1.0000
  S   S161      1.0  0.30038  0.53894  0.72585  1.0000
  H   H863      1.0  0.46454  0.53515  0.66468  1.0000
  C   C527      1.0  0.00842  0.87924  0.50643  1.0000
  H   H864      1.0  0.28289  0.49303  0.68473  1.0000
  H   H865      1.0  0.28552  0.90147  0.68067  1.0000
  H   H866      1.0  0.25805  0.90142  0.67411  1.0000
  H   H867      1.0  0.26037  0.89521  0.70201  1.0000
  H   H868      1.0  0.26717  0.80827  0.71101  1.0000
  H   H869      1.0  0.28753  0.79878  0.68910  1.0000
  H   H870      1.0  0.26704  0.82381  0.68319  1.0000
  H   H871      1.0  0.19027  0.75158  0.70725  1.0000
  H   H872      1.0  0.23035  0.92376  0.72759  1.0000
  C   C528      1.0  0.48585  0.86737  0.69394  1.0000
  H   H873      1.0  0.06179  0.63059  0.69886  1.0000
  N   N38       1.0  0.19884  0.90900  0.61526  1.0000
  C   C529      1.0  0.21221  0.92595  0.59781  1.0000
  C   C530      1.0  0.20818  0.90579  0.63569  1.0000
  C   C531      1.0  0.17304  0.91772  0.61980  1.0000
  C   C532      1.0  0.20208  0.88654  0.60776  1.0000
  C   C533      1.0  0.20346  0.93355  0.57620  1.0000
  C   C534      1.0  0.23299  0.89248  0.63539  1.0000
  C   C535      1.0  0.16654  0.94188  0.62539  1.0000
  C   C536      1.0  0.19030  0.86672  0.62420  1.0000
  H   H874      1.0  0.30330  0.66508  0.71861  1.0000
  H   H875      1.0  0.23090  0.91866  0.59351  1.0000
  H   H876      1.0  0.19660  0.89660  0.64989  1.0000
  H   H877      1.0  0.20846  0.92273  0.63975  1.0000
  H   H878      1.0  0.16496  0.91778  0.60593  1.0000
  H   H879      1.0  0.16345  0.90597  0.63367  1.0000
  H   H880      1.0  0.19509  0.88891  0.59285  1.0000
  H   H881      1.0  0.22094  0.88035  0.60248  1.0000
  C   C537      1.0  0.12993  0.97465  0.67460  1.0000
  H   H882      1.0  0.21413  0.94666  0.56517  1.0000
  H   H883      1.0  0.43388  0.77048  0.67649  1.0000
  H   H884      1.0  0.23366  0.87428  0.63418  1.0000
  H   H885      1.0  0.24630  0.90098  0.62235  1.0000
  H   H886      1.0  0.23780  0.89187  0.65110  1.0000
  H   H887      1.0  0.24367  0.49670  0.70565  1.0000
  H   H888      1.0  0.00049  0.97779  0.66177  1.0000
  H   H889      1.0  0.46580  0.56631  0.71348  1.0000
  H   H890      1.0  0.17623  0.86219  0.61792  1.0000
  H   H891      1.0  0.18223  0.87053  0.64040  1.0000
  H   H892      1.0  0.20326  0.85106  0.62646  1.0000
  N   N39       1.0  0.06284  0.58663  0.69007  1.0000
  C   C538      1.0  0.08773  0.58614  0.67723  1.0000
  C   C539      1.0  0.04953  0.60924  0.68102  1.0000
  C   C540      1.0  0.47607  0.86108  0.71608  1.0000
  C   C541      1.0  0.10421  0.56347  0.68216  1.0000
  Fe  Fe83      1.0  0.00363  0.93928  0.56156  1.0000
  N   N40       1.0  0.48663  0.56238  0.73787  1.0000
  H   H893      1.0  0.08807  0.58997  0.65944  1.0000
  H   H894      1.0  0.09644  0.59975  0.68009  1.0000
  H   H895      1.0  0.44578  0.54227  0.59128  1.0000
  H   H896      1.0  0.06788  0.56538  0.72089  1.0000
  S   S162      1.0  0.47860  0.49580  0.57319  1.0000
  S   S163      1.0  0.48536  0.49523  0.69362  1.0000
  H   H897      1.0  0.12243  0.56635  0.67390  1.0000
  H   H898      1.0  0.10413  0.55774  0.69973  1.0000
  H   H899      1.0  0.10006  0.54947  0.67572  1.0000
  H   H900      1.0  0.07542  0.63400  0.67040  1.0000
  C   C542      1.0  0.43091  0.79429  0.69909  1.0000
  H   H901      1.0  0.19713  0.53480  0.67157  1.0000
  H   H902      1.0  0.39602  0.61365  0.72738  1.0000
  H   H903      1.0  0.18501  0.94175  0.57831  1.0000
  H   H904      1.0  0.34054  0.77590  0.72138  1.0000
  N   N41       1.0  0.23293  0.53326  0.69560  1.0000
  H   H905      1.0  0.48358  0.84563  0.72581  1.0000
  H   H906      1.0  0.23623  0.86738  0.71968  1.0000
  C   C543      1.0  0.23656  0.55092  0.67475  1.0000
  H   H907      1.0  0.07172  0.89300  0.52224  1.0000
  H   H908      1.0  0.48775  0.80334  0.67241  1.0000
  H   H909      1.0  0.01520  0.86965  0.63353  1.0000
  H   H910      1.0  0.45324  0.74657  0.69941  1.0000
  C   C544      1.0  0.12800  0.88429  0.50060  1.0000
  H   H911      1.0  0.25512  0.55426  0.66996  1.0000
  H   H912      1.0  0.23402  0.54444  0.66078  1.0000
  H   H913      1.0  0.02719  0.87321  0.50059  1.0000
  H   H914      1.0  0.00113  0.85435  0.65948  1.0000
  C   C545      1.0  0.04948  0.97946  0.62883  1.0000
  C   C546      1.0  0.38875  0.52833  0.73240  1.0000
  C   C547      1.0  0.44285  0.68210  0.69721  1.0000
  H   H915      1.0  0.22495  0.75754  0.63201  1.0000
  S   S164      1.0  0.16020  0.90478  0.68349  1.0000
  Fe  Fe84      1.0  0.18892  0.87844  0.69428  1.0000
  C   C548      1.0  0.13957  0.90379  0.49454  1.0000
  C   C549      1.0  0.09423  0.92329  0.68157  1.0000
  H   H916      1.0  0.03826  0.86071  0.59895  1.0000
  C   C550      1.0  0.11431  0.88518  0.67870  1.0000
  H   H917      1.0  0.06675  0.86660  0.61929  1.0000
  C   C551      1.0  0.24120  0.54056  0.71317  1.0000
  H   H918      1.0  0.44483  0.57674  0.61895  1.0000
  C   C552      1.0  0.22535  0.77336  0.63786  1.0000
  H   H919      1.0  0.25323  0.76045  0.60274  1.0000
  H   H920      1.0  0.21384  0.77167  0.65419  1.0000
  H   H921      1.0  0.36938  0.48754  0.73405  1.0000
  H   H922      1.0  0.47783  0.59734  0.72089  1.0000
  S   S165      1.0  0.20813  0.90530  0.69882  1.0000
  S   S166      1.0  0.17832  0.96582  0.67049  1.0000
  H   H923      1.0  0.11342  0.59910  0.72559  1.0000
  C   C553      1.0  0.03744  0.48832  0.72837  1.0000
  S   S167      1.0  0.13165  0.51596  0.72281  1.0000
  H   H924      1.0  0.08616  0.93619  0.69113  1.0000
  H   H925      1.0  0.12147  0.86835  0.68631  1.0000
  H   H926      1.0  0.01127  0.88031  0.65812  1.0000
  C   C554      1.0  0.22217  0.57484  0.67494  1.0000
  Fe  Fe85      1.0  0.17664  0.93077  0.69224  1.0000
  C   C555      1.0  0.10327  0.90137  0.69156  1.0000
  H   H927      1.0  0.21765  0.78873  0.62737  1.0000
  S   S168      1.0  0.08420  0.83687  0.58650  1.0000
  H   H928      1.0  0.08572  0.87952  0.62900  1.0000
  H   H929      1.0  0.44098  0.53722  0.62687  1.0000
  H   H930      1.0  0.40507  0.62516  0.67983  1.0000
  C   C556      1.0  0.06385  0.88564  0.53868  1.0000
  H   H931      1.0  0.04910  0.96591  0.64387  1.0000
  C   C557      1.0  0.43112  0.66339  0.70885  1.0000
  Fe  Fe86      1.0  0.35280  0.72968  0.70354  1.0000
  H   H932      1.0  0.48387  0.89253  0.66444  1.0000
  H   H933      1.0  0.04896  0.96018  0.60553  1.0000
  H   H934      1.0  0.22037  0.58340  0.65810  1.0000
  H   H935      1.0  0.21732  0.79012  0.70355  1.0000
  C   C558      1.0  0.04504  0.86727  0.58200  1.0000
  H   H936      1.0  0.44720  0.52047  0.71285  1.0000
  H   H937      1.0  0.07714  0.59298  0.71563  1.0000
  S   S169      1.0  0.10262  0.67843  0.68493  1.0000
  H   H938      1.0  0.43462  0.48909  0.60199  1.0000
  H   H939      1.0  0.02561  0.55878  0.71549  1.0000
  S   S170      1.0  0.10489  0.89574  0.71924  1.0000
  H   H940      1.0  0.12886  0.95970  0.68772  1.0000
  H   H941      1.0  0.18039  0.78103  0.70749  1.0000
  H   H942      1.0  0.34174  0.58221  0.69667  1.0000
  H   H943      1.0  0.31489  0.58948  0.71406  1.0000
  H   H944      1.0  0.07080  0.95127  0.51549  1.0000
  C   C559      1.0  0.06592  0.85649  0.57136  1.0000
  Fe  Fe87      1.0  0.14244  0.89824  0.71835  1.0000
  H   H945      1.0  0.47219  0.58627  0.60545  1.0000
  C   C560      1.0  0.06221  0.96880  0.60916  1.0000
  H   H946      1.0  0.32704  0.61171  0.69356  1.0000
  H   H947      1.0  0.09907  0.95676  0.57952  1.0000
  C   C561      1.0  0.04366  0.89719  0.54966  1.0000
  C   C562      1.0  0.44825  0.48266  0.61128  1.0000
  H   H948      1.0  0.07691  0.81490  0.65050  1.0000
  C   C563      1.0  0.48014  0.54658  0.59663  1.0000
  C   C564      1.0  0.08598  0.97041  0.57266  1.0000
  C   C565      1.0  0.42375  0.78670  0.68055  1.0000
  H   H949      1.0  0.24057  0.83770  0.71711  1.0000
  H   H950      1.0  0.19173  0.61031  0.69903  1.0000
  H   H951      1.0  0.44670  0.51436  0.66575  1.0000
  H   H952      1.0  0.24588  0.74173  0.70884  1.0000
  C   C566      1.0  0.45982  0.55341  0.58422  1.0000
  C   C567      1.0  0.03404  0.88780  0.57120  1.0000
  H   H953      1.0  0.47726  0.75644  0.67765  1.0000
  H   H954      1.0  0.28067  0.63928  0.70903  1.0000
  H   H955      1.0  0.33365  0.83422  0.71473  1.0000
  S   S171      1.0  0.48058  0.66365  0.65189  1.0000
  H   H956      1.0  0.47707  0.81663  0.70661  1.0000
  C   C568      1.0  0.05868  0.49050  0.73317  1.0000
  H   H957      1.0  0.34685  0.58335  0.73326  1.0000
  H   H958      1.0  0.42504  0.80027  0.66557  1.0000
  H   H959      1.0  0.43464  0.54442  0.66145  1.0000
  C   C569      1.0  0.45767  0.53316  0.63282  1.0000
  H   H960      1.0  0.10918  0.77806  0.52761  1.0000
  C   C570      1.0  0.20781  0.52859  0.70320  1.0000
  C   C571      1.0  0.11968  0.61112  0.71105  1.0000
  N   N42       1.0  0.47450  0.54977  0.61989  1.0000
  H   H961      1.0  0.09295  0.63898  0.71908  1.0000
  H   H962      1.0  0.23532  0.77908  0.72272  1.0000
  H   H963      1.0  0.13888  0.75928  0.54871  1.0000
  H   H964      1.0  0.12355  0.72098  0.58643  1.0000
  H   H965      1.0  0.24107  0.68284  0.72544  1.0000
  C   C572      1.0  0.02729  0.56408  0.69761  1.0000
  C   C573      1.0  0.22315  0.77391  0.71449  1.0000
  H   H966      1.0  0.48268  0.73829  0.70238  1.0000
  S   S172      1.0  0.42345  0.91315  0.72497  1.0000
  H   H967      1.0  0.04945  0.61029  0.66359  1.0000
  H   H968      1.0  0.35792  0.63266  0.67303  1.0000
  H   H969      1.0  0.45515  0.60246  0.63770  1.0000
  H   H970      1.0  0.33418  0.64961  0.68775  1.0000
  S   S173      1.0  0.03141  0.92403  0.53690  1.0000
  C   C574      1.0  0.19693  0.52148  0.68667  1.0000
  N   N43       1.0  0.45654  0.79609  0.69677  1.0000
  H   H971      1.0  0.44040  0.83270  0.66633  1.0000
  C   C575      1.0  0.10872  0.78419  0.54265  1.0000
  H   H972      1.0  0.20525  0.50446  0.68297  1.0000
  H   H973      1.0  0.45251  0.57185  0.58299  1.0000
  H   H974      1.0  0.27176  0.93090  0.71777  1.0000
  H   H975      1.0  0.08876  0.79052  0.58407  1.0000
  H   H976      1.0  0.41035  0.53651  0.70059  1.0000
  H   H977      1.0  0.07510  0.95420  0.61467  1.0000
  H   H978      1.0  0.06708  0.92873  0.72843  1.0000
  C   C576      1.0  0.24439  0.84984  0.72586  1.0000
  C   C577      1.0  0.41006  0.52914  0.71759  1.0000
  C   C578      1.0  0.45055  0.53207  0.65749  1.0000
  C   C579      1.0  0.45853  0.81352  0.70947  1.0000
  C   C580      1.0  0.16030  0.75734  0.73207  1.0000
  H   H979      1.0  0.18906  0.64133  0.69033  1.0000
  H   H980      1.0  0.17136  0.77710  0.56332  1.0000
  H   H981      1.0  0.14805  0.75893  0.72101  1.0000
  H   H982      1.0  0.99425  0.91592  0.71052  1.0000
  H   H983      1.0  0.34974  0.64424  0.71800  1.0000
  C   C581      1.0  0.43100  0.51979  0.72450  1.0000
  H   H984      1.0  0.05414  0.56824  0.66852  1.0000
  H   H985      1.0  0.46669  0.55070  0.56732  1.0000
  H   H986      1.0  0.46425  0.51539  0.63012  1.0000
  H   H987      1.0  0.13935  0.71514  0.60783  1.0000
  H   H988      1.0  0.46134  0.67950  0.69047  1.0000
  C   C582      1.0  0.34416  0.60029  0.72204  1.0000
  C   C583      1.0  0.35347  0.64477  0.68424  1.0000
  C   C584      1.0  0.99864  0.94806  0.68780  1.0000
  H   H989      1.0  0.09957  0.94464  0.72319  1.0000
  C   C585      1.0  0.07874  0.84665  0.66107  1.0000
  H   H990      1.0  0.19593  0.54367  0.70819  1.0000
  H   H991      1.0  0.13792  0.79545  0.58975  1.0000
  H   H992      1.0  0.38579  0.57915  0.70348  1.0000
  H   H993      1.0  0.37408  0.59873  0.68280  1.0000
  C   C586      1.0  0.37949  0.60576  0.73231  1.0000
  C   C587      1.0  0.46360  0.57447  0.62004  1.0000
  S   S174      1.0  0.15397  0.57596  0.69992  1.0000
  C   C588      1.0  0.47630  0.88757  0.68152  1.0000
  C   C589      1.0  0.12125  0.76484  0.55802  1.0000
  C   C590      1.0  0.09881  0.77492  0.59228  1.0000
  H   H994      1.0  0.08875  0.76058  0.59342  1.0000
  H   H995      1.0  0.08418  0.79310  0.61900  1.0000
  H   H996      1.0  0.11384  0.78118  0.61906  1.0000
  H   H997      1.0  0.21719  0.62477  0.68829  1.0000
  H   H998      1.0  0.02422  0.59456  0.72276  1.0000
  H   H999      1.0  0.47164  0.53763  0.72744  1.0000
  C   C591      1.0  0.19934  0.62596  0.69858  1.0000
  C   C592      1.0  0.13477  0.79213  0.57453  1.0000
  C   C593      1.0  0.09735  0.77807  0.61570  1.0000
  H   H1000     1.0  0.11148  0.74983  0.56137  1.0000
  H   H1001     1.0  0.12319  0.80772  0.56836  1.0000
  H   H1002     1.0  0.09083  0.76299  0.62773  1.0000
  H   H1003     1.0  0.09724  0.96088  0.49777  1.0000
  C   C594      1.0  0.01558  0.86474  0.65112  1.0000
  H   H1004     1.0  0.04233  0.60931  0.73260  1.0000
  H   H1005     1.0  0.25226  0.76647  0.68848  1.0000
  C   C595      1.0  0.23771  0.75773  0.69955  1.0000
  C   C596      1.0  0.05280  0.56692  0.68625  1.0000
  N   N44       1.0  0.12311  0.77070  0.57895  1.0000
  C   C597      1.0  0.15855  0.79205  0.55840  1.0000
  S   S175      1.0  0.15732  0.92607  0.72679  1.0000
  H   H1006     1.0  0.15670  0.79267  0.54161  1.0000
  C   C598      1.0  0.05892  0.63109  0.68243  1.0000
  C   C599      1.0  0.40657  0.60635  0.68654  1.0000
  S   S176      1.0  0.31189  0.90962  0.73513  1.0000
  H   H1007     1.0  0.25656  0.55015  0.70611  1.0000
  N   N45       1.0  0.05862  0.86395  0.65431  1.0000
  C   C600      1.0  0.26604  0.91805  0.73197  1.0000
  H   H1008     1.0  0.28019  0.52198  0.66974  1.0000
  H   H1009     1.0  0.22718  0.75321  0.68943  1.0000
  H   H1010     1.0  0.16630  0.80768  0.55796  1.0000
  H   H1011     1.0  0.06300  0.94382  0.57686  1.0000
  H   H1012     1.0  0.37669  0.69208  0.72197  1.0000
  C   C601      1.0  0.24753  0.51088  0.69135  1.0000
  C   C602      1.0  0.08868  0.82830  0.64697  1.0000
  C   C603      1.0  0.46477  0.58470  0.63948  1.0000
  C   C604      1.0  0.46965  0.77343  0.70607  1.0000
  C   C605      1.0  0.08303  0.95031  0.49974  1.0000
  Fe  Fe88      1.0  0.13709  0.55007  0.72787  1.0000
  H   H1013     1.0  0.10570  0.81946  0.65092  1.0000
  C   C606      1.0  0.07089  0.95759  0.56403  1.0000
  H   H1014     1.0  0.37977  0.50223  0.69591  1.0000
  C   C607      1.0  0.13763  0.75085  0.59086  1.0000
  H   H1015     1.0  0.05699  0.85874  0.70146  1.0000
  C   C608      1.0  0.04292  0.86995  0.69383  1.0000
  H   H1016     1.0  0.03002  0.91747  0.72892  1.0000
  C   C609      1.0  0.04054  0.59274  0.72874  1.0000
  H   H1017     1.0  0.40509  0.78375  0.68564  1.0000
  H   H1018     1.0  0.48814  0.77558  0.70547  1.0000
  C   C610      1.0  0.12675  0.72818  0.59960  1.0000
  N   N46       1.0  0.36698  0.61030  0.71358  1.0000
  S   S177      1.0  0.00550  0.96100  0.70695  1.0000
  H   H1019     1.0  0.07371  0.83672  0.67789  1.0000
  H   H1020     1.0  0.14212  0.75565  0.60483  1.0000
  H   H1021     1.0  0.15476  0.74635  0.58027  1.0000
  H   H1022     1.0  0.45020  0.91751  0.68166  1.0000
  H   H1023     1.0  0.05707  0.96932  0.55645  1.0000
  C   C611      1.0  0.45612  0.87451  0.72550  1.0000
  H   H1024     1.0  0.43244  0.80096  0.73873  1.0000
  H   H1025     1.0  0.37865  0.64415  0.70370  1.0000
  H   H1026     1.0  0.46583  0.83123  0.64487  1.0000
  C   C612      1.0  0.27434  0.51086  0.68574  1.0000
  H   H1027     1.0  0.06722  0.88925  0.66905  1.0000
  H   H1028     1.0  0.09151  0.85730  0.54159  1.0000
  H   H1029     1.0  0.41531  0.59759  0.67287  1.0000
  H   H1030     1.0  0.21248  0.94183  0.60376  1.0000
  H   H1031     1.0  0.04582  0.95302  0.72648  1.0000
  S   S178      1.0  0.36308  0.53850  0.72240  1.0000
  H   H1032     1.0  0.03672  0.88418  0.70293  1.0000
  H   H1033     1.0  0.17329  0.95560  0.61183  1.0000
  H   H1034     1.0  0.11046  0.73008  0.61197  1.0000
  H   H1035     1.0  0.03567  0.83782  0.67054  1.0000
  H   H1036     1.0  0.27158  0.86343  0.73324  1.0000
  C   C613      1.0  0.06320  0.58385  0.71380  1.0000
  Fe  Fe89      1.0  0.30738  0.75070  0.72707  1.0000
  H   H1037     1.0  0.09352  0.85552  0.66136  1.0000
  H   H1038     1.0  0.24316  0.50546  0.67761  1.0000
  Fe  Fe90      1.0  0.47836  0.63864  0.68380  1.0000
  H   H1039     1.0  0.06290  0.55008  0.69209  1.0000
  C   C614      1.0  0.33165  0.59593  0.70525  1.0000
  H   H1040     1.0  0.03479  0.90132  0.62708  1.0000
  H   H1041     1.0  0.06008  0.90695  0.60651  1.0000
  C   C615      1.0  0.05395  0.90101  0.62424  1.0000
  H   H1042     1.0  0.03081  0.61087  0.68895  1.0000
  H   H1043     1.0  0.05802  0.91378  0.63232  1.0000
  H   H1044     1.0  0.28097  0.51586  0.69841  1.0000
  H   H1045     1.0  0.02784  0.86049  0.69601  1.0000
  H   H1046     1.0  0.17826  0.51968  0.69392  1.0000
  H   H1047     1.0  0.04433  0.83984  0.64245  1.0000
  H   H1048     1.0  0.03831  0.89473  0.66514  1.0000
  C   C616      1.0  0.38251  0.59792  0.69655  1.0000
  H   H1049     1.0  0.19660  0.81399  0.72535  1.0000
  H   H1050     1.0  0.24755  0.52525  0.72477  1.0000
  C   C617      1.0  0.36267  0.63602  0.70557  1.0000
  S   S179      1.0  0.00903  0.95140  0.59008  1.0000
  H   H1051     1.0  0.99448  0.95162  0.51092  1.0000
  C   C618      1.0  0.45724  0.90164  0.69123  1.0000
  H   H1052     1.0  0.33506  0.86093  0.72125  1.0000
  H   H1053     1.0  0.17263  0.94238  0.64012  1.0000
  H   H1054     1.0  0.15319  0.63611  0.71764  1.0000
  H   H1055     1.0  0.21467  0.57097  0.71800  1.0000
  H   H1056     1.0  0.36150  0.66041  0.67493  1.0000
  H   H1057     1.0  0.44854  0.83055  0.70389  1.0000
  H   H1058     1.0  0.10387  0.97254  0.62001  1.0000
  C   C619      1.0  0.03907  0.85067  0.65504  1.0000
  C   C620      1.0  0.05164  0.93750  0.73814  1.0000
  C   C621      1.0  0.10817  0.63379  0.70741  1.0000
  C   C622      1.0  0.28367  0.63640  0.72539  1.0000
  C   C623      1.0  0.47050  0.75287  0.69543  1.0000
  H   H1059     1.0  0.11730  0.80007  0.53758  1.0000
  H   H1060     1.0  0.04599  0.64645  0.67852  1.0000
  H   H1061     1.0  0.45672  0.57488  0.65534  1.0000
  H   H1062     1.0  0.46713  0.79246  0.66299  1.0000
  H   H1063     1.0  0.02205  0.54975  0.69240  1.0000
  H   H1064     1.0  0.02430  0.50322  0.72636  1.0000
  C   C624      1.0  0.47960  0.55376  0.72050  1.0000
  C   C625      1.0  0.29624  0.65117  0.73081  1.0000
  C   C626      1.0  0.00317  0.90468  0.49551  1.0000
  H   H1065     1.0  0.47224  0.96372  0.73939  1.0000
  H   H1066     1.0  0.39211  0.49465  0.67003  1.0000
  H   H1067     1.0  0.46195  0.76748  0.72350  1.0000
  C   C627      1.0  0.39325  0.49030  0.68745  1.0000
  H   H1068     1.0  0.41093  0.49340  0.68813  1.0000
  N   N47       1.0  0.20250  0.76450  0.73061  1.0000
  H   H1069     1.0  0.16759  0.80531  0.73193  1.0000
  H   H1070     1.0  0.16908  0.59838  0.73060  1.0000
  H   H1071     1.0  0.05774  0.91556  0.49251  1.0000
  C   C628      1.0  0.22323  0.55543  0.72754  1.0000
  H   H1072     1.0  0.49148  0.54598  0.68817  1.0000
  C   C629      1.0  0.99393  0.95494  0.49349  1.0000
  H   H1073     1.0  0.21363  0.72775  0.73144  1.0000
  H   H1074     1.0  0.21479  0.61424  0.72670  1.0000
  H   H1075     1.0  0.20882  0.64458  0.71910  1.0000
  H   H1076     1.0  0.48669  0.52833  0.59563  1.0000
  H   H1077     1.0  0.37588  0.78807  0.72685  1.0000
  H   H1078     1.0  0.06765  0.97582  0.73517  1.0000
  C   C630      1.0  0.15193  0.98086  0.66335  1.0000
  H   H1079     1.0  0.09608  0.98124  0.55826  1.0000
  H   H1080     1.0  0.38472  0.58687  0.73758  1.0000
  H   H1081     1.0  0.10964  0.96810  0.72918  1.0000
  S   S180      1.0  0.26338  0.59688  0.73336  1.0000
  S   S181      1.0  0.37300  0.87616  0.73183  1.0000
  H   H1082     1.0  0.16694  0.65987  0.71761  1.0000
  C   C631      1.0  0.24259  0.91394  0.73743  1.0000
  H   H1083     1.0  0.46886  0.92362  0.73298  1.0000
  C   C632      1.0  0.15975  0.64434  0.72836  1.0000
  H   H1084     1.0  0.41474  0.74240  0.72526  1.0000
  H   H1085     1.0  0.27650  0.83326  0.73597  1.0000
  Fe  Fe91      1.0  0.31905  0.69846  0.73372  1.0000
  C   C633      1.0  0.99725  0.96015  0.66672  1.0000
  H   H1086     1.0  0.20978  0.54515  0.73866  1.0000
  H   H1087     1.0  0.23234  0.56137  0.73801  1.0000
  C   C634      1.0  0.33912  0.78479  0.73439  1.0000
  H   H1088     1.0  0.31221  0.84487  0.73668  1.0000
  C   C635      1.0  0.44965  0.80738  0.73431  1.0000
  H   H1089     1.0  0.12527  0.66402  0.73413  1.0000
  S   S182      1.0  0.33670  0.72594  0.73873  1.0000
  N   N48       1.0  0.17869  0.62806  0.73833  1.0000
  C   C636      1.0  0.99344  0.92535  0.69420  1.0000
  C   C637      1.0  0.35921  0.79168  0.73748  1.0000
  C   C638      1.0  0.18363  0.80467  0.73816  1.0000
  C   C639      1.0  0.49197  0.58677  0.72885  1.0000
  S   S183      1.0  0.26236  0.53389  0.77160  1.0000
  S   S184      1.0  0.30922  0.55955  0.76572  1.0000
  H   H1090     1.0  0.40396  0.80902  0.82185  1.0000
  C   C640      1.0  0.26282  0.50381  0.83077  1.0000
  S   S185      1.0  0.10523  0.55854  0.80302  1.0000
  H   H1091     1.0  0.38074  0.83231  0.82431  1.0000
  S   S186      1.0  0.28349  0.52318  0.82384  1.0000
  S   S187      1.0  0.10968  0.50354  0.77572  1.0000
  Fe  Fe92      1.0  0.48060  0.88486  0.89086  1.0000
  C   C641      1.0  0.41901  0.90625  0.84245  1.0000
  C   C642      1.0  0.23506  0.89717  0.75552  1.0000
  C   C643      1.0  0.13824  0.65397  0.74389  1.0000
  C   C644      1.0  0.42116  0.92078  0.80394  1.0000
  Fe  Fe93      1.0  0.36567  0.88238  0.79107  1.0000
  H   H1092     1.0  0.10930  0.94147  0.74841  1.0000
  S   S188      1.0  0.36667  0.88391  0.82529  1.0000
  H   H1093     1.0  0.04229  0.95947  0.78475  1.0000
  H   H1094     1.0  0.27412  0.59903  0.77398  1.0000
  C   C645      1.0  0.20907  0.74032  0.74246  1.0000
  H   H1095     1.0  0.38784  0.67710  0.78031  1.0000
  H   H1096     1.0  0.22013  0.62262  0.75736  1.0000
  C   C646      1.0  0.12430  0.51192  0.85444  1.0000
  C   C647      1.0  0.15164  0.59846  0.76332  1.0000
  S   S189      1.0  0.39876  0.86507  0.77333  1.0000
  S   S190      1.0  0.34165  0.86315  0.78159  1.0000
  C   C648      1.0  0.10872  0.51961  0.87208  1.0000
  C   C649      1.0  0.23163  0.48613  0.91040  1.0000
  H   H1097     1.0  0.22773  0.48917  0.89393  1.0000
  H   H1098     1.0  0.46699  0.83941  0.84131  1.0000
  C   C650      1.0  0.17282  0.60367  0.74468  1.0000
  H   H1099     1.0  0.48824  0.91282  0.78399  1.0000
  H   H1100     1.0  0.46996  0.85438  0.80313  1.0000
  C   C651      1.0  0.03707  0.95401  0.77142  1.0000
  C   C652      1.0  0.39572  0.82236  0.83150  1.0000
  C   C653      1.0  0.30059  0.64732  0.75177  1.0000
  H   H1101     1.0  0.02532  0.94071  0.77981  1.0000
  H   H1102     1.0  0.41755  0.66989  0.78353  1.0000
  C   C654      1.0  0.44972  0.81389  0.81903  1.0000
  C   C655      1.0  0.36570  0.61476  0.75282  1.0000
  C   C656      1.0  0.29259  0.62849  0.76731  1.0000
  H   H1103     1.0  0.16713  0.63756  0.77011  1.0000
  H   H1104     1.0  0.12930  0.64043  0.75596  1.0000
  C   C657      1.0  0.45724  0.86365  0.81472  1.0000
  H   H1105     1.0  0.21993  0.52313  0.90472  1.0000
  H   H1106     1.0  0.03804  0.90435  0.75418  1.0000
  H   H1107     1.0  0.01556  0.92928  0.75213  1.0000
  H   H1108     1.0  0.41873  0.75304  0.74735  1.0000
  C   C658      1.0  0.36148  0.71825  0.78761  1.0000
  C   C659      1.0  0.38834  0.74557  0.78807  1.0000
  H   H1109     1.0  0.44741  0.82310  0.74120  1.0000
  H   H1110     1.0  0.16184  0.73911  0.74081  1.0000
  C   C660      1.0  0.38959  0.73213  0.75480  1.0000
  H   H1111     1.0  0.12726  0.49836  0.98864  1.0000
  H   H1112     1.0  0.13531  0.60098  0.75696  1.0000
  H   H1113     1.0  0.32422  0.73103  0.79135  1.0000
  C   C661      1.0  0.46676  0.87122  0.94286  1.0000
  H   H1114     1.0  0.34952  0.60665  0.76028  1.0000
  H   H1115     1.0  0.26884  0.48884  0.93039  1.0000
  H   H1116     1.0  0.36136  0.63378  0.74953  1.0000
  C   C662      1.0  0.25100  0.88507  0.76858  1.0000
  H   H1117     1.0  0.44226  0.91990  0.96214  1.0000
  C   C663      1.0  0.22847  0.50997  0.91670  1.0000
  H   H1118     1.0  0.28696  0.87928  0.77276  1.0000
  H   H1119     1.0  0.24522  0.87221  0.78274  1.0000
  H   H1120     1.0  0.24466  0.51626  0.91717  1.0000
  H   H1121     1.0  0.15454  0.58020  0.77186  1.0000
  H   H1122     1.0  0.42581  0.90456  0.85696  1.0000
  S   S191      1.0  0.46866  0.85862  0.92059  1.0000
  C   C664      1.0  0.27957  0.50238  0.88590  1.0000
  S   S192      1.0  0.48695  0.87888  0.85692  1.0000
  C   C665      1.0  0.43014  0.91848  0.82259  1.0000
  C   C666      1.0  0.41262  0.83916  0.83143  1.0000
  H   H1123     1.0  0.05747  0.48399  0.78713  1.0000
  H   H1124     1.0  0.44426  0.90152  0.93112  1.0000
  C   C667      1.0  0.43290  0.81288  0.85783  1.0000
  C   C668      1.0  0.07887  0.92635  0.78925  1.0000
  Fe  Fe94      1.0  0.11724  0.53870  0.77626  1.0000
  H   H1125     1.0  0.38825  0.81400  0.84833  1.0000
  H   H1126     1.0  0.47258  0.87841  0.76353  1.0000
  C   C669      1.0  0.39884  0.89642  0.84353  1.0000
  C   C670      1.0  0.39032  0.89818  0.82463  1.0000
  C   C671      1.0  0.40160  0.91032  0.80487  1.0000
  H   H1127     1.0  0.39008  0.88714  0.85889  1.0000
  H   H1128     1.0  0.39522  0.91184  0.79023  1.0000
  H   H1129     1.0  0.44439  0.95388  0.74845  1.0000
  Fe  Fe95      1.0  0.29312  0.52915  0.78758  1.0000
  C   C672      1.0  0.18300  0.63639  0.75716  1.0000
  H   H1130     1.0  0.08038  0.54526  0.88182  1.0000
  C   C673      1.0  0.40953  0.50983  0.76139  1.0000
  H   H1131     1.0  0.48977  0.84374  0.95814  1.0000
  H   H1132     1.0  0.22107  0.73934  0.77243  1.0000
  N   N49       1.0  0.43653  0.82822  0.83551  1.0000
  S   S193      1.0  0.10121  0.55614  0.74768  1.0000
  C   C674      1.0  0.22898  0.49097  0.75787  1.0000
  S   S194      1.0  0.46444  0.92169  0.88247  1.0000
  S   S195      1.0  0.45584  0.93025  0.82026  1.0000
  H   H1133     1.0  0.07627  0.97126  0.76014  1.0000
  H   H1134     1.0  0.20971  0.49452  0.86300  1.0000
  H   H1135     1.0  0.35964  0.70755  0.80432  1.0000
  H   H1136     1.0  0.42946  0.93042  0.78863  1.0000
  H   H1137     1.0  0.46346  0.81854  0.78410  1.0000
  S   S196      1.0  0.38304  0.81144  0.75805  1.0000
  H   H1138     1.0  0.44023  0.85725  0.84847  1.0000
  H   H1139     1.0  0.07895  0.56623  0.84420  1.0000
  H   H1140     1.0  0.46194  0.54334  0.76291  1.0000
  C   C675      1.0  0.38412  0.74195  0.81309  1.0000
  C   C676      1.0  0.31744  0.78945  0.74800  1.0000
  S   S197      1.0  0.31542  0.50335  0.76867  1.0000
  H   H1141     1.0  0.09443  0.91343  0.79174  1.0000
  H   H1142     1.0  0.14295  0.66618  0.75218  1.0000
  C   C677      1.0  0.47917  0.86020  0.95921  1.0000
  H   H1143     1.0  0.41354  0.85188  0.81594  1.0000
  H   H1144     1.0  0.35807  0.70679  0.77773  1.0000
  H   H1145     1.0  0.34017  0.74778  0.80087  1.0000
  Fe  Fe96      1.0  0.37475  0.84846  0.76150  1.0000
  H   H1146     1.0  0.06520  0.92424  0.80437  1.0000
  C   C678      1.0  0.06970  0.92276  0.76992  1.0000
  H   H1147     1.0  0.48210  0.94364  0.94754  1.0000
  H   H1148     1.0  0.44211  0.87291  0.80758  1.0000
  C   C679      1.0  0.45257  0.90323  0.96138  1.0000
  H   H1149     1.0  0.40365  0.84947  0.84397  1.0000
  H   H1150     1.0  0.37680  0.61032  0.76524  1.0000
  H   H1151     1.0  0.40633  0.75035  0.78213  1.0000
  H   H1152     1.0  0.18019  0.77205  0.76064  1.0000
  C   C680      1.0  0.46671  0.56117  0.75733  1.0000
  C   C681      1.0  0.24234  0.50709  0.84633  1.0000
  S   S198      1.0  0.15385  0.53521  0.75660  1.0000
  H   H1153     1.0  0.39954  0.69948  0.80416  1.0000
  C   C682      1.0  0.45529  0.80126  0.86640  1.0000
  H   H1154     1.0  0.29597  0.62538  0.78356  1.0000
  C   C683      1.0  0.22577  0.49161  0.85149  1.0000
  H   H1155     1.0  0.40930  0.50221  0.77834  1.0000
  C   C684      1.0  0.27462  0.88906  0.76298  1.0000
  H   H1156     1.0  0.13520  0.51762  0.81946  1.0000
  Fe  Fe97      1.0  0.14516  0.50148  0.75350  1.0000
  C   C685      1.0  0.35769  0.80331  0.75417  1.0000
  H   H1157     1.0  0.20341  0.62895  0.78245  1.0000
  C   C686      1.0  0.02227  0.97522  0.76026  1.0000
  H   H1158     1.0  0.23907  0.52183  0.85400  1.0000
  C   C687      1.0  0.09232  0.53913  0.86828  1.0000
  H   H1159     1.0  0.46324  0.81367  0.87188  1.0000
  H   H1160     1.0  0.08488  0.94333  0.78665  1.0000
  H   H1161     1.0  0.23541  0.84513  0.74313  1.0000
  H   H1162     1.0  0.46152  0.91456  0.76162  1.0000
  S   S199      1.0  0.36226  0.91317  0.76404  1.0000
  C   C688      1.0  0.46261  0.95045  0.75125  1.0000
  S   S200      1.0  0.20607  0.89059  0.76148  1.0000
  C   C689      1.0  0.26648  0.48535  0.82013  1.0000
  H   H1163     1.0  0.42124  0.71057  0.78229  1.0000
  C   C690      1.0  0.19374  0.77973  0.74708  1.0000
  C   C691      1.0  0.34106  0.73816  0.78795  1.0000
  H   H1164     1.0  0.23360  0.50458  0.76372  1.0000
  N   N50       1.0  0.38571  0.72532  0.77922  1.0000
  H   H1165     1.0  0.44426  0.79633  0.82374  1.0000
  H   H1166     1.0  0.23841  0.71955  0.75582  1.0000
  H   H1167     1.0  0.14900  0.60845  0.77619  1.0000
  C   C692      1.0  0.45370  0.89285  0.94383  1.0000
  H   H1168     1.0  0.05715  0.91000  0.77714  1.0000
  H   H1169     1.0  0.01503  0.97131  0.74738  1.0000
  H   H1170     1.0  0.43038  0.57422  0.76899  1.0000
  H   H1171     1.0  0.33480  0.81701  0.78075  1.0000
  H   H1172     1.0  0.42192  0.82272  0.87013  1.0000
  C   C693      1.0  0.40489  0.68384  0.77645  1.0000
  C   C694      1.0  0.46504  0.89233  0.97766  1.0000
  H   H1173     1.0  0.37179  0.72943  0.82169  1.0000
  C   C695      1.0  0.40340  0.70532  0.78618  1.0000
  H   H1174     1.0  0.42311  0.79858  0.85825  1.0000
  N   N51       1.0  0.05828  0.94408  0.75682  1.0000
  Fe  Fe98      1.0  0.47457  0.91659  0.84796  1.0000
  H   H1175     1.0  0.28700  0.50582  0.89884  1.0000
  S   S201      1.0  0.10918  0.50521  0.89902  1.0000
  C   C696      1.0  0.45015  0.84687  0.83622  1.0000
  C   C697      1.0  0.09150  0.55098  0.84701  1.0000
  C   C698      1.0  0.10671  0.54307  0.82937  1.0000
  C   C699      1.0  0.12309  0.52347  0.83305  1.0000
  H   H1176     1.0  0.46627  0.87696  0.81761  1.0000
  Fe  Fe99      1.0  0.28561  0.51013  0.75119  1.0000
  H   H1177     1.0  0.40088  0.73602  0.81880  1.0000
  H   H1178     1.0  0.37714  0.76150  0.78177  1.0000
  H   H1179     1.0  0.29914  0.80496  0.77515  1.0000
  H   H1180     1.0  0.34222  0.75040  0.77218  1.0000
  Fe  Fe100     1.0  0.28023  0.56216  0.74810  1.0000
  C   C700      1.0  0.28223  0.90539  0.74444  1.0000
  H   H1181     1.0  0.15198  0.76890  0.74355  1.0000
  H   H1182     1.0  0.44215  0.84184  0.79049  1.0000
  H   H1183     1.0  0.43382  0.81413  0.79128  1.0000
  H   H1184     1.0  0.48906  0.86302  0.98842  1.0000
  C   C701      1.0  0.44670  0.82301  0.79518  1.0000
  Fe  Fe101     1.0  0.32834  0.53433  0.74499  1.0000
  H   H1185     1.0  0.17856  0.81438  0.75157  1.0000
  H   H1186     1.0  0.45057  0.78759  0.88093  1.0000
  H   H1187     1.0  0.37188  0.51831  0.76591  1.0000
  H   H1188     1.0  0.03821  0.58038  0.74461  1.0000
  C   C702      1.0  0.28029  0.61355  0.76187  1.0000
  C   C703      1.0  0.20268  0.62181  0.76829  1.0000
  H   H1189     1.0  0.37616  0.75853  0.81815  1.0000
  H   H1190     1.0  0.46255  0.79459  0.74228  1.0000
  H   H1191     1.0  0.08408  0.91329  0.75949  1.0000
  C   C704      1.0  0.38839  0.51888  0.75439  1.0000
  C   C705      1.0  0.47873  0.87103  0.97634  1.0000
  H   H1192     1.0  0.02642  0.49018  0.79317  1.0000
  S   S202      1.0  0.31677  0.66546  0.75841  1.0000
  H   H1193     1.0  0.41141  0.68723  0.75860  1.0000
  C   C706      1.0  0.44379  0.57697  0.75374  1.0000
  H   H1194     1.0  0.46847  0.79294  0.85431  1.0000
  H   H1195     1.0  0.19184  0.50022  0.76827  1.0000
  H   H1196     1.0  0.26473  0.51569  0.88223  1.0000
  C   C707      1.0  0.31584  0.80134  0.76456  1.0000
  H   H1197     1.0  0.21620  0.50994  0.93262  1.0000
  C   C708      1.0  0.33601  0.80825  0.76766  1.0000
  H   H1198     1.0  0.20812  0.78103  0.75500  1.0000
  H   H1199     1.0  0.44601  0.59549  0.74969  1.0000
  H   H1200     1.0  0.42322  0.81371  0.98630  1.0000
  H   H1201     1.0  0.46880  0.81131  0.81899  1.0000
  C   C709      1.0  0.47266  0.92567  0.74849  1.0000
  H   H1202     1.0  0.46122  0.95243  0.76815  1.0000
  H   H1203     1.0  0.19953  0.60361  0.77455  1.0000
  S   S203      1.0  0.45710  0.49687  0.75473  1.0000
  C   C710      1.0  0.07472  0.96205  0.74759  1.0000
  Fe  Fe102     1.0  0.34135  0.89238  0.75263  1.0000
  H   H1204     1.0  0.18743  0.65438  0.75169  1.0000
  H   H1205     1.0  0.47199  0.56503  0.77141  1.0000
  H   H1206     1.0  0.37716  0.74745  0.74978  1.0000
  H   H1207     1.0  0.29341  0.50436  0.87088  1.0000
  H   H1208     1.0  0.13745  0.49731  0.85720  1.0000
  C   C711      1.0  0.41431  0.73785  0.74297  1.0000
  Fe  Fe103     1.0  0.39384  0.89440  0.74566  1.0000
  H   H1209     1.0  0.19373  0.73390  0.75451  1.0000
  H   H1210     1.0  0.18812  0.59104  0.74867  1.0000
  H   H1211     1.0  0.00708  0.98082  0.77252  1.0000
  C   C712      1.0  0.20529  0.48860  0.76030  1.0000
  C   C713      1.0  0.03270  0.92123  0.74414  1.0000
  H   H1212     1.0  0.38566  0.71848  0.74767  1.0000
  H   H1213     1.0  0.24178  0.74913  0.74825  1.0000
  C   C714      1.0  0.43084  0.50981  0.74633  1.0000
  C   C715      1.0  0.22859  0.73715  0.75548  1.0000
  H   H1214     1.0  0.42804  0.72294  0.74555  1.0000
  Fe  Fe104     1.0  0.09686  0.52076  0.74509  1.0000
  H   H1215     1.0  0.46005  0.81719  0.98813  1.0000
  S   S204      1.0  0.29275  0.77958  0.74456  1.0000
  H   H1216     1.0  0.48085  0.60159  0.75861  1.0000
  H   H1217     1.0  0.44815  0.86937  0.74244  1.0000
  C   C716      1.0  0.49182  0.87548  0.76174  1.0000
  C   C717      1.0  0.14376  0.48769  0.99018  1.0000
  H   H1218     1.0  0.28210  0.48289  0.80790  1.0000
  H   H1219     1.0  0.43658  0.57288  0.74092  1.0000
  C   C718      1.0  0.27600  0.61733  0.74085  1.0000
  Fe  Fe105     1.0  0.64712  0.03660  0.21008  1.0000
  H   H1220     1.0  0.75359  0.06459  0.18856  1.0000
  S   S205      1.0  0.67015  0.02685  0.17997  1.0000
  H   H1221     1.0  0.98311  0.23046  0.11655  1.0000
  H   H1222     1.0  0.63538  0.45981  0.15300  1.0000
  H   H1223     1.0  0.91061  0.19387  0.20421  1.0000
  H   H1224     1.0  0.57405  0.05894  0.13109  1.0000
  H   H1225     1.0  0.95118  0.23988  0.18270  1.0000
  C   C719      1.0  0.98404  0.38017  0.17808  1.0000
  H   H1226     1.0  0.74870  0.37929  0.12138  1.0000
  Fe  Fe106     1.0  0.78269  0.00941  0.17134  1.0000
  H   H1227     1.0  0.98939  0.28321  0.13324  1.0000
  S   S206      1.0  0.77785  0.04602  0.15315  1.0000
  C   C720      1.0  0.93559  0.25502  0.22341  1.0000
  H   H1228     1.0  0.74373  0.28281  0.22718  1.0000
  H   H1229     1.0  0.97841  0.04539  0.14617  1.0000
  H   H1230     1.0  0.97488  0.25932  0.13460  1.0000
  S   S207      1.0  0.80473  0.00194  0.19644  1.0000
  Fe  Fe107     1.0  0.67178  0.37353  0.21962  1.0000
  S   S208      1.0  0.70828  0.35477  0.21760  1.0000
  S   S209      1.0  0.64038  0.35725  0.21998  1.0000
  Fe  Fe108     1.0  0.68540  0.41811  0.22384  1.0000
  S   S210      1.0  0.72298  0.40348  0.22235  1.0000
  C   C721      1.0  0.55824  0.99226  0.02893  1.0000
  Fe  Fe109     1.0  0.71886  0.38762  0.19573  1.0000
  S   S211      1.0  0.74941  0.38824  0.16777  1.0000
  H   H1231     1.0  0.55640  0.99856  0.19095  1.0000
  S   S212      1.0  0.68218  0.40514  0.19498  1.0000
  N   N52       1.0  0.92495  0.22318  0.20800  1.0000
  Fe  Fe110     1.0  0.86433  0.11123  0.16988  1.0000
  S   S213      1.0  0.84182  0.11188  0.20280  1.0000
  S   S214      1.0  0.87171  0.07873  0.15698  1.0000
  Fe  Fe111     1.0  0.87839  0.15840  0.16526  1.0000
  S   S215      1.0  0.85738  0.16313  0.19798  1.0000
  S   S216      1.0  0.90095  0.18496  0.14531  1.0000
  H   H1232     1.0  0.83578  0.34183  0.10791  1.0000
  H   H1233     1.0  0.68822  0.09494  0.15648  1.0000
  Fe  Fe112     1.0  0.82997  0.14852  0.18839  1.0000
  S   S217      1.0  0.79198  0.16301  0.19337  1.0000
  S   S218      1.0  0.89479  0.12277  0.17718  1.0000
  S   S219      1.0  0.84992  0.14670  0.15455  1.0000
  Fe  Fe113     1.0  0.86483  0.30595  0.15133  1.0000
  S   S220      1.0  0.87738  0.30238  0.18209  1.0000
  S   S221      1.0  0.84093  0.28192  0.14934  1.0000
  Fe  Fe114     1.0  0.88683  0.34979  0.12987  1.0000
  S   S222      1.0  0.90122  0.35044  0.15885  1.0000
  S   S223      1.0  0.88846  0.37588  0.09878  1.0000
  Fe  Fe115     1.0  0.91084  0.31226  0.16008  1.0000
  S   S224      1.0  0.94524  0.29099  0.16422  1.0000
  Fe  Fe116     1.0  0.86633  0.34053  0.17813  1.0000
  S   S225      1.0  0.84155  0.35485  0.20534  1.0000
  S   S226      1.0  0.89925  0.31261  0.12941  1.0000
  S   S227      1.0  0.85126  0.34316  0.14897  1.0000
  C   C722      1.0  0.81345  0.30038  0.19920  1.0000
  H   H1234     1.0  0.76639  0.00852  0.08337  1.0000
  H   H1235     1.0  0.94167  0.06573  0.14062  1.0000
  H   H1236     1.0  0.88616  0.03761  0.23347  1.0000
  C   C723      1.0  0.98038  0.31699  0.20788  1.0000
  H   H1237     1.0  0.97809  0.35554  0.15155  1.0000
  H   H1238     1.0  0.78982  0.28021  0.17988  1.0000
  H   H1239     1.0  0.91363  0.06817  0.23001  1.0000
  C   C724      1.0  0.98175  0.29205  0.18292  1.0000
  H   H1240     1.0  0.87584  0.23874  0.20718  1.0000
  H   H1241     1.0  0.75385  0.13150  0.15883  1.0000
  S   S228      1.0  0.62644  0.11477  0.22934  1.0000
  H   H1242     1.0  0.97066  0.36841  0.18133  1.0000
  H   H1243     1.0  0.75666  0.26584  0.17324  1.0000
  S   S229      1.0  0.61475  0.06205  0.20861  1.0000
  H   H1244     1.0  0.97450  0.01710  0.16162  1.0000
  C   C725      1.0  0.91324  0.36976  0.07905  1.0000
  H   H1245     1.0  0.80499  0.29930  0.08430  1.0000
  H   H1246     1.0  0.76577  0.39532  0.09827  1.0000
  C   C726      1.0  0.95710  0.32539  0.20643  1.0000
  C   C727      1.0  0.94627  0.31746  0.19299  1.0000
  H   H1247     1.0  0.51948  0.03443  0.12327  1.0000
  C   C728      1.0  0.73910  0.13387  0.23344  1.0000
  H   H1248     1.0  0.92827  0.32403  0.19201  1.0000
  C   C729      1.0  0.88393  0.21190  0.14477  1.0000
  C   C730      1.0  0.89475  0.23190  0.13745  1.0000
  C   C731      1.0  0.88149  0.25343  0.13871  1.0000
  C   C732      1.0  0.85733  0.25508  0.14682  1.0000
  C   C733      1.0  0.84637  0.23513  0.15349  1.0000
  C   C734      1.0  0.85971  0.21352  0.15261  1.0000
  H   H1249     1.0  0.91343  0.23067  0.13130  1.0000
  H   H1250     1.0  0.89000  0.26870  0.13331  1.0000
  H   H1251     1.0  0.82768  0.23629  0.15969  1.0000
  H   H1252     1.0  0.85119  0.19812  0.15796  1.0000
  H   H1253     1.0  0.92288  0.24612  0.17682  1.0000
  H   H1254     1.0  0.54220  0.01268  0.13154  1.0000
  H   H1255     1.0  0.75279  0.19721  0.20166  1.0000
  H   H1256     1.0  0.97581  0.10815  0.18186  1.0000
  H   H1257     1.0  0.94858  0.22273  0.15285  1.0000
  C   C735      1.0  0.77466  0.38041  0.17891  1.0000
  C   C736      1.0  0.77397  0.36573  0.19928  1.0000
  C   C737      1.0  0.79442  0.35840  0.20766  1.0000
  C   C738      1.0  0.81558  0.36595  0.19584  1.0000
  C   C739      1.0  0.81616  0.38108  0.17572  1.0000
  C   C740      1.0  0.79573  0.38828  0.16724  1.0000
  H   H1258     1.0  0.75781  0.35951  0.20837  1.0000
  H   H1259     1.0  0.79400  0.34625  0.22293  1.0000
  H   H1260     1.0  0.83247  0.38708  0.16656  1.0000
  H   H1261     1.0  0.79627  0.39989  0.15163  1.0000
  C   C741      1.0  0.64602  0.32724  0.22219  1.0000
  C   C742      1.0  0.63138  0.31614  0.21499  1.0000
  H   H1262     1.0  0.90625  0.25757  0.20854  1.0000
  H   H1263     1.0  0.69238  0.06621  0.15232  1.0000
  H   H1264     1.0  0.61703  0.32615  0.20786  1.0000
  C   C743      1.0  0.61675  0.00248  0.16690  1.0000
  C   C744      1.0  0.80416  0.05616  0.15199  1.0000
  C   C745      1.0  0.80418  0.07864  0.15451  1.0000
  C   C746      1.0  0.82495  0.08573  0.15600  1.0000
  C   C747      1.0  0.84582  0.07054  0.15428  1.0000
  C   C748      1.0  0.84594  0.04836  0.15100  1.0000
  C   C749      1.0  0.82509  0.04107  0.15016  1.0000
  H   H1265     1.0  0.78817  0.09041  0.15586  1.0000
  H   H1266     1.0  0.82482  0.10295  0.15841  1.0000
  H   H1267     1.0  0.86209  0.03668  0.14936  1.0000
  H   H1268     1.0  0.82525  0.02370  0.14809  1.0000
  H   H1269     1.0  0.89695  0.20430  0.22798  1.0000
  H   H1270     1.0  0.92939  0.37374  0.02432  1.0000
  C   C750      1.0  0.57628  0.98638  0.22990  1.0000
  S   S230      1.0  0.64264  0.99905  0.02512  1.0000
  N   N53       1.0  0.53630  0.02479  0.17100  1.0000
  N   N54       1.0  0.97413  0.27386  0.08700  1.0000
  C   C751      1.0  0.95225  0.35945  0.04692  1.0000
  C   C752      1.0  0.89294  0.00904  0.18049  1.0000
  H   H1271     1.0  0.97034  0.34599  0.07342  1.0000
  H   H1272     1.0  0.94749  0.33826  0.21557  1.0000
  C   C753      1.0  0.65353  0.01429  0.16773  1.0000
  C   C754      1.0  0.66369  0.00677  0.14835  1.0000
  C   C755      1.0  0.65034  0.99756  0.13800  1.0000
  C   C756      1.0  0.55753  0.00226  0.23726  1.0000
  H   H1273     1.0  0.59879  0.00030  0.17439  1.0000
  C   C757      1.0  0.63011  0.01177  0.17722  1.0000
  H   H1274     1.0  0.68178  0.00826  0.14122  1.0000
  H   H1275     1.0  0.90429  0.01823  0.16597  1.0000
  C   C758      1.0  0.93290  0.07501  0.19668  1.0000
  H   H1276     1.0  0.62215  0.01716  0.19237  1.0000
  H   H1277     1.0  0.95716  0.29237  0.11291  1.0000
  H   H1278     1.0  0.93585  0.35509  0.10183  1.0000
  H   H1279     1.0  0.66188  0.48126  0.13212  1.0000
  H   H1280     1.0  0.92678  0.20578  0.16919  1.0000
  H   H1281     1.0  0.85480  0.99243  0.20905  1.0000
  H   H1282     1.0  0.96012  0.21790  0.11200  1.0000
  C   C759      1.0  0.93695  0.30132  0.07867  1.0000
  C   C760      1.0  0.55677  0.05655  0.14203  1.0000
  H   H1283     1.0  0.94525  0.25799  0.10929  1.0000
  H   H1284     1.0  0.98401  0.38401  0.19410  1.0000
  H   H1285     1.0  0.92989  0.31251  0.06470  1.0000
  H   H1286     1.0  0.94978  0.19212  0.21015  1.0000
  H   H1287     1.0  0.73234  0.13147  0.18326  1.0000
  H   H1288     1.0  0.92417  0.00374  0.21107  1.0000
  H   H1289     1.0  0.75957  0.11184  0.18271  1.0000
  H   H1290     1.0  0.83339  0.04665  0.23298  1.0000
  Fe  Fe117     1.0  0.87130  0.12620  0.20908  1.0000
  C   C761      1.0  0.51705  0.02742  0.15860  1.0000
  C   C762      1.0  0.93452  0.35929  0.08491  1.0000
  S   S231      1.0  0.97432  0.01324  0.23624  1.0000
  H   H1291     1.0  0.78285  0.36313  0.08575  1.0000
  H   H1292     1.0  0.93066  0.09366  0.19710  1.0000
  H   H1293     1.0  0.57138  0.03270  0.16733  1.0000
  H   H1294     1.0  0.77723  0.01617  0.12530  1.0000
  C   C763      1.0  0.92025  0.13837  0.21677  1.0000
  C   C764      1.0  0.95863  0.30092  0.18111  1.0000
  H   H1295     1.0  0.82067  0.37964  0.12127  1.0000
  H   H1296     1.0  0.75434  0.25331  0.23515  1.0000
  H   H1297     1.0  0.55252  0.07058  0.15133  1.0000
  C   C765      1.0  0.73405  0.10244  0.16707  1.0000
  C   C766      1.0  0.85133  0.00556  0.21941  1.0000
  C   C767      1.0  0.75901  0.27098  0.23248  1.0000
  C   C768      1.0  0.95994  0.25393  0.09582  1.0000
  C   C769      1.0  0.68283  0.11590  0.18935  1.0000
  C   C770      1.0  0.70162  0.09898  0.19995  1.0000
  H   H1298     1.0  0.83971  0.02001  0.21143  1.0000
  H   H1299     1.0  0.98834  0.24613  0.05621  1.0000
  H   H1300     1.0  0.74808  0.09233  0.15693  1.0000
  C   C771      1.0  0.52850  0.03948  0.18811  1.0000
  H   H1301     1.0  0.87807  0.00434  0.17540  1.0000
  H   H1302     1.0  0.95617  0.20040  0.17453  1.0000
  H   H1303     1.0  0.51296  0.00628  0.13664  1.0000
  C   C772      1.0  0.54145  0.00025  0.18274  1.0000
  C   C773      1.0  0.73785  0.07230  0.19899  1.0000
  C   C774      1.0  0.79108  0.29497  0.21620  1.0000
  N   N55       1.0  0.78099  0.27403  0.21517  1.0000
  H   H1304     1.0  0.77743  0.40294  0.22391  1.0000
  C   C775      1.0  0.95580  0.04388  0.17906  1.0000
  H   H1305     1.0  0.97895  0.05602  0.20328  1.0000
  C   C776      1.0  0.93065  0.06173  0.22040  1.0000
  C   C777      1.0  0.62667  0.99601  0.14695  1.0000
  H   H1306     1.0  0.77779  0.31059  0.21436  1.0000
  H   H1307     1.0  0.61152  0.45816  0.17621  1.0000
  S   S232      1.0  0.97595  0.35231  0.02649  1.0000
  H   H1308     1.0  0.99008  0.39307  0.13227  1.0000
  H   H1309     1.0  0.71844  0.99476  0.10823  1.0000
  H   H1310     1.0  0.92539  0.28774  0.08602  1.0000
  C   C778      1.0  0.82251  0.37800  0.10424  1.0000
  H   H1311     1.0  0.93944  0.04140  0.17474  1.0000
  C   C779      1.0  0.66462  0.31424  0.23134  1.0000
  C   C780      1.0  0.63042  0.45974  0.17057  1.0000
  H   H1312     1.0  0.79443  0.32887  0.07523  1.0000
  H   H1313     1.0  0.98427  0.30139  0.09784  1.0000
  C   C781      1.0  0.93747  0.08215  0.14653  1.0000
  H   H1314     1.0  0.59327  0.44519  0.23526  1.0000
  C   C782      1.0  0.90470  0.21012  0.21050  1.0000
  H   H1315     1.0  0.82715  0.28524  0.19873  1.0000
  C   C783      1.0  0.78291  0.10283  0.23521  1.0000
  C   C784      1.0  0.93091  0.36975  0.04118  1.0000
  C   C785      1.0  0.94203  0.14596  0.21340  1.0000
  H   H1316     1.0  0.94317  0.24424  0.23720  1.0000
  H   H1317     1.0  0.77301  0.24335  0.18904  1.0000
  H   H1318     1.0  0.98525  0.32871  0.12716  1.0000
  C   C786      1.0  0.97683  0.03467  0.16276  1.0000
  C   C787      1.0  0.91155  0.37521  0.05718  1.0000
  S   S233      1.0  0.60920  0.98676  0.13302  1.0000
  H   H1319     1.0  0.65833  0.99200  0.12295  1.0000
  H   H1320     1.0  0.81012  0.39115  0.09604  1.0000
  N   N56       1.0  0.95509  0.06845  0.18114  1.0000
  H   H1321     1.0  0.90419  0.99315  0.18626  1.0000
  H   H1322     1.0  0.52757  0.05811  0.18060  1.0000
  H   H1323     1.0  0.90380  0.23931  0.23436  1.0000
  H   H1324     1.0  0.50549  0.98796  0.02797  1.0000
  H   H1325     1.0  0.93576  0.31248  0.09032  1.0000
  H   H1326     1.0  0.77044  0.33394  0.16802  1.0000
  H   H1327     1.0  0.56168  0.98416  0.15532  1.0000
  H   H1328     1.0  0.65624  0.47830  0.17510  1.0000
  H   H1329     1.0  0.85563  0.06151  0.21306  1.0000
  C   C788      1.0  0.91506  0.99682  0.22777  1.0000
  H   H1330     1.0  0.73891  0.00117  0.06930  1.0000
  H   H1331     1.0  0.67606  0.98217  0.21035  1.0000
  C   C789      1.0  0.95524  0.08485  0.15953  1.0000
  H   H1332     1.0  0.54724  0.00390  0.07733  1.0000
  H   H1333     1.0  0.97287  0.08349  0.14875  1.0000
  H   H1334     1.0  0.74451  0.08334  0.20715  1.0000
  C   C790      1.0  0.62931  0.44821  0.23403  1.0000
  H   H1335     1.0  0.62994  0.47871  0.19456  1.0000
  H   H1336     1.0  0.87080  0.21223  0.20213  1.0000
  H   H1337     1.0  0.77187  0.31423  0.15083  1.0000
  H   H1338     1.0  0.95152  0.10306  0.16175  1.0000
  N   N57       1.0  0.72066  0.08627  0.18541  1.0000
  H   H1339     1.0  0.95663  0.03184  0.19487  1.0000
  H   H1340     1.0  0.82109  0.31382  0.20347  1.0000
  H   H1341     1.0  0.63988  0.44377  0.17895  1.0000
  H   H1342     1.0  0.99014  0.35701  0.11284  1.0000
  C   C791      1.0  0.63686  0.48072  0.17682  1.0000
  C   C792      1.0  0.94193  0.21390  0.16974  1.0000
  H   H1343     1.0  0.78532  0.03324  0.09833  1.0000
  H   H1344     1.0  0.66844  0.10678  0.18851  1.0000
  H   H1345     1.0  0.74863  0.14848  0.22369  1.0000
  C   C793      1.0  0.53149  0.99509  0.08127  1.0000
  H   H1346     1.0  0.97282  0.30611  0.06336  1.0000
  H   H1347     1.0  0.89874  0.03462  0.19688  1.0000
  H   H1348     1.0  0.67522  0.12915  0.19940  1.0000
  H   H1349     1.0  0.82762  0.23543  0.23207  1.0000
  H   H1350     1.0  0.58598  0.99744  0.04460  1.0000
  H   H1351     1.0  0.80941  0.32969  0.14344  1.0000
  H   H1352     1.0  0.91728  0.07247  0.19121  1.0000
  H   H1353     1.0  0.95133  0.25111  0.08322  1.0000
  H   H1354     1.0  0.87122  0.03822  0.19036  1.0000
  N   N58       1.0  0.73714  0.02359  0.10518  1.0000
  C   C794      1.0  0.72967  0.02524  0.12881  1.0000
  C   C795      1.0  0.73937  0.04750  0.09174  1.0000
  C   C796      1.0  0.76045  0.00882  0.10095  1.0000
  C   C797      1.0  0.71901  0.01285  0.09924  1.0000
  C   C798      1.0  0.73023  0.00216  0.14535  1.0000
  C   C799      1.0  0.71636  0.06424  0.09179  1.0000
  C   C800      1.0  0.78082  0.01616  0.10775  1.0000
  C   C801      1.0  0.72244  0.01196  0.07501  1.0000
  H   H1355     1.0  0.74047  0.03616  0.13312  1.0000
  H   H1356     1.0  0.71141  0.03398  0.13224  1.0000
  H   H1357     1.0  0.74778  0.04684  0.07454  1.0000
  H   H1358     1.0  0.75121  0.05602  0.09756  1.0000
  H   H1359     1.0  0.96180  0.28374  0.05657  1.0000
  H   H1360     1.0  0.74437  0.12049  0.22343  1.0000
  H   H1361     1.0  0.71000  0.14792  0.21704  1.0000
  H   H1362     1.0  0.70114  0.02190  0.10420  1.0000
  H   H1363     1.0  0.72225  0.00561  0.16182  1.0000
  H   H1364     1.0  0.91555  0.00810  0.23892  1.0000
  H   H1365     1.0  0.89003  0.22950  0.18207  1.0000
  H   H1366     1.0  0.72040  0.08129  0.08174  1.0000
  H   H1367     1.0  0.70382  0.05846  0.08450  1.0000
  H   H1368     1.0  0.70780  0.06706  0.10831  1.0000
  C   C802      1.0  0.97310  0.23016  0.10424  1.0000
  H   H1369     1.0  0.80103  0.09552  0.23720  1.0000
  H   H1370     1.0  0.72228  0.03965  0.21058  1.0000
  H   H1371     1.0  0.72178  0.02930  0.06438  1.0000
  H   H1372     1.0  0.63571  0.43075  0.23184  1.0000
  Fe  Fe118     1.0  0.59857  0.03689  0.23743  1.0000
  H   H1373     1.0  0.70892  0.10821  0.20934  1.0000
  H   H1374     1.0  0.76246  0.29524  0.19080  1.0000
  H   H1375     1.0  0.54394  0.05864  0.13153  1.0000
  H   H1376     1.0  0.93079  0.04307  0.22185  1.0000
  H   H1377     1.0  0.70799  0.00379  0.07286  1.0000
  H   H1378     1.0  0.78981  0.23719  0.21757  1.0000
  C   C803      1.0  0.63029  0.99224  0.00561  1.0000
  C   C804      1.0  0.79840  0.25239  0.21682  1.0000
  H   H1379     1.0  0.93790  0.09630  0.13195  1.0000
  S   S234      1.0  0.65970  0.98773  0.07995  1.0000
  Fe  Fe119     1.0  0.62651  0.07661  0.23269  1.0000
  H   H1380     1.0  0.94434  0.06452  0.22818  1.0000
  C   C805      1.0  0.96250  0.29135  0.07047  1.0000
  C   C806      1.0  0.88434  0.22369  0.19978  1.0000
  H   H1381     1.0  0.92783  0.27187  0.22797  1.0000
  C   C807      1.0  0.57277  0.00749  0.03523  1.0000
  H   H1382     1.0  0.57026  0.98252  0.01716  1.0000
  H   H1383     1.0  0.69651  0.06176  0.18887  1.0000
  C   C808      1.0  0.63548  0.29217  0.21667  1.0000
  C   C809      1.0  0.52369  0.01973  0.13640  1.0000
  H   H1384     1.0  0.75901  0.99061  0.10912  1.0000
  C   C810      1.0  0.74543  0.12013  0.17376  1.0000
  H   H1385     1.0  0.80960  0.30751  0.18279  1.0000
  H   H1386     1.0  0.62414  0.28370  0.21102  1.0000
  H   H1387     1.0  0.81444  0.30822  0.11689  1.0000
  C   C811      1.0  0.80655  0.31724  0.08495  1.0000
  C   C812      1.0  0.98660  0.27139  0.12346  1.0000
  C   C813      1.0  0.95410  0.35434  0.06879  1.0000
  C   C814      1.0  0.59724  0.47937  0.23764  1.0000
  C   C815      1.0  0.60535  0.45641  0.23588  1.0000
  H   H1388     1.0  0.59396  0.99048  0.22634  1.0000
  H   H1389     1.0  0.75606  0.34302  0.14564  1.0000
  C   C816      1.0  0.95597  0.13810  0.22904  1.0000
  H   H1390     1.0  0.67571  0.32261  0.23732  1.0000
  C   C817      1.0  0.91259  0.12232  0.23548  1.0000
  C   C818      1.0  0.97501  0.28588  0.10480  1.0000
  C   C819      1.0  0.50417  0.03673  0.20303  1.0000
  C   C820      1.0  0.64502  0.46302  0.23406  1.0000
  C   C821      1.0  0.77416  0.27856  0.19333  1.0000
  C   C822      1.0  0.91641  0.24372  0.21875  1.0000
  C   C823      1.0  0.88439  0.02478  0.19729  1.0000
  H   H1391     1.0  0.72295  0.11265  0.15566  1.0000
  H   H1392     1.0  0.77660  0.38569  0.12268  1.0000
  H   H1393     1.0  0.82495  0.31989  0.07729  1.0000
  H   H1394     1.0  0.72449  0.05508  0.17268  1.0000
  H   H1395     1.0  0.54153  0.03631  0.19881  1.0000
  H   H1396     1.0  0.84021  0.38235  0.09577  1.0000
  C   C824      1.0  0.77187  0.33262  0.15089  1.0000
  H   H1397     1.0  0.89514  0.38338  0.05263  1.0000
  H   H1398     1.0  0.54614  0.00445  0.01943  1.0000
  C   C825      1.0  0.52570  0.98915  0.06123  1.0000
  C   C826      1.0  0.76151  0.26003  0.18942  1.0000
  S   S235      1.0  0.98256  0.14900  0.22486  1.0000
  H   H1399     1.0  0.76067  0.42949  0.22894  1.0000
  C   C827      1.0  0.77775  0.35819  0.10376  1.0000
  H   H1400     1.0  0.82417  0.35440  0.08418  1.0000
  H   H1401     1.0  0.76314  0.34771  0.10685  1.0000
  H   H1402     1.0  0.78420  0.31189  0.11628  1.0000
  H   H1403     1.0  0.98035  0.05952  0.23692  1.0000
  C   C828      1.0  0.80060  0.31972  0.10894  1.0000
  C   C829      1.0  0.76695  0.38063  0.11222  1.0000
  C   C830      1.0  0.71084  0.06975  0.17650  1.0000
  H   H1404     1.0  0.91933  0.08346  0.15597  1.0000
  N   N59       1.0  0.79809  0.34388  0.11301  1.0000
  C   C831      1.0  0.82072  0.35348  0.10199  1.0000
  S   S236      1.0  0.65725  0.24893  0.22974  1.0000
  H   H1405     1.0  0.94802  0.15798  0.19865  1.0000
  H   H1406     1.0  0.81223  0.25249  0.20177  1.0000
  S   S237      1.0  0.75268  0.99343  0.19398  1.0000
  H   H1407     1.0  0.71985  0.99010  0.14242  1.0000
  C   C832      1.0  0.93511  0.23195  0.18437  1.0000
  H   H1408     1.0  0.71574  0.08319  0.14124  1.0000
  C   C833      1.0  0.78362  0.17958  0.21353  1.0000
  C   C834      1.0  0.76273  0.19472  0.21428  1.0000
  C   C835      1.0  0.79470  0.34158  0.13725  1.0000
  H   H1409     1.0  0.72595  0.00048  0.23160  1.0000
  H   H1410     1.0  0.68971  0.12583  0.17311  1.0000
  H   H1411     1.0  0.79668  0.00348  0.10453  1.0000
  H   H1412     1.0  0.79534  0.35796  0.14181  1.0000
  H   H1413     1.0  0.56142  0.02060  0.04385  1.0000
  N   N60       1.0  0.87386  0.01341  0.22005  1.0000
  H   H1414     1.0  0.51890  0.00569  0.05135  1.0000
  C   C836      1.0  0.70129  0.07946  0.15547  1.0000
  H   H1415     1.0  0.97874  0.39670  0.16750  1.0000
  H   H1416     1.0  0.50898  0.04578  0.15545  1.0000
  H   H1417     1.0  0.90936  0.14511  0.20489  1.0000
  C   C837      1.0  0.55885  0.03247  0.15697  1.0000
  H   H1418     1.0  0.58278  0.01723  0.02010  1.0000
  H   H1419     1.0  0.62888  0.15936  0.23684  1.0000
  H   H1420     1.0  0.98401  0.30738  0.00580  1.0000
  H   H1421     1.0  0.56821  0.02011  0.14656  1.0000
  H   H1422     1.0  0.94983  0.25847  0.20904  1.0000
  C   C838      1.0  0.75435  0.20624  0.23158  1.0000
  H   H1423     1.0  0.95997  0.21513  0.21543  1.0000
  C   C839      1.0  0.94371  0.20709  0.21821  1.0000
  H   H1424     1.0  0.81264  0.16484  0.22931  1.0000
  C   C840      1.0  0.97643  0.07020  0.18923  1.0000
  H   H1425     1.0  0.74830  0.99352  0.14576  1.0000
  H   H1426     1.0  0.52654  0.99508  0.19583  1.0000
  C   C841      1.0  0.88986  0.99276  0.22880  1.0000
  C   C842      1.0  0.77434  0.41569  0.23455  1.0000
  H   H1427     1.0  0.99131  0.27912  0.17386  1.0000
  H   H1428     1.0  0.96287  0.09646  0.20967  1.0000
  H   H1429     1.0  0.79047  0.42364  0.23207  1.0000
  H   H1430     1.0  0.50259  0.01770  0.16878  1.0000
  H   H1431     1.0  0.71460  0.05858  0.22992  1.0000
  H   H1432     1.0  0.74317  0.04286  0.22507  1.0000
  C   C843      1.0  0.72859  0.05237  0.21708  1.0000
  C   C844      1.0  0.97690  0.09329  0.19560  1.0000
  S   S238      1.0  0.67521  0.45448  0.22881  1.0000
  C   C845      1.0  0.85119  0.05160  0.22990  1.0000
  C   C846      1.0  0.65393  0.27912  0.22598  1.0000
  H   H1433     1.0  0.73829  0.21803  0.23195  1.0000
  H   H1434     1.0  0.52887  0.98202  0.00535  1.0000
  H   H1435     1.0  0.51657  0.00685  0.08843  1.0000
  H   H1436     1.0  0.69173  0.08663  0.21286  1.0000
  C   C847      1.0  0.81043  0.24588  0.23650  1.0000
  H   H1437     1.0  0.98506  0.22283  0.09081  1.0000
  H   H1438     1.0  0.50251  0.01897  0.21235  1.0000
  H   H1439     1.0  0.74503  0.25734  0.20150  1.0000
  S   S239      1.0  0.66040  0.05337  0.23147  1.0000
  C   C848      1.0  0.66862  0.29021  0.23316  1.0000
  H   H1440     1.0  0.78435  0.11349  0.21851  1.0000
  H   H1441     1.0  0.77348  0.08815  0.23665  1.0000
  C   C849      1.0  0.86970  0.03057  0.23463  1.0000
  C   C850      1.0  0.79660  0.17668  0.22969  1.0000
  H   H1442     1.0  0.82058  0.99038  0.23902  1.0000
  H   H1443     1.0  0.79532  0.29376  0.23226  1.0000
  H   H1444     1.0  0.50126  0.04776  0.21525  1.0000
  Fe  Fe120     1.0  0.77595  0.98317  0.21825  1.0000
  S   S240      1.0  0.63035  0.01025  0.23723  1.0000
  C   C851      1.0  0.71280  0.14161  0.23393  1.0000
  S   S241      1.0  0.88569  0.11220  0.23930  1.0000
  H   H1445     1.0  0.99258  0.06767  0.17669  1.0000
  H   H1446     1.0  0.68315  0.28032  0.23998  1.0000
  H   H1447     1.0  0.57960  0.26186  0.23952  1.0000
  S   S242      1.0  0.60716  0.05396  0.26162  1.0000
  H   H1448     1.0  0.59833  0.07399  0.35590  1.0000
  H   H1449     1.0  0.83188  0.00669  0.25303  1.0000
  H   H1450     1.0  0.91607  0.05576  0.37639  1.0000
  H   H1451     1.0  0.62782  0.32335  0.28543  1.0000
  H   H1452     1.0  0.60549  0.35335  0.26750  1.0000
  H   H1453     1.0  0.52185  0.40973  0.46519  1.0000
  H   H1454     1.0  0.64886  0.34182  0.27317  1.0000
  H   H1455     1.0  0.81461  0.26076  0.24146  1.0000
  H   H1456     1.0  0.53868  0.45143  0.26619  1.0000
  C   C852      1.0  0.93583  0.04547  0.31595  1.0000
  H   H1457     1.0  0.78586  0.36732  0.30149  1.0000
  H   H1458     1.0  0.65358  0.06025  0.29474  1.0000
  C   C853      1.0  0.68176  0.32521  0.45858  1.0000
  H   H1459     1.0  0.95431  0.04303  0.35517  1.0000
  Fe  Fe121     1.0  0.71495  0.21438  0.27872  1.0000
  C   C854      1.0  0.57004  0.38389  0.44597  1.0000
  S   S243      1.0  0.75407  0.21362  0.27180  1.0000
  Fe  Fe122     1.0  0.66800  0.22727  0.30706  1.0000
  S   S244      1.0  0.64854  0.21259  0.28847  1.0000
  S   S245      1.0  0.64465  0.24565  0.33266  1.0000
  Fe  Fe123     1.0  0.67741  0.18303  0.28900  1.0000
  S   S246      1.0  0.67419  0.14512  0.29433  1.0000
  H   H1460     1.0  0.93886  0.06214  0.28114  1.0000
  H   H1461     1.0  0.99054  0.19001  0.30486  1.0000
  S   S247      1.0  0.69511  0.19594  0.31025  1.0000
  S   S248      1.0  0.68965  0.24691  0.27749  1.0000
  Fe  Fe124     1.0  0.65847  0.38197  0.37299  1.0000
  S   S249      1.0  0.67730  0.36092  0.39884  1.0000
  S   S250      1.0  0.67227  0.40945  0.34534  1.0000
  Fe  Fe125     1.0  0.61642  0.35562  0.38907  1.0000
  S   S251      1.0  0.63137  0.33236  0.41648  1.0000
  S   S252      1.0  0.58467  0.34977  0.37897  1.0000
  Fe  Fe126     1.0  0.64182  0.36496  0.42077  1.0000
  S   S253      1.0  0.63498  0.37392  0.45390  1.0000
  Fe  Fe127     1.0  0.66510  0.33056  0.39199  1.0000
  S   S254      1.0  0.68885  0.29865  0.38436  1.0000
  S   S255      1.0  0.62397  0.38843  0.39519  1.0000
  S   S256      1.0  0.64927  0.35141  0.36447  1.0000
  H   H1462     1.0  0.75631  0.41881  0.26679  1.0000
  H   H1463     1.0  0.91667  0.05024  0.32039  1.0000
  S   S257      1.0  0.71177  0.42990  0.46234  1.0000
  H   H1464     1.0  0.64324  0.09062  0.32261  1.0000
  H   H1465     1.0  0.60272  0.42391  0.43624  1.0000
  H   H1466     1.0  0.50869  0.42329  0.44301  1.0000
  H   H1467     1.0  0.67380  0.06531  0.30907  1.0000
  C   C855      1.0  0.75047  0.14367  0.28684  1.0000
  H   H1468     1.0  0.94807  0.07332  0.35200  1.0000
  H   H1469     1.0  0.97849  0.03316  0.32037  1.0000
  H   H1470     1.0  0.66400  0.32375  0.45657  1.0000
  H   H1471     1.0  0.51635  0.43449  0.28287  1.0000
  C   C856      1.0  0.56879  0.40192  0.45983  1.0000
  C   C857      1.0  0.61417  0.35943  0.27824  1.0000
  C   C858      1.0  0.65516  0.39088  0.45612  1.0000
  C   C859      1.0  0.67082  0.40030  0.43775  1.0000
  C   C860      1.0  0.68786  0.41259  0.43985  1.0000
  C   C861      1.0  0.68947  0.41535  0.46033  1.0000
  H   H1472     1.0  0.61783  0.04516  0.30727  1.0000
  H   H1473     1.0  0.64752  0.17170  0.26220  1.0000
  H   H1474     1.0  0.66986  0.39816  0.42187  1.0000
  H   H1475     1.0  0.70010  0.41964  0.42556  1.0000
  H   H1476     1.0  0.52009  0.00898  0.24733  1.0000
  H   H1477     1.0  0.62205  0.08257  0.28663  1.0000
  C   C862      1.0  0.56853  0.37548  0.36841  1.0000
  C   C863      1.0  0.56660  0.39535  0.37675  1.0000
  C   C864      1.0  0.55337  0.41573  0.36818  1.0000
  C   C865      1.0  0.54270  0.41641  0.35085  1.0000
  C   C866      1.0  0.54475  0.39655  0.34249  1.0000
  C   C867      1.0  0.55737  0.37602  0.35146  1.0000
  H   H1478     1.0  0.57480  0.39483  0.39014  1.0000
  H   H1479     1.0  0.55161  0.43086  0.37490  1.0000
  C   C868      1.0  0.91989  0.98941  0.48621  1.0000
  H   H1480     1.0  0.55861  0.36062  0.34516  1.0000
  H   H1481     1.0  0.58355  0.23155  0.25136  1.0000
  Fe  Fe128     1.0  0.52086  0.47117  0.35637  1.0000
  H   H1482     1.0  0.92980  0.03414  0.28833  1.0000
  H   H1483     1.0  0.99057  0.18059  0.33311  1.0000
  H   H1484     1.0  0.95169  0.08799  0.29392  1.0000
  H   H1485     1.0  0.91751  0.11253  0.30204  1.0000
  H   H1486     1.0  0.68637  0.47536  0.46949  1.0000
  C   C869      1.0  0.65747  0.25994  0.34698  1.0000
  C   C870      1.0  0.64287  0.27369  0.36088  1.0000
  C   C871      1.0  0.65245  0.28585  0.37209  1.0000
  C   C872      1.0  0.67672  0.28386  0.36993  1.0000
  C   C873      1.0  0.69135  0.26994  0.35617  1.0000
  C   C874      1.0  0.68176  0.25820  0.34451  1.0000
  H   H1487     1.0  0.62407  0.27494  0.36305  1.0000
  H   H1488     1.0  0.64102  0.29643  0.38274  1.0000
  H   H1489     1.0  0.71014  0.26836  0.35443  1.0000
  H   H1490     1.0  0.69315  0.24762  0.33384  1.0000
  C   C875      1.0  0.71289  0.37037  0.29306  1.0000
  C   C876      1.0  0.70386  0.39358  0.28735  1.0000
  C   C877      1.0  0.69263  0.40605  0.30351  1.0000
  C   C878      1.0  0.68986  0.39514  0.32539  1.0000
  C   C879      1.0  0.69964  0.37216  0.33111  1.0000
  C   C880      1.0  0.71134  0.35981  0.31494  1.0000
  H   H1491     1.0  0.70526  0.40195  0.27046  1.0000
  H   H1492     1.0  0.68516  0.42380  0.29901  1.0000
  H   H1493     1.0  0.69788  0.36372  0.34802  1.0000
  H   H1494     1.0  0.71836  0.34187  0.31944  1.0000
  C   C881      1.0  0.91808  0.05503  0.35902  1.0000
  H   H1495     1.0  0.97719  0.06792  0.39335  1.0000
  H   H1496     1.0  0.64416  0.46953  0.45287  1.0000
  C   C882      1.0  0.60718  0.26938  0.29457  1.0000
  C   C883      1.0  0.61118  0.46966  0.48792  1.0000
  C   C884      1.0  0.58478  0.46108  0.29909  1.0000
  C   C885      1.0  0.78804  0.18804  0.24718  1.0000
  H   H1497     1.0  0.80065  0.43983  0.25929  1.0000
  C   C886      1.0  0.80340  0.40220  0.27066  1.0000
  H   H1498     1.0  0.58854  0.10901  0.27811  1.0000
  C   C887      1.0  0.94826  0.12216  0.24783  1.0000
  H   H1499     1.0  0.62669  0.03002  0.34577  1.0000
  H   H1500     1.0  0.92071  0.10173  0.26544  1.0000
  H   H1501     1.0  0.95885  0.11610  0.25992  1.0000
  H   H1502     1.0  0.63983  0.26285  0.27135  1.0000
  H   H1503     1.0  0.86463  0.02214  0.25201  1.0000
  H   H1504     1.0  0.62234  0.37488  0.26864  1.0000
  H   H1505     1.0  0.59641  0.12248  0.32633  1.0000
  H   H1506     1.0  0.66191  0.46076  0.30184  1.0000
  C   C888      1.0  0.65674  0.05904  0.31119  1.0000
  H   H1507     1.0  0.53642  0.39699  0.32916  1.0000
  H   H1508     1.0  0.95485  0.09632  0.31702  1.0000
  S   S258      1.0  0.99168  0.13064  0.33013  1.0000
  C   C889      1.0  0.64959  0.15366  0.26141  1.0000
  H   H1509     1.0  0.56086  0.31956  0.25139  1.0000
  C   C890      1.0  0.66208  0.13722  0.27516  1.0000
  C   C891      1.0  0.66495  0.11395  0.27376  1.0000
  C   C892      1.0  0.65500  0.10704  0.25898  1.0000
  H   H1510     1.0  0.60318  0.23575  0.27673  1.0000
  C   C893      1.0  0.93655  0.19660  0.24264  1.0000
  H   H1511     1.0  0.67491  0.10129  0.28412  1.0000
  H   H1512     1.0  0.60492  0.47084  0.47276  1.0000
  H   H1513     1.0  0.92934  0.18016  0.24498  1.0000
  C   C894      1.0  0.58812  0.45620  0.41867  1.0000
  H   H1514     1.0  0.58205  0.44360  0.46561  1.0000
  H   H1515     1.0  0.64576  0.30176  0.31464  1.0000
  C   C895      1.0  0.61157  0.09095  0.30002  1.0000
  Fe  Fe129     1.0  0.64046  0.02948  0.25869  1.0000
  H   H1516     1.0  0.58533  0.11502  0.35483  1.0000
  N   N61       1.0  0.63823  0.33922  0.30800  1.0000
  C   C896      1.0  0.65410  0.31710  0.31391  1.0000
  C   C897      1.0  0.61662  0.33897  0.32588  1.0000
  C   C898      1.0  0.65122  0.35903  0.30695  1.0000
  C   C899      1.0  0.67815  0.31409  0.29854  1.0000
  C   C900      1.0  0.63643  0.38237  0.30986  1.0000
  H   H1517     1.0  0.65763  0.31541  0.33045  1.0000
  H   H1518     1.0  0.60510  0.35569  0.32451  1.0000
  H   H1519     1.0  0.62158  0.33632  0.34192  1.0000
  H   H1520     1.0  0.66211  0.35465  0.31955  1.0000
  H   H1521     1.0  0.66409  0.36218  0.29139  1.0000
  H   H1522     1.0  0.82601  0.35814  0.27143  1.0000
  H   H1523     1.0  0.62365  0.38807  0.29914  1.0000
  H   H1524     1.0  0.64821  0.39583  0.30579  1.0000
  H   H1525     1.0  0.62732  0.38186  0.32703  1.0000
  H   H1526     1.0  0.59989  0.36445  0.29137  1.0000
  C   C901      1.0  0.60901  0.03321  0.34196  1.0000
  H   H1527     1.0  0.78197  0.13282  0.24755  1.0000
  N   N62       1.0  0.78387  0.38949  0.27005  1.0000
  H   H1528     1.0  0.57287  0.22661  0.30455  1.0000
  H   H1529     1.0  0.60968  0.30280  0.33219  1.0000
  H   H1530     1.0  0.77041  0.40411  0.31252  1.0000
  H   H1531     1.0  0.65689  0.45270  0.47405  1.0000
  H   H1532     1.0  0.53199  0.43333  0.48789  1.0000
  H   H1533     1.0  0.65944  0.04072  0.31955  1.0000
  H   H1534     1.0  0.63826  0.06513  0.34266  1.0000
  H   H1535     1.0  0.80284  0.33986  0.28234  1.0000
  C   C902      1.0  0.94348  0.05827  0.34729  1.0000
  H   H1536     1.0  0.70250  0.12709  0.24135  1.0000
  H   H1537     1.0  0.61614  0.11041  0.34484  1.0000
  H   H1538     1.0  0.74308  0.26983  0.26655  1.0000
  C   C903      1.0  0.58647  0.43602  0.29625  1.0000
  C   C904      1.0  0.50330  0.46869  0.26553  1.0000
  H   H1539     1.0  0.57375  0.45603  0.34162  1.0000
  C   C905      1.0  0.60693  0.05209  0.32148  1.0000
  C   C906      1.0  0.79407  0.37041  0.25763  1.0000
  H   H1540     1.0  0.74489  0.15992  0.29313  1.0000
  N   N63       1.0  0.94925  0.06060  0.32286  1.0000
  C   C907      1.0  0.58687  0.09827  0.29480  1.0000
  H   H1541     1.0  0.68878  0.32769  0.29784  1.0000
  H   H1542     1.0  0.57869  0.42467  0.31140  1.0000
  H   H1543     1.0  0.96525  0.10304  0.36729  1.0000
  H   H1544     1.0  0.59571  0.03715  0.35629  1.0000
  C   C908      1.0  0.77255  0.37835  0.29266  1.0000
  H   H1545     1.0  0.81630  0.40348  0.25492  1.0000
  H   H1546     1.0  0.77802  0.43148  0.28256  1.0000
  H   H1547     1.0  0.60470  0.42873  0.29017  1.0000
  N   N64       1.0  0.61309  0.07529  0.32172  1.0000
  H   H1548     1.0  0.57830  0.08335  0.29481  1.0000
  C   C909      1.0  0.69558  0.00574  0.25616  1.0000
  S   S259      1.0  0.95929  0.02387  0.40357  1.0000
  H   H1549     1.0  0.90639  0.08663  0.31508  1.0000
  H   H1550     1.0  0.54034  0.45125  0.43186  1.0000
  C   C910      1.0  0.81167  0.35120  0.26767  1.0000
  H   H1551     1.0  0.62565  0.43337  0.48735  1.0000
  C   C911      1.0  0.79643  0.42713  0.27471  1.0000
  C   C912      1.0  0.94159  0.04481  0.29152  1.0000
  C   C913      1.0  0.73504  0.99456  0.26278  1.0000
  H   H1552     1.0  0.61930  0.10702  0.29818  1.0000
  H   H1553     1.0  0.74333  0.12970  0.29990  1.0000
  H   H1554     1.0  0.58859  0.05359  0.31942  1.0000
  C   C914      1.0  0.63066  0.27631  0.28052  1.0000
  H   H1555     1.0  0.95968  0.03646  0.28646  1.0000
  S   S260      1.0  0.52760  0.44202  0.33861  1.0000
  H   H1556     1.0  0.93900  0.02737  0.32484  1.0000
  H   H1557     1.0  0.73818  0.98974  0.29612  1.0000
  N   N65       1.0  0.63270  0.48161  0.48346  1.0000
  H   H1558     1.0  0.80730  0.42998  0.28547  1.0000
  C   C915      1.0  0.83704  0.99473  0.24155  1.0000
  H   H1559     1.0  0.94738  0.00682  0.48906  1.0000
  H   H1560     1.0  0.60130  0.28058  0.30682  1.0000
  H   H1561     1.0  0.64228  0.27770  0.29119  1.0000
  C   C916      1.0  0.73164  0.08586  0.26139  1.0000
  H   H1562     1.0  0.63019  0.43866  0.30924  1.0000
  S   S261      1.0  0.65667  0.01252  0.28747  1.0000
  C   C917      1.0  0.59626  0.08497  0.33985  1.0000
  H   H1563     1.0  0.95218  0.19305  0.25020  1.0000
  C   C918      1.0  0.58615  0.43083  0.43022  1.0000
  H   H1564     1.0  0.81344  0.39228  0.28319  1.0000
  C   C919      1.0  0.56788  0.24057  0.31395  1.0000
  N   N66       1.0  0.58812  0.27020  0.28237  1.0000
  C   C920      1.0  0.67326  0.40665  0.47868  1.0000
  C   C921      1.0  0.94480  0.08549  0.31172  1.0000
  H   H1565     1.0  0.62886  0.29304  0.26909  1.0000
  Fe  Fe130     1.0  0.96850  0.99254  0.38873  1.0000
  H   H1566     1.0  0.76988  0.14101  0.28366  1.0000
  H   H1567     1.0  0.75023  0.38378  0.32327  1.0000
  C   C922      1.0  0.63766  0.07325  0.32542  1.0000
  H   H1568     1.0  0.57269  0.46445  0.41153  1.0000
  Fe  Fe131     1.0  0.95184  0.99861  0.43519  1.0000
  H   H1569     1.0  0.83237  0.37225  0.48744  1.0000
  C   C923      1.0  0.56011  0.30274  0.26302  1.0000
  S   S262      1.0  0.76518  0.98739  0.25319  1.0000
  H   H1570     1.0  0.58644  0.42138  0.41726  1.0000
  H   H1571     1.0  0.73282  0.37761  0.47344  1.0000
  H   H1572     1.0  0.96850  0.99520  0.31143  1.0000
  H   H1573     1.0  0.73871  0.10108  0.28544  1.0000
  H   H1574     1.0  0.88277  0.98560  0.24615  1.0000
  C   C924      1.0  0.99028  0.07613  0.38068  1.0000
  C   C925      1.0  0.76652  0.20226  0.24846  1.0000
  N   N67       1.0  0.56507  0.42679  0.44839  1.0000
  C   C926      1.0  0.92664  0.11415  0.25099  1.0000
  N   N68       1.0  0.70296  0.32965  0.48794  1.0000
  C   C927      1.0  0.68680  0.00545  0.27821  1.0000
  H   H1575     1.0  0.59516  0.43247  0.33537  1.0000
  H   H1576     1.0  0.57119  0.36640  0.45648  1.0000
  H   H1577     1.0  0.90495  0.06848  0.35231  1.0000
  H   H1578     1.0  0.57780  0.08471  0.33889  1.0000
  H   H1579     1.0  0.57531  0.10900  0.30587  1.0000
  H   H1580     1.0  0.61151  0.25171  0.30391  1.0000
  H   H1581     1.0  0.91481  0.10370  0.33107  1.0000
  H   H1582     1.0  0.58898  0.47129  0.28233  1.0000
  C   C928      1.0  0.63284  0.33999  0.28617  1.0000
  H   H1583     1.0  0.60360  0.45670  0.40507  1.0000
  C   C929      1.0  0.62554  0.45753  0.30347  1.0000
  H   H1584     1.0  0.59748  0.29642  0.25353  1.0000
  H   H1585     1.0  0.59404  0.32260  0.31275  1.0000
  H   H1586     1.0  0.60566  0.01672  0.33902  1.0000
  S   S263      1.0  0.67186  0.38817  0.24837  1.0000
  C   C930      1.0  0.60082  0.32055  0.32774  1.0000
  S   S264      1.0  0.72523  0.35441  0.27280  1.0000
  H   H1587     1.0  0.57618  0.43590  0.28397  1.0000
  H   H1588     1.0  0.58599  0.38395  0.43302  1.0000
  C   C931      1.0  0.59893  0.10962  0.34124  1.0000
  H   H1589     1.0  0.58545  0.32262  0.34114  1.0000
  H   H1590     1.0  0.91416  0.03772  0.35878  1.0000
  H   H1591     1.0  0.51291  0.48155  0.25276  1.0000
  H   H1592     1.0  0.72176  0.15175  0.27062  1.0000
  H   H1593     1.0  0.58527  0.39837  0.46622  1.0000
  C   C932      1.0  0.63912  0.14667  0.24701  1.0000
  C   C933      1.0  0.65605  0.39448  0.47655  1.0000
  H   H1594     1.0  0.62845  0.46003  0.28543  1.0000
  H   H1595     1.0  0.54627  0.42486  0.42369  1.0000
  H   H1596     1.0  0.58001  0.23863  0.32517  1.0000
  H   H1597     1.0  0.71817  0.34878  0.45645  1.0000
  H   H1598     1.0  0.64306  0.46921  0.32526  1.0000
  H   H1599     1.0  0.65725  0.08906  0.25805  1.0000
  N   N69       1.0  0.74600  0.12584  0.25530  1.0000
  H   H1600     1.0  0.55469  0.29083  0.25500  1.0000
  C   C934      1.0  0.73351  0.35861  0.47904  1.0000
  C   C935      1.0  0.71954  0.30821  0.48385  1.0000
  H   H1601     1.0  0.68808  0.29743  0.30501  1.0000
  C   C936      1.0  0.65118  0.47091  0.46700  1.0000
  H   H1602     1.0  0.55036  0.23808  0.32438  1.0000
  H   H1603     1.0  0.55100  0.26624  0.29163  1.0000
  H   H1604     1.0  0.66747  0.34389  0.48394  1.0000
  Fe  Fe132     1.0  0.70936  0.37224  0.24424  1.0000
  H   H1605     1.0  0.80360  0.37745  0.24103  1.0000
  H   H1606     1.0  0.67663  0.31334  0.28196  1.0000
  H   H1607     1.0  0.80998  0.39607  0.48899  1.0000
  C   C937      1.0  0.91938  0.09747  0.31554  1.0000
  N   N70       1.0  0.60027  0.46513  0.31302  1.0000
  Fe  Fe133     1.0  0.67201  0.23031  0.25907  1.0000
  H   H1608     1.0  0.55681  0.46046  0.45706  1.0000
  H   H1609     1.0  0.58704  0.30735  0.27774  1.0000
  C   C938      1.0  0.60561  0.45297  0.35306  1.0000
  C   C939      1.0  0.56407  0.44255  0.46378  1.0000
  C   C940      1.0  0.55007  0.43611  0.48717  1.0000
  H   H1610     1.0  0.75032  0.35040  0.47056  1.0000
  H   H1611     1.0  0.49768  0.45828  0.25599  1.0000
  C   C941      1.0  0.97501  0.05235  0.31614  1.0000
  C   C942      1.0  0.57882  0.24911  0.25510  1.0000
  S   S265      1.0  0.98831  0.99437  0.44129  1.0000
  C   C943      1.0  0.58432  0.29435  0.26906  1.0000
  C   C944      1.0  0.76549  0.40460  0.25854  1.0000
  C   C945      1.0  0.54362  0.43242  0.43840  1.0000
  H   H1612     1.0  0.54649  0.30580  0.27748  1.0000
  H   H1613     1.0  0.75846  0.29409  0.25457  1.0000
  H   H1614     1.0  0.69544  0.99927  0.30981  1.0000
  C   C946      1.0  0.64432  0.46966  0.30785  1.0000
  C   C947      1.0  0.71956  0.00029  0.24853  1.0000
  H   H1615     1.0  0.70573  0.15608  0.24245  1.0000
  C   C948      1.0  0.68015  0.32813  0.48204  1.0000
  H   H1616     1.0  0.56603  0.46704  0.30548  1.0000
  C   C949      1.0  0.59629  0.25284  0.26784  1.0000
  H   H1617     1.0  0.51112  0.44019  0.46167  1.0000
  H   H1618     1.0  0.79756  0.18502  0.26017  1.0000
  S   S266      1.0  0.69901  0.19935  0.25780  1.0000
  C   C950      1.0  0.75911  0.27542  0.25502  1.0000
  C   C951      1.0  0.59279  0.45118  0.33551  1.0000
  H   H1619     1.0  0.98094  0.05702  0.29819  1.0000
  H   H1620     1.0  0.56134  0.27764  0.30986  1.0000
  H   H1621     1.0  0.69318  0.30935  0.45483  1.0000
  C   C952      1.0  0.53464  0.99685  0.24146  1.0000
  S   S267      1.0  0.95921  0.99567  0.35651  1.0000
  C   C953      1.0  0.73210  0.10750  0.27010  1.0000
  H   H1622     1.0  0.68228  0.47800  0.44223  1.0000
  C   C954      1.0  0.74089  0.14650  0.26600  1.0000
  C   C955      1.0  0.75872  0.39448  0.30791  1.0000
  H   H1623     1.0  0.55493  0.39778  0.47442  1.0000
  C   C956      1.0  0.70216  0.99961  0.29268  1.0000
  H   H1624     1.0  0.71367  0.11476  0.27578  1.0000
  H   H1625     1.0  0.74622  0.07227  0.26534  1.0000
  H   H1626     1.0  0.74792  0.16166  0.25451  1.0000
  S   S268      1.0  0.91855  0.00414  0.45963  1.0000
  H   H1627     1.0  0.77417  0.26557  0.26188  1.0000
  H   H1628     1.0  0.74432  0.40630  0.30135  1.0000
  H   H1629     1.0  0.77652  0.10786  0.26807  1.0000
  C   C957      1.0  0.56634  0.26474  0.29913  1.0000
  H   H1630     1.0  0.68750  0.34050  0.44640  1.0000
  C   C958      1.0  0.72631  0.99428  0.28493  1.0000
  H   H1631     1.0  0.60529  0.47095  0.35470  1.0000
  H   H1632     1.0  0.68387  0.00972  0.24492  1.0000
  H   H1633     1.0  0.98785  0.08031  0.32548  1.0000
  H   H1634     1.0  0.79973  0.23538  0.25060  1.0000
  H   H1635     1.0  0.99177  0.05254  0.34322  1.0000
  H   H1636     1.0  0.61175  0.25799  0.25525  1.0000
  H   H1637     1.0  0.75135  0.39450  0.25889  1.0000
  C   C959      1.0  0.64140  0.12330  0.24609  1.0000
  H   H1638     1.0  0.59659  0.44380  0.36902  1.0000
  H   H1639     1.0  0.76047  0.36653  0.29184  1.0000
  S   S269      1.0  0.53975  0.47668  0.38060  1.0000
  H   H1640     1.0  0.52453  0.45802  0.29137  1.0000
  H   H1641     1.0  0.71486  0.07883  0.26911  1.0000
  H   H1642     1.0  0.92354  0.20826  0.25177  1.0000
  H   H1643     1.0  0.62377  0.44396  0.35035  1.0000
  H   H1644     1.0  0.73196  0.08937  0.24382  1.0000
  C   C960      1.0  0.52026  0.42603  0.45321  1.0000
  H   H1645     1.0  0.77983  0.36186  0.25538  1.0000
  C   C961      1.0  0.77198  0.11775  0.25240  1.0000
  C   C962      1.0  0.98355  0.09612  0.36604  1.0000
  H   H1646     1.0  0.69861  0.36589  0.47261  1.0000
  H   H1647     1.0  0.81992  0.34005  0.25569  1.0000
  C   C963      1.0  0.52136  0.45216  0.27747  1.0000
  H   H1648     1.0  0.72743  0.30975  0.46622  1.0000
  H   H1649     1.0  0.55429  0.38619  0.43885  1.0000
  H   H1650     1.0  0.56061  0.24947  0.26435  1.0000
  C   C964      1.0  0.71250  0.35093  0.47362  1.0000
  C   C965      1.0  0.99181  0.06158  0.32615  1.0000
  H   H1651     1.0  0.85061  0.06350  0.24088  1.0000
  H   H1652     1.0  0.59087  0.46674  0.42963  1.0000
  H   H1653     1.0  0.49813  0.48168  0.30608  1.0000
  C   C966      1.0  0.99256  0.04768  0.24545  1.0000
  H   H1654     1.0  0.75234  0.28726  0.48942  1.0000
  H   H1655     1.0  0.70991  0.29290  0.48833  1.0000
  S   S270      1.0  0.56181  0.02941  0.24052  1.0000
  C   C967      1.0  0.90810  0.42753  0.60951  1.0000
  Fe  Fe134     1.0  0.86142  0.04655  0.62751  1.0000
  S   S271      1.0  0.87013  0.01257  0.64903  1.0000
  S   S272      1.0  0.88464  0.06558  0.59858  1.0000
  Fe  Fe135     1.0  0.81310  0.05495  0.65491  1.0000
  S   S273      1.0  0.81751  0.02227  0.67975  1.0000
  S   S274      1.0  0.78300  0.08325  0.65514  1.0000
  Fe  Fe136     1.0  0.85374  0.03087  0.67638  1.0000
  S   S275      1.0  0.87246  0.02937  0.70316  1.0000
  Fe  Fe137     1.0  0.83350  0.00662  0.65048  1.0000
  H   H1656     1.0  0.86289  0.30799  0.66333  1.0000
  S   S276      1.0  0.84756  0.06511  0.65482  1.0000
  S   S277      1.0  0.82635  0.03875  0.62587  1.0000
  H   H1657     1.0  0.92196  0.44528  0.63661  1.0000
  H   H1658     1.0  0.87105  0.33029  0.68427  1.0000
  Fe  Fe138     1.0  0.64688  0.35921  0.67229  1.0000
  S   S278      1.0  0.97578  0.44534  0.73789  1.0000
  H   H1659     1.0  0.88447  0.24571  0.68958  1.0000
  C   C968      1.0  0.56978  0.39383  0.65664  1.0000
  C   C969      1.0  0.58860  0.36135  0.60914  1.0000
  S   S279      1.0  0.96928  0.06774  0.66116  1.0000
  C   C970      1.0  0.63227  0.42292  0.56324  1.0000
  H   H1660     1.0  0.96269  0.44813  0.62882  1.0000
  H   H1661     1.0  0.74964  0.40292  0.59371  1.0000
  H   H1662     1.0  0.54510  0.39827  0.62092  1.0000
  H   H1663     1.0  0.96103  0.14549  0.68665  1.0000
  Fe  Fe139     1.0  0.95807  0.42995  0.71837  1.0000
  S   S280      1.0  0.67680  0.35141  0.64547  1.0000
  S   S281      1.0  0.66361  0.02307  0.72559  1.0000
  S   S282      1.0  0.69121  0.18696  0.70773  1.0000
  H   H1664     1.0  0.90332  0.16237  0.57704  1.0000
  H   H1665     1.0  0.95204  0.00977  0.61566  1.0000
  Fe  Fe140     1.0  0.82702  0.21617  0.67141  1.0000
  C   C971      1.0  0.93123  0.14410  0.63447  1.0000
  S   S283      1.0  0.79965  0.24702  0.67120  1.0000
  Fe  Fe141     1.0  0.84808  0.17614  0.65010  1.0000
  S   S284      1.0  0.87410  0.16279  0.67179  1.0000
  S   S285      1.0  0.84757  0.16073  0.62181  1.0000
  H   H1666     1.0  0.94223  0.41222  0.59187  1.0000
  C   C972      1.0  0.57062  0.42039  0.70597  1.0000
  Fe  Fe142     1.0  0.87908  0.19968  0.66727  1.0000
  C   C973      1.0  0.70070  0.26258  0.62820  1.0000
  S   S286      1.0  0.81747  0.18059  0.67740  1.0000
  S   S287      1.0  0.85612  0.21241  0.64280  1.0000
  Fe  Fe143     1.0  0.65653  0.32423  0.64381  1.0000
  Fe  Fe144     1.0  0.64411  0.30922  0.69288  1.0000
  S   S288      1.0  0.66297  0.33555  0.69886  1.0000
  C   C974      1.0  0.93563  0.99418  0.49716  1.0000
  Fe  Fe145     1.0  0.69081  0.32525  0.67164  1.0000
  S   S289      1.0  0.72887  0.31560  0.67132  1.0000
  S   S290      1.0  0.83996  0.36084  0.65570  1.0000
  S   S291      1.0  0.67339  0.29720  0.66759  1.0000
  Fe  Fe146     1.0  0.84600  0.41209  0.60670  1.0000
  S   S292      1.0  0.85382  0.44038  0.57768  1.0000
  Fe  Fe147     1.0  0.84335  0.36062  0.62049  1.0000
  S   S293      1.0  0.84681  0.32925  0.60624  1.0000
  Fe  Fe148     1.0  0.81510  0.39326  0.64882  1.0000
  S   S294      1.0  0.77996  0.39899  0.67065  1.0000
  S   S295      1.0  0.81635  0.39123  0.61431  1.0000
  H   H1667     1.0  0.96005  0.42902  0.61261  1.0000
  H   H1668     1.0  0.98799  0.17002  0.68340  1.0000
  C   C975      1.0  0.74241  0.33872  0.67227  1.0000
  C   C976      1.0  0.76516  0.34026  0.66053  1.0000
  C   C977      1.0  0.77642  0.35884  0.66012  1.0000
  C   C978      1.0  0.76528  0.37574  0.67196  1.0000
  C   C979      1.0  0.74248  0.37415  0.68410  1.0000
  C   C980      1.0  0.73083  0.35577  0.68395  1.0000
  H   H1669     1.0  0.77384  0.32746  0.65109  1.0000
  H   H1670     1.0  0.79371  0.36011  0.65045  1.0000
  H   H1671     1.0  0.94695  0.98782  0.52743  1.0000
  H   H1672     1.0  0.89038  0.29805  0.62143  1.0000
  C   C981      1.0  0.81159  0.27021  0.65268  1.0000
  C   C982      1.0  0.80968  0.29124  0.65897  1.0000
  C   C983      1.0  0.82049  0.30943  0.64470  1.0000
  C   C984      1.0  0.83270  0.30684  0.62395  1.0000
  C   C985      1.0  0.83416  0.28595  0.61745  1.0000
  C   C986      1.0  0.82381  0.26756  0.63190  1.0000
  H   H1673     1.0  0.80018  0.29342  0.67499  1.0000
  H   H1674     1.0  0.81921  0.32545  0.64978  1.0000
  H   H1675     1.0  0.84364  0.28384  0.60140  1.0000
  H   H1676     1.0  0.82502  0.25143  0.62683  1.0000
  C   C987      1.0  0.67514  0.21371  0.71116  1.0000
  H   H1677     1.0  0.75533  0.40022  0.61996  1.0000
  C   C988      1.0  0.61456  0.44167  0.56367  1.0000
  H   H1678     1.0  0.87941  0.34128  0.53720  1.0000
  C   C989      1.0  0.65101  0.24852  0.69731  1.0000
  C   C990      1.0  0.66477  0.22754  0.69437  1.0000
  H   H1679     1.0  0.53155  0.39608  0.65898  1.0000
  N   N71       1.0  0.88959  0.27815  0.66729  1.0000
  H   H1680     1.0  0.64260  0.25897  0.68446  1.0000
  S   S296      1.0  0.74664  0.41091  0.54783  1.0000
  C   C991      1.0  0.72000  0.33900  0.56191  1.0000
  H   H1681     1.0  0.92323  0.07797  0.56423  1.0000
  H   H1682     1.0  0.78438  0.43132  0.55279  1.0000
  C   C992      1.0  0.68032  0.32531  0.59248  1.0000
  H   H1683     1.0  0.62841  0.40628  0.56240  1.0000
  S   S297      1.0  0.74433  0.34760  0.54223  1.0000
  H   H1684     1.0  0.80660  0.43061  0.58110  1.0000
  H   H1685     1.0  0.67153  0.31355  0.49321  1.0000
  C   C993      1.0  0.84712  0.34555  0.52466  1.0000
  C   C994      1.0  0.79315  0.05443  0.72754  1.0000
  C   C995      1.0  0.87723  0.02181  0.53478  1.0000
  H   H1686     1.0  0.69304  0.29240  0.71073  1.0000
  H   H1687     1.0  0.65175  0.46074  0.50785  1.0000
  H   H1688     1.0  0.75000  0.31557  0.49449  1.0000
  H   H1689     1.0  0.60797  0.36052  0.60528  1.0000
  C   C996      1.0  0.98673  0.10212  0.69830  1.0000
  C   C997      1.0  0.89395  0.41608  0.67245  1.0000
  H   H1690     1.0  0.89826  0.46800  0.56330  1.0000
  C   C998      1.0  0.93987  0.40972  0.67905  1.0000
  H   H1691     1.0  0.72752  0.40257  0.64979  1.0000
  H   H1692     1.0  0.94218  0.00597  0.67916  1.0000
  H   H1693     1.0  0.66883  0.07090  0.71593  1.0000
  Fe  Fe149     1.0  0.56569  0.47314  0.55385  1.0000
  H   H1694     1.0  0.68185  0.43308  0.64377  1.0000
  H   H1695     1.0  0.92127  0.39326  0.60280  1.0000
  H   H1696     1.0  0.95798  0.21854  0.66975  1.0000
  C   C999      1.0  0.97514  0.10919  0.72021  1.0000
  C   C1000     1.0  0.83427  0.44956  0.52024  1.0000
  H   H1697     1.0  0.58827  0.35596  0.64326  1.0000
  H   H1698     1.0  0.87659  0.01754  0.60211  1.0000
  C   C1001     1.0  0.78524  0.10472  0.70785  1.0000
  N   N72       1.0  0.57724  0.39255  0.63292  1.0000
  S   S298      1.0  0.93393  0.44868  0.69573  1.0000
  H   H1699     1.0  0.73651  0.44054  0.63509  1.0000
  H   H1700     1.0  0.89408  0.14445  0.56312  1.0000
  H   H1701     1.0  0.91301  0.27329  0.62309  1.0000
  H   H1702     1.0  0.92285  0.28730  0.69030  1.0000
  C   C1002     1.0  0.73832  0.44497  0.61720  1.0000
  H   H1703     1.0  0.62582  0.47737  0.51862  1.0000
  C   C1003     1.0  0.79676  0.10763  0.64163  1.0000
  C   C1004     1.0  0.81662  0.10535  0.62524  1.0000
  C   C1005     1.0  0.83128  0.12259  0.61804  1.0000
  C   C1006     1.0  0.82646  0.14190  0.62765  1.0000
  C   C1007     1.0  0.80547  0.14519  0.64263  1.0000
  C   C1008     1.0  0.79038  0.12818  0.64934  1.0000
  H   H1704     1.0  0.82134  0.08980  0.61871  1.0000
  H   H1705     1.0  0.84705  0.12019  0.60594  1.0000
  H   H1706     1.0  0.80100  0.16066  0.64922  1.0000
  H   H1707     1.0  0.77449  0.13039  0.66134  1.0000
  H   H1708     1.0  0.86415  0.45436  0.53150  1.0000
  H   H1709     1.0  0.87305  0.38623  0.55189  1.0000
  C   C1009     1.0  0.91359  0.04325  0.70513  1.0000
  C   C1010     1.0  0.89930  0.04031  0.69178  1.0000
  C   C1011     1.0  0.90685  0.04546  0.66921  1.0000
  C   C1012     1.0  0.92864  0.05316  0.66003  1.0000
  S   S299      1.0  0.68883  0.45144  0.56349  1.0000
  H   H1710     1.0  0.89615  0.04320  0.65870  1.0000
  H   H1711     1.0  0.62894  0.20681  0.73505  1.0000
  H   H1712     1.0  0.96457  0.05995  0.55630  1.0000
  H   H1713     1.0  0.58258  0.38248  0.66592  1.0000
  C   C1013     1.0  0.71489  0.31643  0.56550  1.0000
  C   C1014     1.0  0.69482  0.30973  0.58048  1.0000
  H   H1714     1.0  0.72617  0.30429  0.55638  1.0000
  H   H1715     1.0  0.69064  0.29239  0.58297  1.0000
  C   C1015     1.0  0.91423  0.05389  0.59434  1.0000
  C   C1016     1.0  0.81446  0.43559  0.56414  1.0000
  H   H1716     1.0  0.91107  0.02804  0.62376  1.0000
  S   S300      1.0  0.62515  0.33385  0.66868  1.0000
  H   H1717     1.0  0.59630  0.43631  0.61286  1.0000
  C   C1017     1.0  0.80179  0.43616  0.54812  1.0000
  N   N73       1.0  0.73738  0.03186  0.67223  1.0000
  C   C1018     1.0  0.74280  0.03874  0.69141  1.0000
  C   C1019     1.0  0.72635  0.05333  0.65895  1.0000
  C   C1020     1.0  0.76040  0.02355  0.65875  1.0000
  C   C1021     1.0  0.72172  0.01312  0.68060  1.0000
  C   C1022     1.0  0.75335  0.01912  0.70798  1.0000
  C   C1023     1.0  0.70307  0.06501  0.67061  1.0000
  C   C1024     1.0  0.70663  0.00965  0.66532  1.0000
  H   H1718     1.0  0.75482  0.05215  0.68590  1.0000
  H   H1719     1.0  0.72672  0.04672  0.70109  1.0000
  H   H1720     1.0  0.72313  0.05014  0.64379  1.0000
  H   H1721     1.0  0.73864  0.06657  0.65326  1.0000
  H   H1722     1.0  0.77178  0.03755  0.65292  1.0000
  H   H1723     1.0  0.77031  0.00938  0.66855  1.0000
  H   H1724     1.0  0.73223  0.99626  0.68555  1.0000
  H   H1725     1.0  0.70916  0.01644  0.69566  1.0000
  H   H1726     1.0  0.92451  0.14199  0.56332  1.0000
  H   H1727     1.0  0.77082  0.01088  0.70112  1.0000
  H   H1728     1.0  0.87345  0.45060  0.63876  1.0000
  H   H1729     1.0  0.69093  0.05253  0.68004  1.0000
  H   H1730     1.0  0.70627  0.07545  0.68144  1.0000
  H   H1731     1.0  0.69409  0.07718  0.65835  1.0000
  H   H1732     1.0  0.49706  0.46051  0.64472  1.0000
  H   H1733     1.0  0.71255  0.01667  0.64789  1.0000
  H   H1734     1.0  0.78548  0.09992  0.69220  1.0000
  H   H1735     1.0  0.70663  0.99084  0.66687  1.0000
  H   H1736     1.0  0.86287  0.27490  0.65063  1.0000
  H   H1737     1.0  0.97105  0.21618  0.70400  1.0000
  C   C1025     1.0  0.85661  0.37824  0.55658  1.0000
  N   N74       1.0  0.83149  0.36437  0.53500  1.0000
  C   C1026     1.0  0.81395  0.37557  0.52079  1.0000
  C   C1027     1.0  0.81784  0.35366  0.55673  1.0000
  C   C1028     1.0  0.84549  0.38245  0.53638  1.0000
  H   H1738     1.0  0.88655  0.27183  0.61526  1.0000
  C   C1029     1.0  0.79921  0.37034  0.56850  1.0000
  H   H1739     1.0  0.80212  0.36314  0.52063  1.0000
  H   H1740     1.0  0.80227  0.39008  0.52734  1.0000
  H   H1741     1.0  0.82935  0.34492  0.56817  1.0000
  H   H1742     1.0  0.80872  0.33972  0.55498  1.0000
  H   H1743     1.0  0.83410  0.39921  0.53640  1.0000
  C   C1030     1.0  0.57807  0.36764  0.63160  1.0000
  H   H1744     1.0  0.94666  0.26905  0.67797  1.0000
  H   H1745     1.0  0.78301  0.37370  0.56188  1.0000
  H   H1746     1.0  0.79458  0.36216  0.58593  1.0000
  H   H1747     1.0  0.80546  0.38687  0.56757  1.0000
  C   C1031     1.0  0.93524  0.05151  0.69588  1.0000
  C   C1032     1.0  0.98671  0.14812  0.71597  1.0000
  H   H1748     1.0  0.61415  0.38672  0.63378  1.0000
  C   C1033     1.0  0.74398  0.37034  0.61517  1.0000
  C   C1034     1.0  0.86140  0.04462  0.56377  1.0000
  C   C1035     1.0  0.68130  0.35167  0.51834  1.0000
  H   H1749     1.0  0.84524  0.38741  0.56907  1.0000
  C   C1036     1.0  0.61951  0.46307  0.56499  1.0000
  H   H1750     1.0  0.77918  0.13782  0.71900  1.0000
  H   H1751     1.0  0.56020  0.36238  0.63644  1.0000
  H   H1752     1.0  0.90373  0.02385  0.56497  1.0000
  H   H1753     1.0  0.56888  0.40961  0.60177  1.0000
  H   H1754     1.0  0.98414  0.08401  0.69941  1.0000
  C   C1037     1.0  0.56048  0.40728  0.61928  1.0000
  H   H1755     1.0  0.76209  0.13651  0.70004  1.0000
  H   H1756     1.0  0.85590  0.04356  0.58156  1.0000
  H   H1757     1.0  0.87568  0.05571  0.55907  1.0000
  H   H1758     1.0  0.91830  0.37438  0.73371  1.0000
  H   H1759     1.0  0.65801  0.47849  0.59950  1.0000
  H   H1760     1.0  0.62012  0.44031  0.51411  1.0000
  C   C1038     1.0  0.94578  0.02465  0.60442  1.0000
  H   H1761     1.0  0.85650  0.09103  0.71789  1.0000
  C   C1039     1.0  0.59804  0.37763  0.70448  1.0000
  H   H1762     1.0  0.60850  0.36104  0.70390  1.0000
  S   S301      1.0  0.63300  0.39626  0.67268  1.0000
  H   H1763     1.0  0.82351  0.05412  0.56570  1.0000
  H   H1764     1.0  0.58104  0.37334  0.59591  1.0000
  C   C1040     1.0  0.60531  0.42345  0.62460  1.0000
  C   C1041     1.0  0.90669  0.14486  0.57327  1.0000
  H   H1765     1.0  0.89361  0.19451  0.70661  1.0000
  C   C1042     1.0  0.67568  0.41208  0.61410  1.0000
  S   S302      1.0  0.87322  0.38126  0.60950  1.0000
  H   H1766     1.0  0.82537  0.11001  0.68382  1.0000
  H   H1767     1.0  0.60802  0.39718  0.60719  1.0000
  S   S303      1.0  0.84273  0.41683  0.64074  1.0000
  S   S304      1.0  0.75751  0.40155  0.49797  1.0000
  C   C1043     1.0  0.95125  0.14479  0.70358  1.0000
  H   H1768     1.0  0.73337  0.35564  0.49658  1.0000
  C   C1044     1.0  0.88615  0.00340  0.59400  1.0000
  H   H1769     1.0  0.75467  0.28942  0.70513  1.0000
  H   H1770     1.0  0.63340  0.46131  0.66098  1.0000
  Fe  Fe150     1.0  0.67410  0.98472  0.73215  1.0000
  H   H1771     1.0  0.84209  0.45479  0.50326  1.0000
  H   H1772     1.0  0.82893  0.06065  0.71819  1.0000
  H   H1773     1.0  0.85711  0.35284  0.50837  1.0000
  C   C1045     1.0  0.73996  0.30125  0.49612  1.0000
  H   H1774     1.0  0.97909  0.09897  0.59740  1.0000
  H   H1775     1.0  0.76575  0.29669  0.63768  1.0000
  Fe  Fe151     1.0  0.73844  0.38589  0.53078  1.0000
  H   H1776     1.0  0.72573  0.29842  0.62622  1.0000
  C   C1046     1.0  0.92956  0.06328  0.57561  1.0000
  H   H1777     1.0  0.92938  0.35105  0.70551  1.0000
  H   H1778     1.0  0.70909  0.37225  0.57072  1.0000
  H   H1779     1.0  0.59678  0.21341  0.71993  1.0000
  S   S305      1.0  0.65581  0.31640  0.61179  1.0000
  C   C1047     1.0  0.81209  0.06939  0.71388  1.0000
  H   H1780     1.0  0.55921  0.43803  0.63430  1.0000
  H   H1781     1.0  0.88433  0.26823  0.70266  1.0000
  H   H1782     1.0  0.66871  0.41123  0.56335  1.0000
  C   C1048     1.0  0.92958  0.13285  0.70591  1.0000
  H   H1783     1.0  0.68950  0.25541  0.62049  1.0000
  C   C1049     1.0  0.73917  0.26002  0.65225  1.0000
  H   H1784     1.0  0.62422  0.42514  0.61909  1.0000
  C   C1050     1.0  0.82708  0.10706  0.70113  1.0000
  H   H1785     1.0  0.69645  0.28156  0.62423  1.0000
  C   C1051     1.0  0.84015  0.05800  0.55423  1.0000
  H   H1786     1.0  0.93429  0.11425  0.70552  1.0000
  H   H1787     1.0  0.93476  0.05610  0.64263  1.0000
  H   H1788     1.0  0.67260  0.43115  0.61012  1.0000
  H   H1789     1.0  0.55917  0.42073  0.49662  1.0000
  C   C1052     1.0  0.91598  0.27316  0.66382  1.0000
  C   C1053     1.0  0.64780  0.25577  0.71696  1.0000
  S   S306      1.0  0.85064  0.20727  0.69532  1.0000
  C   C1054     1.0  0.65863  0.24222  0.73353  1.0000
  C   C1055     1.0  0.67229  0.22122  0.73060  1.0000
  H   H1790     1.0  0.70570  0.38674  0.64826  1.0000
  H   H1791     1.0  0.94503  0.16312  0.70441  1.0000
  H   H1792     1.0  0.58057  0.47713  0.60651  1.0000
  C   C1056     1.0  0.94275  0.05655  0.67326  1.0000
  H   H1793     1.0  0.87962  0.46473  0.59786  1.0000
  C   C1057     1.0  0.91020  0.19985  0.70588  1.0000
  N   N75       1.0  0.91950  0.12269  0.60894  1.0000
  C   C1058     1.0  0.90237  0.12616  0.59414  1.0000
  C   C1059     1.0  0.91282  0.10322  0.62765  1.0000
  H   H1794     1.0  0.92683  0.47311  0.62094  1.0000
  H   H1795     1.0  0.90309  0.99811  0.59944  1.0000
  H   H1796     1.0  0.66700  0.22185  0.67924  1.0000
  C   C1060     1.0  0.88805  0.10677  0.64167  1.0000
  H   H1797     1.0  0.94483  0.44780  0.57806  1.0000
  H   H1798     1.0  0.88782  0.47406  0.64032  1.0000
  H   H1799     1.0  0.54536  0.36798  0.67065  1.0000
  H   H1800     1.0  0.88430  0.13116  0.60262  1.0000
  H   H1801     1.0  0.92505  0.09937  0.63902  1.0000
  H   H1802     1.0  0.91415  0.08711  0.62151  1.0000
  C   C1061     1.0  0.85157  0.26787  0.69450  1.0000
  C   C1062     1.0  0.68562  0.34780  0.58910  1.0000
  H   H1803     1.0  0.84568  0.25810  0.71122  1.0000
  H   H1804     1.0  0.75950  0.23734  0.70762  1.0000
  H   H1805     1.0  0.59979  0.43473  0.68364  1.0000
  H   H1806     1.0  0.87446  0.10564  0.63290  1.0000
  H   H1807     1.0  0.79826  0.17331  0.72393  1.0000
  H   H1808     1.0  0.88425  0.12318  0.64750  1.0000
  Fe  Fe152     1.0  0.76291  0.42846  0.51450  1.0000
  S   S307      1.0  0.63060  0.28185  0.72082  1.0000
  C   C1063     1.0  0.92253  0.03497  0.60902  1.0000
  C   C1064     1.0  0.70529  0.35474  0.57360  1.0000
  H   H1809     1.0  0.72974  0.25924  0.60134  1.0000
  H   H1810     1.0  0.67419  0.36000  0.59805  1.0000
  Fe  Fe153     1.0  0.84424  0.17098  0.69856  1.0000
  H   H1811     1.0  0.88979  0.44735  0.68476  1.0000
  C   C1065     1.0  0.74249  0.28919  0.61858  1.0000
  H   H1812     1.0  0.92088  0.14099  0.69201  1.0000
  H   H1813     1.0  0.94595  0.05427  0.70624  1.0000
  H   H1814     1.0  0.88623  0.00479  0.53153  1.0000
  H   H1815     1.0  0.92622  0.46050  0.54729  1.0000
  H   H1816     1.0  0.74236  0.29294  0.60087  1.0000
  H   H1817     1.0  0.84104  0.07680  0.55131  1.0000
  C   C1066     1.0  0.86110  0.38186  0.72933  1.0000
  C   C1067     1.0  0.83707  0.44194  0.55816  1.0000
  H   H1818     1.0  0.95762  0.40714  0.68146  1.0000
  H   H1819     1.0  0.69583  0.09218  0.72532  1.0000
  H   H1820     1.0  0.87497  0.31702  0.52816  1.0000
  C   C1068     1.0  0.65512  0.42582  0.56344  1.0000
  C   C1069     1.0  0.72664  0.25441  0.61942  1.0000
  C   C1070     1.0  0.76207  0.30158  0.62108  1.0000
  H   H1821     1.0  0.77256  0.25719  0.60111  1.0000
  H   H1822     1.0  0.89091  0.31324  0.64928  1.0000
  H   H1823     1.0  0.75060  0.02704  0.62699  1.0000
  H   H1824     1.0  0.77849  0.29821  0.60916  1.0000
  H   H1825     1.0  0.75656  0.32047  0.61779  1.0000
  C   C1071     1.0  0.89390  0.27903  0.62621  1.0000
  C   C1072     1.0  0.75933  0.01415  0.63887  1.0000
  H   H1826     1.0  0.73577  0.46407  0.61230  1.0000
  H   H1827     1.0  0.70685  0.40684  0.58975  1.0000
  N   N76       1.0  0.74416  0.26350  0.62781  1.0000
  H   H1828     1.0  0.56643  0.22321  0.72771  1.0000
  H   H1829     1.0  0.86416  0.39847  0.71782  1.0000
  H   H1830     1.0  0.83971  0.05444  0.53833  1.0000
  H   H1831     1.0  0.79223  0.13980  0.69057  1.0000
  H   H1832     1.0  0.54058  0.39138  0.68430  1.0000
  S   S308      1.0  0.53716  0.47692  0.53560  1.0000
  H   H1833     1.0  0.69559  0.25636  0.64597  1.0000
  C   C1073     1.0  0.54538  0.38687  0.66796  1.0000
  H   H1834     1.0  0.94419  0.37857  0.66681  1.0000
  C   C1074     1.0  0.76858  0.25277  0.61921  1.0000
  C   C1075     1.0  0.84676  0.44928  0.53622  1.0000
  H   H1835     1.0  0.66549  0.40576  0.60479  1.0000
  H   H1836     1.0  0.83511  0.01368  0.56031  1.0000
  H   H1837     1.0  0.60007  0.42747  0.64102  1.0000
  H   H1838     1.0  0.56991  0.41117  0.65958  1.0000
  H   H1839     1.0  0.96095  0.09826  0.72818  1.0000
  H   H1840     1.0  0.72412  0.27262  0.65798  1.0000
  C   C1076     1.0  0.91587  0.98279  0.68615  1.0000
  H   H1841     1.0  0.84419  0.28619  0.69424  1.0000
  Fe  Fe154     1.0  0.86775  0.38411  0.64423  1.0000
  H   H1842     1.0  0.63602  0.46071  0.63315  1.0000
  C   C1077     1.0  0.60174  0.39882  0.62445  1.0000
  H   H1843     1.0  0.78172  0.25984  0.62467  1.0000
  C   C1078     1.0  0.58355  0.22064  0.73272  1.0000
  C   C1079     1.0  0.68255  0.03782  0.73281  1.0000
  H   H1844     1.0  0.88650  0.09268  0.65627  1.0000
  C   C1080     1.0  0.95293  0.05316  0.57115  1.0000
  H   H1845     1.0  0.75406  0.26407  0.65785  1.0000
  H   H1846     1.0  0.91114  0.43808  0.56528  1.0000
  H   H1847     1.0  0.81398  0.06814  0.69662  1.0000
  H   H1848     1.0  0.86125  0.36001  0.56398  1.0000
  H   H1849     1.0  0.72388  0.21782  0.71170  1.0000
  C   C1081     1.0  0.64236  0.46598  0.56511  1.0000
  C   C1082     1.0  0.90422  0.37158  0.72624  1.0000
  C   C1083     1.0  0.88156  0.30370  0.66491  1.0000
  H   H1850     1.0  0.92220  0.25636  0.65858  1.0000
  H   H1851     1.0  0.72850  0.23538  0.62281  1.0000
  H   H1852     1.0  0.72510  0.43845  0.59122  1.0000
  S   S309      1.0  0.91533  0.20920  0.66151  1.0000
  H   H1853     1.0  0.66839  0.40555  0.63146  1.0000
  H   H1854     1.0  0.85835  0.32221  0.55366  1.0000
  S   S310      1.0  0.70337  0.40495  0.52597  1.0000
  H   H1855     1.0  0.86185  0.02497  0.52693  1.0000
  H   H1856     1.0  0.90790  0.03927  0.72260  1.0000
  C   C1084     1.0  0.89105  0.01110  0.56906  1.0000
  H   H1857     1.0  0.75571  0.02648  0.72144  1.0000
  H   H1858     1.0  0.85966  0.38548  0.52169  1.0000
  C   C1085     1.0  0.77452  0.22642  0.62604  1.0000
  C   C1086     1.0  0.73367  0.23589  0.66532  1.0000
  H   H1859     1.0  0.53142  0.43204  0.63183  1.0000
  H   H1860     1.0  0.71658  0.23752  0.67684  1.0000
  C   C1087     1.0  0.90169  0.43244  0.68065  1.0000
  H   H1861     1.0  0.86456  0.10789  0.69157  1.0000
  H   H1862     1.0  0.73334  0.36295  0.63097  1.0000
  H   H1863     1.0  0.74997  0.19852  0.71426  1.0000
  C   C1088     1.0  0.73697  0.21139  0.72206  1.0000
  C   C1089     1.0  0.81186  0.44281  0.52611  1.0000
  H   H1864     1.0  0.79249  0.22120  0.61726  1.0000
  C   C1090     1.0  0.92464  0.20715  0.68583  1.0000
  H   H1865     1.0  0.77518  0.22116  0.64352  1.0000
  H   H1866     1.0  0.74729  0.22805  0.67504  1.0000
  H   H1867     1.0  0.73271  0.22338  0.65563  1.0000
  H   H1868     1.0  0.83636  0.33345  0.52197  1.0000
  C   C1091     1.0  0.94375  0.11633  0.59599  1.0000
  C   C1092     1.0  0.69769  0.33042  0.51181  1.0000
  Fe  Fe155     1.0  0.51431  0.43641  0.72008  1.0000
  H   H1869     1.0  0.89935  0.15174  0.62228  1.0000
  N   N77       1.0  0.80758  0.09435  0.71582  1.0000
  H   H1870     1.0  0.93576  0.40124  0.62092  1.0000
  C   C1093     1.0  0.55030  0.43153  0.62417  1.0000
  N   N78       1.0  0.91452  0.45165  0.60429  1.0000
  H   H1871     1.0  0.55116  0.44427  0.60858  1.0000
  N   N79       1.0  0.86998  0.02092  0.55891  1.0000
  H   H1872     1.0  0.88481  0.25081  0.65256  1.0000
  C   C1094     1.0  0.72029  0.43505  0.60933  1.0000
  S   S311      1.0  0.90013  0.37516  0.65834  1.0000
  H   H1873     1.0  0.68982  0.31480  0.52164  1.0000
  H   H1874     1.0  0.76290  0.21646  0.62178  1.0000
  C   C1095     1.0  0.91795  0.14496  0.61644  1.0000
  Fe  Fe156     1.0  0.71336  0.43175  0.53995  1.0000
  S   S312      1.0  0.53274  0.40182  0.73269  1.0000
  H   H1875     1.0  0.96344  0.10550  0.62287  1.0000
  C   C1096     1.0  0.96087  0.03347  0.58529  1.0000
  H   H1876     1.0  0.76238  0.36247  0.61522  1.0000
  H   H1877     1.0  0.60950  0.17274  0.73236  1.0000
  S   S313      1.0  0.58647  0.43846  0.56189  1.0000
  H   H1878     1.0  0.92830  0.16148  0.63858  1.0000
  H   H1879     1.0  0.68134  0.41137  0.66766  1.0000
  N   N80       1.0  0.96655  0.13441  0.71996  1.0000
  H   H1880     1.0  0.95691  0.08208  0.61315  1.0000
  C   C1097     1.0  0.93228  0.39362  0.67059  1.0000
  C   C1098     1.0  0.66021  0.44741  0.56413  1.0000
  C   C1099     1.0  0.70364  0.28522  0.72340  1.0000
  H   H1881     1.0  0.92468  0.15864  0.60268  1.0000
  H   H1882     1.0  0.70178  0.38344  0.61188  1.0000
  C   C1100     1.0  0.59309  0.41913  0.69294  1.0000
  C   C1101     1.0  0.69628  0.07384  0.73145  1.0000
  C   C1102     1.0  0.91313  0.34877  0.71808  1.0000
  C   C1103     1.0  0.93961  0.20430  0.72467  1.0000
  S   S314      1.0  0.98875  0.40349  0.70974  1.0000
  C   C1104     1.0  0.86581  0.33092  0.53697  1.0000
  H   H1883     1.0  0.56018  0.43697  0.70650  1.0000
  H   H1884     1.0  0.89627  0.41711  0.72865  1.0000
  H   H1885     1.0  0.92297  0.25633  0.69635  1.0000
  C   C1105     1.0  0.57560  0.37889  0.71775  1.0000
  H   H1886     1.0  0.89922  0.42302  0.62676  1.0000
  H   H1887     1.0  0.87604  0.41826  0.67045  1.0000
  H   H1888     1.0  0.68819  0.36789  0.50935  1.0000
  H   H1889     1.0  0.73361  0.29421  0.51362  1.0000
  H   H1890     1.0  0.95203  0.13205  0.58730  1.0000
  H   H1891     1.0  0.68017  0.35103  0.53588  1.0000
  C   C1106     1.0  0.77963  0.13123  0.70430  1.0000
  H   H1892     1.0  0.82582  0.12447  0.70475  1.0000
  C   C1107     1.0  0.70160  0.40239  0.60779  1.0000
  C   C1108     1.0  0.62449  0.46751  0.64696  1.0000
  H   H1893     1.0  0.89454  0.42617  0.60068  1.0000
  H   H1894     1.0  0.73373  0.38728  0.69325  1.0000
  C   C1109     1.0  0.92820  0.40775  0.60612  1.0000
  H   H1895     1.0  0.70156  0.43142  0.66172  1.0000
  H   H1896     1.0  0.77752  0.00938  0.63029  1.0000
  C   C1110     1.0  0.85243  0.09554  0.70152  1.0000
  H   H1897     1.0  0.90425  0.38569  0.71178  1.0000
  H   H1898     1.0  0.84364  0.00631  0.58570  1.0000
  H   H1899     1.0  0.94282  0.10736  0.58298  1.0000
  C   C1111     1.0  0.94668  0.21292  0.68521  1.0000
  C   C1112     1.0  0.92462  0.42909  0.68422  1.0000
  C   C1113     1.0  0.96158  0.09991  0.60833  1.0000
  C   C1114     1.0  0.74250  0.39682  0.61129  1.0000
  N   N81       1.0  0.71857  0.40976  0.61820  1.0000
  C   C1115     1.0  0.90929  0.39664  0.66746  1.0000
  H   H1900     1.0  0.71376  0.32982  0.51797  1.0000
  C   C1116     1.0  0.71183  0.40399  0.64269  1.0000
  H   H1901     1.0  0.73853  0.36507  0.60190  1.0000
  C   C1117     1.0  0.85670  0.36618  0.71539  1.0000
  C   C1118     1.0  0.88195  0.26998  0.64991  1.0000
  Fe  Fe157     1.0  0.52339  0.48164  0.69056  1.0000
  H   H1902     1.0  0.95032  0.13984  0.62907  1.0000
  C   C1119     1.0  0.92732  0.27156  0.68341  1.0000
  S   S315      1.0  0.79791  0.44133  0.50541  1.0000
  H   H1903     1.0  0.92424  0.28633  0.65036  1.0000
  H   H1904     1.0  0.92476  0.13204  0.64968  1.0000
  H   H1905     1.0  0.90216  0.32226  0.67772  1.0000
  S   S316      1.0  0.73019  0.45148  0.50783  1.0000
  H   H1906     1.0  0.90199  0.10973  0.58918  1.0000
  H   H1907     1.0  0.68803  0.01664  0.67065  1.0000
  C   C1120     1.0  0.69319  0.42125  0.65403  1.0000
  C   C1121     1.0  0.60657  0.39776  0.69170  1.0000
  C   C1122     1.0  0.95533  0.44701  0.61483  1.0000
  H   H1908     1.0  0.87060  0.36613  0.70061  1.0000
  C   C1123     1.0  0.56171  0.40026  0.71816  1.0000
  H   H1909     1.0  0.70325  0.44591  0.61277  1.0000
  C   C1124     1.0  0.87857  0.26449  0.68888  1.0000
  H   H1910     1.0  0.75106  0.99806  0.64381  1.0000
  H   H1911     1.0  0.74157  0.00579  0.71541  1.0000
  S   S317      1.0  0.51892  0.44789  0.68392  1.0000
  C   C1125     1.0  0.61393  0.44379  0.49861  1.0000
  H   H1912     1.0  0.75651  0.43903  0.60945  1.0000
  H   H1913     1.0  0.58485  0.34380  0.60950  1.0000
  C   C1126     1.0  0.95416  0.21150  0.70462  1.0000
  C   C1127     1.0  0.88502  0.31551  0.68249  1.0000
  C   C1128     1.0  0.91476  0.45596  0.56351  1.0000
  C   C1129     1.0  0.92869  0.45461  0.61988  1.0000
  H   H1914     1.0  0.88346  0.30449  0.69887  1.0000
  S   S318      1.0  0.98877  0.01857  0.57799  1.0000
  C   C1130     1.0  0.89400  0.03945  0.52209  1.0000
  H   H1915     1.0  0.71310  0.35466  0.69303  1.0000
  C   C1131     1.0  0.92741  0.45818  0.58113  1.0000
  S   S319      1.0  0.84244  0.14736  0.73118  1.0000
  H   H1916     1.0  0.90455  0.99718  0.67780  1.0000
  H   H1917     1.0  0.89929  0.03733  0.50491  1.0000
  C   C1132     1.0  0.85041  0.00630  0.56809  1.0000
  H   H1918     1.0  0.91025  0.03665  0.52856  1.0000
  H   H1919     1.0  0.58735  0.23793  0.73307  1.0000
  H   H1920     1.0  0.76978  0.09780  0.71931  1.0000
  H   H1921     1.0  0.84401  0.26081  0.68366  1.0000
  C   C1133     1.0  0.87822  0.46784  0.63043  1.0000
  H   H1922     1.0  0.59636  0.47829  0.49863  1.0000
  H   H1923     1.0  0.90098  0.99608  0.56233  1.0000
  H   H1924     1.0  0.88542  0.05744  0.52191  1.0000
  H   H1925     1.0  0.84023  0.37351  0.70949  1.0000
  C   C1134     1.0  0.91755  0.19868  0.72523  1.0000
  H   H1926     1.0  0.77436  0.29012  0.72182  1.0000
  H   H1927     1.0  0.87645  0.98824  0.59975  1.0000
  C   C1135     1.0  0.76486  0.27847  0.71698  1.0000
  H   H1928     1.0  0.56878  0.36330  0.72726  1.0000
  H   H1929     1.0  0.64370  0.38752  0.49078  1.0000
  H   H1930     1.0  0.85662  0.08011  0.69405  1.0000
  H   H1931     1.0  0.98733  0.26943  0.72939  1.0000
  H   H1932     1.0  0.96414  0.45873  0.60043  1.0000
  H   H1933     1.0  0.66321  0.35202  0.51625  1.0000
  C   C1136     1.0  0.89204  0.46814  0.60692  1.0000
  H   H1934     1.0  0.70651  0.25197  0.71629  1.0000
  H   H1935     1.0  0.86156  0.47966  0.62996  1.0000
  H   H1936     1.0  0.97894  0.11194  0.68441  1.0000
  S   S320      1.0  0.52116  0.46947  0.72644  1.0000
  C   C1137     1.0  0.71891  0.26303  0.71778  1.0000
  H   H1937     1.0  0.72950  0.26753  0.70107  1.0000
  C   C1138     1.0  0.68122  0.06174  0.72592  1.0000
  H   H1938     1.0  0.86502  0.42401  0.73804  1.0000
  H   H1939     1.0  0.94809  0.98708  0.66051  1.0000
  H   H1940     1.0  0.91154  0.98415  0.70353  1.0000
  H   H1941     1.0  0.54879  0.45056  0.49558  1.0000
  C   C1139     1.0  0.98127  0.32583  0.73253  1.0000
  C   C1140     1.0  0.74967  0.23076  0.72422  1.0000
  H   H1942     1.0  0.90065  0.34343  0.71056  1.0000
  H   H1943     1.0  0.98080  0.16431  0.72245  1.0000
  H   H1944     1.0  0.71424  0.29871  0.72323  1.0000
  H   H1945     1.0  0.77832  0.26621  0.70895  1.0000
  H   H1946     1.0  0.77662  0.05941  0.72139  1.0000
  H   H1947     1.0  0.76338  0.22268  0.73386  1.0000
  H   H1948     1.0  0.91805  0.33449  0.73121  1.0000
  C   C1141     1.0  0.74935  0.26587  0.73744  1.0000
  C   C1142     1.0  0.93560  0.98317  0.51886  1.0000
  C   C1143     1.0  0.97528  0.30380  0.73496  1.0000
  H   H1949     1.0  0.64062  0.16846  0.72808  1.0000
  H   H1950     1.0  0.79927  0.03617  0.72620  1.0000
  H   H1951     1.0  0.69102  0.28193  0.73905  1.0000
  H   H1952     1.0  0.60821  0.45939  0.65179  1.0000
  H   H1953     1.0  0.62030  0.47784  0.60530  1.0000
  C   C1144     1.0  0.64094  0.47789  0.50464  1.0000
  H   H1954     1.0  0.93122  0.47632  0.57770  1.0000
  H   H1955     1.0  0.85442  0.34841  0.72438  1.0000
  H   H1956     1.0  0.60575  0.47745  0.56577  1.0000
  H   H1957     1.0  0.72813  0.20213  0.73798  1.0000
  N   N82       1.0  0.73417  0.25024  0.73361  1.0000
  C   C1145     1.0  0.82432  0.38584  0.49691  1.0000
  H   H1958     1.0  0.67392  0.40934  0.49445  1.0000
  Fe  Fe158     1.0  0.98374  0.98219  0.57986  1.0000
  Fe  Fe159     1.0  0.72307  0.42290  0.49438  1.0000
  H   H1959     1.0  0.98833  0.10284  0.73068  1.0000
  H   H1960     1.0  0.50734  0.47404  0.60507  1.0000
  H   H1961     1.0  0.59655  0.43762  0.50264  1.0000
  H   H1962     1.0  0.91640  0.13526  0.72081  1.0000
  C   C1146     1.0  0.94135  0.98812  0.67781  1.0000
  H   H1963     1.0  0.83700  0.39786  0.49555  1.0000
  H   H1964     1.0  0.63568  0.09982  0.73893  1.0000
  Fe  Fe160     1.0  0.69583  0.16208  0.73881  1.0000
  C   C1147     1.0  0.99217  0.28625  0.72792  1.0000
  H   H1965     1.0  0.58058  0.48098  0.63303  1.0000
  H   H1966     1.0  0.80254  0.11586  0.73939  1.0000
  C   C1148     1.0  0.80398  0.09736  0.73895  1.0000
  Fe  Fe161     1.0  0.97191  0.38108  0.74025  1.0000
  H   H1967     1.0  0.74278  0.23442  0.77792  1.0000
  Fe  Fe162     1.0  0.64044  0.03429  0.89181  1.0000
  H   H1968     1.0  0.60973  0.05528  0.81558  1.0000
  S   S321      1.0  0.65366  0.06740  0.88960  1.0000
  Fe  Fe163     1.0  0.66029  0.98666  0.88355  1.0000
  H   H1969     1.0  0.73132  0.98423  0.81778  1.0000
  H   H1970     1.0  0.58015  0.17200  0.81780  1.0000
  H   H1971     1.0  0.89131  0.32307  0.78018  1.0000
  H   H1972     1.0  0.69910  0.02027  0.86673  1.0000
  S   S322      1.0  0.60320  0.02690  0.90071  1.0000
  H   H1973     1.0  0.98986  0.42244  0.84352  1.0000
  H   H1974     1.0  0.93862  0.27069  0.80067  1.0000
  C   C1149     1.0  0.55827  0.98800  0.84608  1.0000
  H   H1975     1.0  0.71363  0.02284  0.80830  1.0000
  H   H1976     1.0  0.81434  0.07998  0.76945  1.0000
  S   S323      1.0  0.68455  0.17028  0.77218  1.0000
  S   S324      1.0  0.63562  0.12877  0.80050  1.0000
  H   H1977     1.0  0.62294  0.01394  0.95357  1.0000
  H   H1978     1.0  0.69630  0.98793  0.96925  1.0000
  H   H1979     1.0  0.65663  0.24812  0.74851  1.0000
  H   H1980     1.0  0.94205  0.24432  0.82013  1.0000
  H   H1981     1.0  0.97511  0.31202  0.85805  1.0000
  H   H1982     1.0  0.70522  0.23205  0.75259  1.0000
  C   C1150     1.0  0.73465  0.99683  0.82649  1.0000
  C   C1151     1.0  0.96166  0.37403  0.85803  1.0000
  N   N83       1.0  0.61952  0.05358  0.78148  1.0000
  N   N84       1.0  0.97093  0.29276  0.81215  1.0000
  H   H1983     1.0  0.94754  0.30850  0.78988  1.0000
  H   H1984     1.0  0.58182  0.08643  0.78382  1.0000
  S   S325      1.0  0.64979  0.01954  0.86175  1.0000
  C   C1152     1.0  0.88028  0.39056  0.75534  1.0000
  C   C1153     1.0  0.71565  0.02800  0.85945  1.0000
  N   N85       1.0  0.98149  0.32585  0.96010  1.0000
  H   H1985     1.0  0.93465  0.30780  0.81778  1.0000
  H   H1986     1.0  0.66343  0.01339  0.80262  1.0000
  C   C1154     1.0  0.64700  0.08629  0.86619  1.0000
  C   C1155     1.0  0.62836  0.08340  0.85767  1.0000
  C   C1156     1.0  0.62400  0.09749  0.83809  1.0000
  C   C1157     1.0  0.63890  0.11377  0.82654  1.0000
  C   C1158     1.0  0.65732  0.11691  0.83523  1.0000
  C   C1159     1.0  0.66120  0.10336  0.85521  1.0000
  H   H1987     1.0  0.61722  0.07036  0.86623  1.0000
  H   H1988     1.0  0.60941  0.09536  0.83178  1.0000
  H   H1989     1.0  0.66857  0.12984  0.82661  1.0000
  H   H1990     1.0  0.67559  0.10566  0.86183  1.0000
  H   H1991     1.0  0.73442  0.05084  0.86967  1.0000
  H   H1992     1.0  0.93996  0.39787  0.87699  1.0000
  H   H1993     1.0  0.61644  0.17652  0.79180  1.0000
  C   C1160     1.0  0.79145  0.14546  0.78519  1.0000
  H   H1994     1.0  0.88725  0.35087  0.78695  1.0000
  Fe  Fe164     1.0  0.96128  0.41904  0.76642  1.0000
  Fe  Fe165     1.0  0.71408  0.11209  0.75568  1.0000
  H   H1995     1.0  0.61170  0.23514  0.75533  1.0000
  C   C1161     1.0  0.62131  0.06925  0.75935  1.0000
  H   H1996     1.0  0.96547  0.25072  0.79777  1.0000
  C   C1162     1.0  0.71482  0.01730  0.82565  1.0000
  C   C1163     1.0  0.57955  0.18648  0.80356  1.0000
  C   C1164     1.0  0.96663  0.30249  0.84984  1.0000
  H   H1997     1.0  0.69807  0.01033  0.83385  1.0000
  S   S326      1.0  0.73129  0.14409  0.74344  1.0000
  C   C1165     1.0  0.58189  0.20424  0.75518  1.0000
  S   S327      1.0  0.74411  0.15934  0.79389  1.0000
  H   H1998     1.0  0.59416  0.00984  0.77113  1.0000
  H   H1999     1.0  0.98244  0.44688  0.81366  1.0000
  C   C1166     1.0  0.60020  0.18125  0.78505  1.0000
  Fe  Fe166     1.0  0.71897  0.14979  0.77747  1.0000
  S   S328      1.0  0.70445  0.11628  0.79019  1.0000
  C   C1167     1.0  0.95078  0.40666  0.82170  1.0000
  H   H2000     1.0  0.95231  0.13157  0.77646  1.0000
  S   S329      1.0  0.65429  0.00220  0.91284  1.0000
  H   H2001     1.0  0.56246  0.18760  0.79892  1.0000
  H   H2002     1.0  0.94929  0.31235  0.84818  1.0000
  C   C1168     1.0  0.95384  0.33619  0.80304  1.0000
  C   C1169     1.0  0.74702  0.05392  0.80135  1.0000
  S   S330      1.0  0.73173  0.07700  0.75063  1.0000
  H   H2003     1.0  0.73969  0.07222  0.79642  1.0000
  Fe  Fe167     1.0  0.61384  0.00921  0.87223  1.0000
  H   H2004     1.0  0.97198  0.34032  0.79789  1.0000
  N   N86       1.0  0.71736  0.03705  0.83535  1.0000
  H   H2005     1.0  0.56766  0.00397  0.89016  1.0000
  C   C1170     1.0  0.54058  0.98433  0.89058  1.0000
  H   H2006     1.0  0.75961  0.17687  0.74860  1.0000
  H   H2007     1.0  0.53328  0.98367  0.90764  1.0000
  H   H2008     1.0  0.67879  0.04681  0.81108  1.0000
  C   C1171     1.0  0.97073  0.32300  0.94200  1.0000
  H   H2009     1.0  0.90631  0.19286  0.74068  1.0000
  H   H2010     1.0  0.95386  0.31574  0.94867  1.0000
  H   H2011     1.0  0.73517  0.98737  0.84332  1.0000
  H   H2012     1.0  0.58479  0.04706  0.78136  1.0000
  H   H2013     1.0  0.73861  0.27913  0.74641  1.0000
  C   C1172     1.0  0.64520  0.02231  0.80389  1.0000
  Fe  Fe168     1.0  0.61793  0.99308  0.91929  1.0000
  S   S331      1.0  0.94511  0.42794  0.79910  1.0000
  H   H2014     1.0  0.97722  0.30891  0.91277  1.0000
  H   H2015     1.0  0.58955  0.23059  0.77885  1.0000
  H   H2016     1.0  0.70253  0.07316  0.83350  1.0000
  C   C1173     1.0  0.58753  0.08237  0.79952  1.0000
  C   C1174     1.0  0.56877  0.99787  0.85840  1.0000
  S   S332      1.0  0.67963  0.12935  0.74762  1.0000
  C   C1175     1.0  0.81578  0.15272  0.74900  1.0000
  H   H2017     1.0  0.71225  0.03788  0.89045  1.0000
  C   C1176     1.0  0.87616  0.35061  0.75680  1.0000
  C   C1177     1.0  0.62216  0.00217  0.96911  1.0000
  C   C1178     1.0  0.71869  0.24133  0.75500  1.0000
  H   H2018     1.0  0.62439  0.00763  0.77163  1.0000
  H   H2019     1.0  0.63138  0.05978  0.74649  1.0000
  C   C1179     1.0  0.98977  0.47089  0.78378  1.0000
  N   N87       1.0  0.60333  0.20006  0.76501  1.0000
  H   H2020     1.0  0.56475  0.99000  0.82876  1.0000
  H   H2021     1.0  0.76636  0.05233  0.79602  1.0000
  H   H2022     1.0  0.70211  0.06371  0.79648  1.0000
  H   H2023     1.0  0.68200  0.05364  0.84569  1.0000
  C   C1180     1.0  0.62471  0.22040  0.78449  1.0000
  H   H2024     1.0  0.62491  0.07782  0.79952  1.0000
  C   C1181     1.0  0.68820  0.06105  0.81124  1.0000
  C   C1182     1.0  0.95132  0.25866  0.80947  1.0000
  H   H2025     1.0  0.57371  0.07383  0.81207  1.0000
  H   H2026     1.0  0.94425  0.34681  0.79050  1.0000
  H   H2027     1.0  0.64049  0.18867  0.75687  1.0000
  C   C1183     1.0  0.64350  0.04065  0.78309  1.0000
  H   H2028     1.0  0.59727  0.16512  0.78107  1.0000
  H   H2029     1.0  0.96638  0.33997  0.93137  1.0000
  H   H2030     1.0  0.94795  0.32726  0.98235  1.0000
  H   H2031     1.0  0.97357  0.11165  0.76322  1.0000
  H   H2032     1.0  0.62439  0.15519  0.75341  1.0000
  H   H2033     1.0  0.61183  0.02898  0.75117  1.0000
  C   C1184     1.0  0.81329  0.14271  0.77113  1.0000
  Fe  Fe169     1.0  0.67116  0.13604  0.78132  1.0000
  S   S333      1.0  0.96981  0.35437  0.88050  1.0000
  C   C1185     1.0  0.89254  0.34164  0.77322  1.0000
  C   C1186     1.0  0.77196  0.15761  0.77697  1.0000
  C   C1187     1.0  0.69757  0.05654  0.83236  1.0000
  H   H2034     1.0  0.94012  0.37054  0.97764  1.0000
  H   H2035     1.0  0.60388  0.07496  0.75486  1.0000
  H   H2036     1.0  0.64226  0.21257  0.77720  1.0000
  H   H2037     1.0  0.94714  0.27291  0.83770  1.0000
  H   H2038     1.0  0.68074  0.21096  0.74330  1.0000
  H   H2039     1.0  0.76157  0.25594  0.74803  1.0000
  H   H2040     1.0  0.63379  0.00898  0.80614  1.0000
  S   S334      1.0  0.94058  0.40676  0.74772  1.0000
  H   H2041     1.0  0.67523  0.07686  0.81054  1.0000
  C   C1188     1.0  0.98585  0.30755  0.92661  1.0000
  H   H2042     1.0  0.78950  0.13760  0.80226  1.0000
  C   C1189     1.0  0.71253  0.06205  0.74408  1.0000
  H   H2043     1.0  0.64102  0.03009  0.81845  1.0000
  H   H2044     1.0  0.56646  0.21189  0.76601  1.0000
  C   C1190     1.0  0.96242  0.33801  0.97509  1.0000
  C   C1191     1.0  0.63111  0.00736  0.98542  1.0000
  H   H2045     1.0  0.82820  0.13269  0.77738  1.0000
  H   H2046     1.0  0.89517  0.38585  0.76399  1.0000
  H   H2047     1.0  0.58039  0.20237  0.80905  1.0000
  H   H2048     1.0  0.71798  0.21916  0.78695  1.0000
  C   C1192     1.0  0.98943  0.30202  0.97200  1.0000
  C   C1193     1.0  0.63305  0.09106  0.75631  1.0000
  H   H2049     1.0  0.86411  0.39065  0.76829  1.0000
  H   H2050     1.0  0.57702  0.18771  0.75374  1.0000
  C   C1194     1.0  0.61149  0.06707  0.79938  1.0000
  H   H2051     1.0  0.70377  0.06147  0.87021  1.0000
  C   C1195     1.0  0.82286  0.08503  0.75210  1.0000
  H   H2052     1.0  0.70861  0.25585  0.76259  1.0000
  S   S335      1.0  0.59365  0.01157  0.84634  1.0000
  C   C1196     1.0  0.97049  0.36965  0.83716  1.0000
  H   H2053     1.0  0.97533  0.25745  0.83017  1.0000
  C   C1197     1.0  0.60204  0.03730  0.78396  1.0000
  H   H2054     1.0  0.74138  0.04329  0.79218  1.0000
  H   H2055     1.0  0.62650  0.23802  0.78591  1.0000
  C   C1198     1.0  0.96507  0.12978  0.76113  1.0000
  H   H2056     1.0  0.91110  0.34338  0.76559  1.0000
  H   H2057     1.0  0.78673  0.09255  0.74866  1.0000
  H   H2058     1.0  0.98771  0.28908  0.93468  1.0000
  C   C1199     1.0  0.95108  0.31055  0.80549  1.0000
  H   H2059     1.0  0.93067  0.42692  0.84483  1.0000
  H   H2060     1.0  0.72606  0.02900  0.76123  1.0000
  H   H2061     1.0  0.98157  0.35372  0.83493  1.0000
  C   C1200     1.0  0.77458  0.16765  0.75490  1.0000
  H   H2062     1.0  0.96430  0.28546  0.86074  1.0000
  H   H2063     1.0  0.75531  0.03306  0.83156  1.0000
  H   H2064     1.0  0.94518  0.34252  0.81816  1.0000
  H   H2065     1.0  0.65055  0.03170  0.76934  1.0000
  C   C1201     1.0  0.94166  0.41088  0.84266  1.0000
  C   C1202     1.0  0.94688  0.39446  0.86084  1.0000
  H   H2066     1.0  0.62193  0.10361  0.76581  1.0000
  C   C1203     1.0  0.73129  0.22531  0.77243  1.0000
  H   H2067     1.0  0.65619  0.05271  0.78174  1.0000
  H   H2068     1.0  0.74152  0.20968  0.76703  1.0000
  H   H2069     1.0  0.97510  0.29104  0.97600  1.0000
  C   C1204     1.0  0.74068  0.04580  0.82619  1.0000
  H   H2070     1.0  0.98074  0.28386  0.78023  1.0000
  H   H2071     1.0  0.65048  0.08696  0.76075  1.0000
  H   H2072     1.0  0.61929  0.21060  0.80124  1.0000
  H   H2073     1.0  0.85787  0.35196  0.76638  1.0000
  H   H2074     1.0  0.96492  0.37341  0.95575  1.0000
  C   C1205     1.0  0.71359  0.03816  0.75135  1.0000
  C   C1206     1.0  0.96143  0.27037  0.82350  1.0000
  H   H2075     1.0  0.74151  0.06097  0.83295  1.0000
  C   C1207     1.0  0.96478  0.38580  0.81909  1.0000
  C   C1208     1.0  0.60641  0.22227  0.77042  1.0000
  H   H2076     1.0  0.75199  0.00216  0.81816  1.0000
  H   H2077     1.0  0.72999  0.01386  0.86277  1.0000
  C   C1209     1.0  0.71662  0.04581  0.87290  1.0000
  H   H2078     1.0  0.58848  0.09920  0.80335  1.0000
  H   H2079     1.0  0.94021  0.36080  0.95358  1.0000
  C   C1210     1.0  0.62492  0.19260  0.74927  1.0000
  H   H2080     1.0  0.88507  0.42600  0.75399  1.0000
  H   H2081     1.0  0.59831  0.02720  0.80085  1.0000
  C   C1211     1.0  0.95150  0.36204  0.96463  1.0000
  C   C1212     1.0  0.60878  0.02010  0.76847  1.0000
  C   C1213     1.0  0.55991  0.99603  0.88064  1.0000
  H   H2082     1.0  0.69910  0.00767  0.75177  1.0000
  H   H2083     1.0  0.63896  0.02305  0.98228  1.0000
  H   H2084     1.0  0.97897  0.46118  0.77809  1.0000
  H   H2085     1.0  0.97126  0.38201  0.80321  1.0000
  H   H2086     1.0  0.99022  0.31585  0.82076  1.0000
  C   C1214     1.0  0.69851  0.02605  0.74579  1.0000
  C   C1215     1.0  0.98901  0.28784  0.79250  1.0000
  C   C1216     1.0  0.79650  0.16560  0.74098  1.0000
  H   H2087     1.0  0.93756  0.12543  0.74672  1.0000
  C   C1217     1.0  0.98252  0.29961  0.82775  1.0000
  Fe  Fe170     1.0  0.98638  0.20404  0.74789  1.0000
  H   H2088     1.0  0.83569  0.09679  0.75116  1.0000
  C   C1218     1.0  0.88173  0.41575  0.74303  1.0000
  S   S336      1.0  0.94862  0.20126  0.74933  1.0000
  H   H2089     1.0  0.78968  0.05510  0.74500  1.0000
  H   H2090     1.0  0.83232  0.06887  0.74738  1.0000
  H   H2091     1.0  0.87743  0.33671  0.74777  1.0000
  H   H2092     1.0  0.97819  0.14148  0.75933  1.0000
  S   S337      1.0  0.99149  0.39147  0.76136  1.0000
  S   S338      1.0  0.96066  0.34639  0.74423  1.0000
  H   H2093     1.0  0.94304  0.15442  0.74213  1.0000
  C   C1219     1.0  0.95187  0.13644  0.74213  1.0000
  H   H2094     1.0  0.96844  0.34041  0.98922  1.0000
  H   H2095     1.0  0.95770  0.30015  0.74261  1.0000
  H   H2096     1.0  0.69040  0.98383  0.94479  1.0000
  N   N88       1.0  0.88075  0.37323  0.74161  1.0000
  C   C1220     1.0  0.61207  0.98194  0.97303  1.0000
  H   H2097     1.0  0.84428  0.38551  0.74081  1.0000
  C   C1221     1.0  0.62438  0.17100  0.74049  1.0000
  C   C1222     1.0  0.53793  0.87240  0.13125  1.0000
  H   H2098     1.0  0.55493  0.86899  0.12029  1.0000
  H   H2099     1.0  0.62689  0.66019  0.18514  1.0000
  H   H2100     1.0  0.64524  0.88390  0.13769  1.0000
  S   S339      1.0  0.65376  0.93755  0.11305  1.0000
  S   S340      1.0  0.50884  0.91663  0.19179  1.0000
  S   S341      1.0  0.97463  0.95665  0.21469  1.0000
  C   C1223     1.0  0.75494  0.94551  0.13431  1.0000
  Fe  Fe171     1.0  0.56097  0.57390  0.19887  1.0000
  H   H2101     1.0  0.53511  0.66473  0.17962  1.0000
  H   H2102     1.0  0.53717  0.82512  0.21871  1.0000
  H   H2103     1.0  0.60242  0.88694  0.14198  1.0000
  H   H2104     1.0  0.53711  0.62257  0.18253  1.0000
  H   H2105     1.0  0.52050  0.83297  0.16871  1.0000
  H   H2106     1.0  0.69093  0.94407  0.13046  1.0000
  H   H2107     1.0  0.60331  0.86792  0.19030  1.0000
  S   S342      1.0  0.58810  0.55355  0.21721  1.0000
  S   S343      1.0  0.53603  0.54761  0.21100  1.0000
  C   C1224     1.0  0.90145  0.93232  0.22879  1.0000
  S   S344      1.0  0.56853  0.69654  0.15607  1.0000
  C   C1225     1.0  0.57208  0.96524  0.22674  1.0000
  S   S345      1.0  0.61533  0.96105  0.08181  1.0000
  C   C1226     1.0  0.55079  0.63172  0.17177  1.0000
  C   C1227     1.0  0.56214  0.96011  0.05984  1.0000
  C   C1228     1.0  0.70880  0.94419  0.13141  1.0000
  S   S346      1.0  0.62488  0.89490  0.09497  1.0000
  S   S347      1.0  0.66917  0.94044  0.06004  1.0000
  H   H2108     1.0  0.61574  0.90253  0.19195  1.0000
  H   H2109     1.0  0.64082  0.63595  0.21354  1.0000
  C   C1229     1.0  0.60952  0.89716  0.15075  1.0000
  H   H2110     1.0  0.92524  0.97998  0.23334  1.0000
  Fe  Fe172     1.0  0.53665  0.71479  0.17472  1.0000
  H   H2111     1.0  0.90702  0.95100  0.17411  1.0000
  C   C1230     1.0  0.57906  0.88095  0.06376  1.0000
  S   S348      1.0  0.56472  0.90046  0.02505  1.0000
  C   C1231     1.0  0.51283  0.80634  0.21207  1.0000
  N   N89       1.0  0.60360  0.64395  0.21356  1.0000
  Fe  Fe173     1.0  0.52157  0.56714  0.23782  1.0000
  C   C1232     1.0  0.56988  0.61966  0.15982  1.0000
  C   C1233     1.0  0.58738  0.63165  0.14558  1.0000
  C   C1234     1.0  0.58640  0.65541  0.14407  1.0000
  C   C1235     1.0  0.56767  0.66741  0.15643  1.0000
  H   H2112     1.0  0.63355  0.86687  0.16308  1.0000
  C   C1236     1.0  0.61073  0.96707  0.99333  1.0000
  H   H2113     1.0  0.60213  0.62244  0.13627  1.0000
  H   H2114     1.0  0.60037  0.66448  0.13353  1.0000
  H   H2115     1.0  0.66323  0.51251  0.14895  1.0000
  H   H2116     1.0  0.53531  0.94448  0.08679  1.0000
  H   H2117     1.0  0.60054  0.52278  0.14854  1.0000
  H   H2118     1.0  0.62644  0.92168  0.05181  1.0000
  S   S349      1.0  0.57311  0.58946  0.16384  1.0000
  H   H2119     1.0  0.58286  0.66255  0.23845  1.0000
  H   H2120     1.0  0.56564  0.85955  0.21349  1.0000
  C   C1237     1.0  0.54959  0.65562  0.16999  1.0000
  H   H2121     1.0  0.52627  0.76400  0.08532  1.0000
  H   H2122     1.0  0.64987  0.90408  0.01309  1.0000
  C   C1238     1.0  0.50430  0.84659  0.21561  1.0000
  C   C1239     1.0  0.51978  0.82592  0.21580  1.0000
  S   S350      1.0  0.51267  0.80410  0.05423  1.0000
  H   H2123     1.0  0.54016  0.87086  0.14810  1.0000
  H   H2124     1.0  0.55300  0.64391  0.21531  1.0000
  H   H2125     1.0  0.66440  0.90381  0.23058  1.0000
  C   C1240     1.0  0.73770  0.94226  0.15326  1.0000
  H   H2126     1.0  0.56595  0.86958  0.06712  1.0000
  Fe  Fe174     1.0  0.50642  0.84265  0.04812  1.0000
  H   H2127     1.0  0.57232  0.79724  0.10613  1.0000
  C   C1241     1.0  0.91226  0.93856  0.20699  1.0000
  S   S351      1.0  0.85761  0.95952  0.17632  1.0000
  H   H2128     1.0  0.50410  0.63430  0.21684  1.0000
  H   H2129     1.0  0.84437  0.94321  0.22306  1.0000
  Fe  Fe175     1.0  0.98031  0.97459  0.23951  1.0000
  H   H2130     1.0  0.93113  0.93744  0.20243  1.0000
  C   C1242     1.0  0.60939  0.66422  0.19538  1.0000
  C   C1243     1.0  0.59983  0.62489  0.20363  1.0000
  H   H2131     1.0  0.67918  0.91016  0.00790  1.0000
  C   C1244     1.0  0.57057  0.93293  0.14464  1.0000
  H   H2132     1.0  0.53363  0.97962  0.09426  1.0000
  C   C1245     1.0  0.62122  0.61486  0.18819  1.0000
  H   H2133     1.0  0.55813  0.90197  0.16344  1.0000
  H   H2134     1.0  0.60342  0.92267  0.02421  1.0000
  Fe  Fe176     1.0  0.76987  0.96083  0.18270  1.0000
  S   S352      1.0  0.52079  0.85996  0.06825  1.0000
  H   H2135     1.0  0.58589  0.63087  0.19402  1.0000
  N   N90       1.0  0.54504  0.97591  0.04725  1.0000
  C   C1246     1.0  0.63668  0.48556  0.23693  1.0000
  C   C1247     1.0  0.86326  0.94185  0.21853  1.0000
  S   S353      1.0  0.54406  0.93416  0.22529  1.0000
  Fe  Fe177     1.0  0.63990  0.92828  0.08728  1.0000
  H   H2136     1.0  0.59759  0.66752  0.18366  1.0000
  H   H2137     1.0  0.63602  0.60708  0.19643  1.0000
  H   H2138     1.0  0.61605  0.60085  0.18243  1.0000
  H   H2139     1.0  0.62699  0.62791  0.17351  1.0000
  H   H2140     1.0  0.57744  0.95297  0.04851  1.0000
  C   C1248     1.0  0.58264  0.89679  0.04402  1.0000
  H   H2141     1.0  0.56971  0.96954  0.06881  1.0000
  Fe  Fe178     1.0  0.81836  0.96895  0.18474  1.0000
  S   S354      1.0  0.51980  0.86577  0.01662  1.0000
  H   H2142     1.0  0.66272  0.50735  0.11245  1.0000
  H   H2143     1.0  0.54446  0.83473  0.10081  1.0000
  C   C1249     1.0  0.60026  0.91086  0.03955  1.0000
  H   H2144     1.0  0.59023  0.86732  0.09428  1.0000
  H   H2145     1.0  0.61908  0.96049  0.02526  1.0000
  C   C1250     1.0  0.60142  0.91357  0.18444  1.0000
  Fe  Fe179     1.0  0.49518  0.71050  0.21201  1.0000
  H   H2146     1.0  0.59361  0.61020  0.21649  1.0000
  C   C1251     1.0  0.54786  0.82583  0.11709  1.0000
  C   C1252     1.0  0.61994  0.97209  0.00964  1.0000
  H   H2147     1.0  0.53104  0.89074  0.12566  1.0000
  H   H2148     1.0  0.58825  0.48745  0.19133  1.0000
  C   C1253     1.0  0.55459  0.79999  0.11638  1.0000
  N   N91       1.0  0.52722  0.83147  0.13460  1.0000
  C   C1254     1.0  0.55744  0.82188  0.16002  1.0000
  C   C1255     1.0  0.58735  0.87775  0.18472  1.0000
  C   C1256     1.0  0.63399  0.88487  0.15394  1.0000
  H   H2149     1.0  0.56376  0.83237  0.11825  1.0000
  C   C1257     1.0  0.62533  0.52134  0.17981  1.0000
  H   H2150     1.0  0.56945  0.80803  0.15286  1.0000
  H   H2151     1.0  0.62753  0.68841  0.20422  1.0000
  C   C1258     1.0  0.59274  0.87970  0.07914  1.0000
  H   H2152     1.0  0.61306  0.51580  0.19534  1.0000
  H   H2153     1.0  0.58776  0.91718  0.19873  1.0000
  C   C1259     1.0  0.61332  0.91024  0.05516  1.0000
  S   S355      1.0  0.74437  0.93895  0.17904  1.0000
  H   H2154     1.0  0.55481  0.78906  0.13271  1.0000
  H   H2155     1.0  0.66759  0.94089  0.21444  1.0000
  H   H2156     1.0  0.56493  0.93138  0.08726  1.0000
  H   H2157     1.0  0.57796  0.51785  0.18500  1.0000
  H   H2158     1.0  0.61725  0.53871  0.17236  1.0000
  C   C1260     1.0  0.60967  0.93706  0.17309  1.0000
  Fe  Fe180     1.0  0.56156  0.52896  0.23192  1.0000
  H   H2159     1.0  0.55775  0.81769  0.17762  1.0000
  H   H2160     1.0  0.56452  0.83842  0.15319  1.0000
  H   H2161     1.0  0.54237  0.79403  0.10879  1.0000
  C   C1261     1.0  0.51991  0.85720  0.13065  1.0000
  H   H2162     1.0  0.61260  0.91343  0.13890  1.0000
  Fe  Fe181     1.0  0.68092  0.95292  0.08559  1.0000
  H   H2163     1.0  0.59484  0.95119  0.17414  1.0000
  H   H2164     1.0  0.55016  0.92591  0.06828  1.0000
  H   H2165     1.0  0.64268  0.89460  0.16172  1.0000
  H   H2166     1.0  0.55887  0.92234  0.17913  1.0000
  C   C1262     1.0  0.50704  0.82049  0.13251  1.0000
  C   C1263     1.0  0.89859  0.94623  0.19099  1.0000
  H   H2167     1.0  0.77279  0.94596  0.13536  1.0000
  Fe  Fe182     1.0  0.53102  0.88514  0.03735  1.0000
  H   H2168     1.0  0.55277  0.94243  0.14399  1.0000
  C   C1264     1.0  0.51839  0.97438  0.02124  1.0000
  C   C1265     1.0  0.62374  0.63504  0.22522  1.0000
  C   C1266     1.0  0.87407  0.94819  0.19673  1.0000
  C   C1267     1.0  0.60946  0.89476  0.07502  1.0000
  H   H2169     1.0  0.65490  0.93278  0.01127  1.0000
  C   C1268     1.0  0.72605  0.94705  0.11246  1.0000
  H   H2170     1.0  0.65885  0.53537  0.17291  1.0000
  H   H2171     1.0  0.59644  0.69104  0.21574  1.0000
  H   H2172     1.0  0.58233  0.86715  0.17489  1.0000
  S   S356      1.0  0.79127  0.94916  0.20879  1.0000
  H   H2173     1.0  0.57283  0.88551  0.21752  1.0000
  N   N92       1.0  0.59211  0.90117  0.17112  1.0000
  S   S357      1.0  0.54430  0.59519  0.22390  1.0000
  H   H2174     1.0  0.57635  0.92529  0.12988  1.0000
  C   C1269     1.0  0.56926  0.91407  0.16554  1.0000
  C   C1270     1.0  0.56805  0.87767  0.20550  1.0000
  H   H2175     1.0  0.52776  0.80469  0.16380  1.0000
  C   C1271     1.0  0.53433  0.96118  0.03712  1.0000
  C   C1272     1.0  0.60504  0.50566  0.15892  1.0000
  C   C1273     1.0  0.58135  0.64944  0.22953  1.0000
  C   C1274     1.0  0.54688  0.98136  0.16921  1.0000
  C   C1275     1.0  0.71383  0.94525  0.23589  1.0000
  Fe  Fe183     1.0  0.52007  0.75334  0.19997  1.0000
  H   H2176     1.0  0.63572  0.49579  0.12187  1.0000
  C   C1276     1.0  0.65151  0.49813  0.12707  1.0000
  C   C1277     1.0  0.61282  0.49372  0.23870  1.0000
  S   S358      1.0  0.52755  0.75304  0.16444  1.0000
  H   H2177     1.0  0.51077  0.80134  0.13642  1.0000
  C   C1278     1.0  0.68542  0.94428  0.21447  1.0000
  H   H2178     1.0  0.49306  0.65051  0.16014  1.0000
  H   H2179     1.0  0.58213  0.94570  0.14397  1.0000
  H   H2180     1.0  0.60553  0.49289  0.14888  1.0000
  S   S359      1.0  0.53274  0.78098  0.21099  1.0000
  C   C1279     1.0  0.53212  0.82259  0.15722  1.0000
  H   H2181     1.0  0.62301  0.94042  0.18110  1.0000
  C   C1280     1.0  0.55232  0.93942  0.07649  1.0000
  H   H2182     1.0  0.54826  0.94975  0.02819  1.0000
  H   H2183     1.0  0.56194  0.67237  0.20568  1.0000
  C   C1281     1.0  0.74918  0.94750  0.11398  1.0000
  H   H2184     1.0  0.60262  0.95165  0.99620  1.0000
  H   H2185     1.0  0.70127  0.93871  0.16625  1.0000
  H   H2186     1.0  0.50966  0.86168  0.21849  1.0000
  H   H2187     1.0  0.52337  0.94942  0.04983  1.0000
  C   C1282     1.0  0.50984  0.77273  0.09277  1.0000
  H   H2188     1.0  0.60588  0.70161  0.18803  1.0000
  S   S360      1.0  0.53230  0.71561  0.21001  1.0000
  C   C1283     1.0  0.71470  0.94132  0.15174  1.0000
  C   C1284     1.0  0.60996  0.68732  0.20158  1.0000
  H   H2189     1.0  0.61857  0.93784  0.15596  1.0000
  H   H2190     1.0  0.69782  0.93253  0.20473  1.0000
  Fe  Fe184     1.0  0.63159  0.97139  0.10544  1.0000
  H   H2191     1.0  0.50447  0.86173  0.14313  1.0000
  H   H2192     1.0  0.55086  0.88635  0.20201  1.0000
  H   H2193     1.0  0.62346  0.66583  0.23868  1.0000
  C   C1285     1.0  0.66171  0.91714  0.00428  1.0000
  C   C1286     1.0  0.55920  0.65803  0.21989  1.0000
  C   C1287     1.0  0.58406  0.50202  0.17816  1.0000
  H   H2194     1.0  0.49656  0.62222  0.18657  1.0000
  C   C1288     1.0  0.64602  0.51247  0.14490  1.0000
  C   C1289     1.0  0.64776  0.52460  0.18639  1.0000
  S   S361      1.0  0.71906  0.95103  0.08669  1.0000
  S   S362      1.0  0.56779  0.49022  0.23784  1.0000
  N   N93       1.0  0.68972  0.93940  0.23734  1.0000
  S   S363      1.0  0.79820  0.97781  0.15766  1.0000
  H   H2195     1.0  0.51024  0.97968  0.06750  1.0000
  H   H2196     1.0  0.72708  0.93562  0.22470  1.0000
  S   S364      1.0  0.50059  0.70670  0.17731  1.0000
  H   H2197     1.0  0.58660  0.95312  0.22087  1.0000
  H   H2198     1.0  0.76263  0.94960  0.09937  1.0000
  H   H2199     1.0  0.51434  0.86331  0.11474  1.0000
  H   H2200     1.0  0.62350  0.61642  0.23287  1.0000
  H   H2201     1.0  0.56912  0.49834  0.17242  1.0000
  Fe  Fe185     1.0  0.50823  0.93498  0.21845  1.0000
  H   H2202     1.0  0.49355  0.79487  0.01913  1.0000
  S   S365      1.0  0.49465  0.96161  0.14242  1.0000
  S   S366      1.0  0.49738  0.90900  0.04221  1.0000
  H   H2203     1.0  0.54482  0.66449  0.23237  1.0000
  H   H2204     1.0  0.50435  0.82502  0.11542  1.0000
  H   H2205     1.0  0.55192  0.96468  0.17978  1.0000
  C   C1290     1.0  0.68713  0.96915  0.20146  1.0000
  C   C1291     1.0  0.87695  0.93368  0.23450  1.0000
  H   H2206     1.0  0.53265  0.93383  0.99627  1.0000
  H   H2207     1.0  0.68087  0.97113  0.18614  1.0000
  H   H2208     1.0  0.49960  0.80532  0.99050  1.0000
  H   H2209     1.0  0.71488  0.96380  0.22885  1.0000
  C   C1292     1.0  0.49940  0.76410  0.11437  1.0000
  H   H2210     1.0  0.50834  0.96211  0.01796  1.0000
  H   H2211     1.0  0.70544  0.97303  0.19651  1.0000
  H   H2212     1.0  0.64276  0.53394  0.20007  1.0000
  Fe  Fe186     1.0  0.64560  0.97420  0.05667  1.0000
  C   C1293     1.0  0.49932  0.79290  0.08100  1.0000
  H   H2213     1.0  0.50775  0.74870  0.12353  1.0000
  C   C1294     1.0  0.54911  0.96005  0.23063  1.0000
  H   H2214     1.0  0.89080  0.97855  0.22034  1.0000
  H   H2215     1.0  0.64029  0.53064  0.13733  1.0000
  H   H2216     1.0  0.64878  0.49692  0.23727  1.0000
  H   H2217     1.0  0.65813  0.50795  0.19208  1.0000
  N   N94       1.0  0.62833  0.50445  0.16506  1.0000
  H   H2218     1.0  0.70365  0.90390  0.23598  1.0000
  C   C1295     1.0  0.53041  0.97586  0.23810  1.0000
  H   H2219     1.0  0.53120  0.97919  0.16370  1.0000
  H   H2220     1.0  0.61403  0.50145  0.28004  1.0000
  S   S367      1.0  0.95734  0.95393  0.26680  1.0000
  C   C1296     1.0  0.52177  0.49733  0.47946  1.0000
  H   H2221     1.0  0.89162  0.97030  0.48870  1.0000
  H   H2222     1.0  0.60684  0.49496  0.32339  1.0000
  H   H2223     1.0  0.93707  0.85612  0.28668  1.0000
  H   H2224     1.0  0.91115  0.92942  0.33401  1.0000
  H   H2225     1.0  0.63433  0.50923  0.43953  1.0000
  H   H2226     1.0  0.95355  0.85535  0.31855  1.0000
  C   C1297     1.0  0.50380  0.61060  0.28006  1.0000
  H   H2227     1.0  0.60433  0.50458  0.45161  1.0000
  S   S368      1.0  0.52519  0.50567  0.33492  1.0000
  S   S369      1.0  0.54525  0.54649  0.25971  1.0000
  H   H2228     1.0  0.89124  0.85436  0.34153  1.0000
  H   H2229     1.0  0.92898  0.86483  0.34973  1.0000
  S   S370      1.0  0.91787  0.92395  0.24942  1.0000
  H   H2230     1.0  0.63926  0.51757  0.47396  1.0000
  H   H2231     1.0  0.60056  0.52438  0.29380  1.0000
  C   C1298     1.0  0.61907  0.51310  0.45242  1.0000
  Fe  Fe187     1.0  0.54083  0.51243  0.36082  1.0000
  S   S371      1.0  0.57442  0.52723  0.35462  1.0000
  H   H2232     1.0  0.66655  0.88702  0.25685  1.0000
  C   C1299     1.0  0.93118  0.91204  0.30728  1.0000
  C   C1300     1.0  0.92873  0.88348  0.34214  1.0000
  C   C1301     1.0  0.94964  0.86823  0.28540  1.0000
  C   C1302     1.0  0.66633  0.94625  0.27547  1.0000
  C   C1303     1.0  0.52542  0.62349  0.27511  1.0000
  S   S372      1.0  0.58965  0.58777  0.26081  1.0000
  C   C1304     1.0  0.95032  0.87252  0.30786  1.0000
  H   H2233     1.0  0.49372  0.61949  0.26731  1.0000
  C   C1305     1.0  0.97418  0.97814  0.31993  1.0000
  H   H2234     1.0  0.84645  0.97830  0.24905  1.0000
  C   C1306     1.0  0.67112  0.95414  0.25043  1.0000
  C   C1307     1.0  0.91213  0.93026  0.31653  1.0000
  H   H2235     1.0  0.50626  0.57571  0.31446  1.0000
  C   C1308     1.0  0.90674  0.88113  0.31527  1.0000
  H   H2236     1.0  0.52037  0.64209  0.27546  1.0000
  Fe  Fe188     1.0  0.50446  0.49136  0.39694  1.0000
  H   H2237     1.0  0.91659  0.94767  0.30790  1.0000
  H   H2238     1.0  0.64385  0.48781  0.29894  1.0000
  H   H2239     1.0  0.57737  0.49479  0.32291  1.0000
  C   C1309     1.0  0.94915  0.89165  0.34814  1.0000
  C   C1310     1.0  0.62545  0.50690  0.47511  1.0000
  H   H2240     1.0  0.94787  0.88670  0.36600  1.0000
  H   H2241     1.0  0.89473  0.92916  0.31356  1.0000
  H   H2242     1.0  0.94838  0.91676  0.30750  1.0000
  C   C1311     1.0  0.50471  0.51194  0.28192  1.0000
  C   C1312     1.0  0.90219  0.85589  0.32488  1.0000
  N   N95       1.0  0.92920  0.88723  0.31818  1.0000
  H   H2243     1.0  0.91838  0.84359  0.32566  1.0000
  C   C1313     1.0  0.51228  0.49265  0.44620  1.0000
  S   S373      1.0  0.98584  0.90768  0.24912  1.0000
  Fe  Fe189     1.0  0.99009  0.92988  0.27099  1.0000
  C   C1314     1.0  0.54144  0.50762  0.46741  1.0000
  H   H2244     1.0  0.98796  0.97362  0.48854  1.0000
  C   C1315     1.0  0.97233  0.97360  0.34242  1.0000
  H   H2245     1.0  0.71229  0.95214  0.26822  1.0000
  H   H2246     1.0  0.94513  0.88439  0.27400  1.0000
  H   H2247     1.0  0.51971  0.59897  0.31656  1.0000
  H   H2248     1.0  0.69318  0.90848  0.26257  1.0000
  H   H2249     1.0  0.93080  0.91467  0.28981  1.0000
  H   H2250     1.0  0.53800  0.61576  0.28586  1.0000
  C   C1316     1.0  0.54654  0.51035  0.44473  1.0000
  H   H2251     1.0  0.96658  0.88039  0.30570  1.0000
  H   H2252     1.0  0.96643  0.88355  0.34045  1.0000
  H   H2253     1.0  0.65400  0.95548  0.24558  1.0000
  C   C1317     1.0  0.98980  0.93828  0.31904  1.0000
  C   C1318     1.0  0.53197  0.50293  0.43413  1.0000
  S   S374      1.0  0.50676  0.52778  0.37874  1.0000
  S   S375      1.0  0.56021  0.51670  0.48030  1.0000
  C   C1319     1.0  0.66629  0.90484  0.24700  1.0000
  H   H2254     1.0  0.61021  0.51373  0.48674  1.0000
  C   C1320     1.0  0.50245  0.59336  0.31820  1.0000
  H   H2255     1.0  0.49809  0.63873  0.31076  1.0000
  C   C1321     1.0  0.72267  0.94070  0.25725  1.0000
  H   H2256     1.0  0.91208  0.89197  0.35074  1.0000
  C   C1322     1.0  0.58428  0.57453  0.28828  1.0000
  C   C1323     1.0  0.60228  0.56950  0.29995  1.0000
  C   C1324     1.0  0.59890  0.55580  0.32094  1.0000
  C   C1325     1.0  0.57744  0.54747  0.33022  1.0000
  C   C1326     1.0  0.55896  0.55402  0.31914  1.0000
  C   C1327     1.0  0.56243  0.56744  0.29814  1.0000
  H   H2257     1.0  0.61918  0.57510  0.29239  1.0000
  H   H2258     1.0  0.61315  0.55089  0.32961  1.0000
  H   H2259     1.0  0.54213  0.54838  0.32661  1.0000
  H   H2260     1.0  0.54824  0.57208  0.28950  1.0000
  H   H2261     1.0  0.67528  0.97211  0.24658  1.0000
  C   C1328     1.0  0.98905  0.93385  0.34145  1.0000
  S   S376      1.0  0.95766  0.96769  0.41979  1.0000
  H   H2262     1.0  0.67097  0.50115  0.45558  1.0000
  H   H2263     1.0  0.89140  0.89189  0.32323  1.0000
  H   H2264     1.0  0.90517  0.88555  0.29786  1.0000
  H   H2265     1.0  0.94848  0.91068  0.34376  1.0000
  C   C1329     1.0  0.98329  0.96063  0.30826  1.0000
  C   C1330     1.0  0.97719  0.94076  0.48873  1.0000
  H   H2266     1.0  0.86850  0.92884  0.25134  1.0000
  C   C1331     1.0  0.68935  0.91390  0.24605  1.0000
  H   H2267     1.0  0.49594  0.52602  0.27095  1.0000
  H   H2268     1.0  0.64952  0.93892  0.28135  1.0000
  H   H2269     1.0  0.68025  0.93399  0.28222  1.0000
  H   H2270     1.0  0.98496  0.96447  0.29089  1.0000
  C   C1332     1.0  0.98042  0.95162  0.35317  1.0000
  H   H2271     1.0  0.97918  0.94813  0.37057  1.0000
  H   H2272     1.0  0.56165  0.51841  0.43530  1.0000
  H   H2273     1.0  0.96719  0.86022  0.27808  1.0000
  H   H2274     1.0  0.66393  0.96160  0.28293  1.0000
  H   H2275     1.0  0.53593  0.50530  0.41661  1.0000
  H   H2276     1.0  0.89293  0.85015  0.31437  1.0000
  H   H2277     1.0  0.53512  0.62256  0.25837  1.0000
  H   H2278     1.0  0.72354  0.92240  0.26567  1.0000
  H   H2279     1.0  0.58262  0.50945  0.28466  1.0000
  C   C1333     1.0  0.59553  0.49040  0.31397  1.0000
  H   H2280     1.0  0.50851  0.52012  0.29421  1.0000
  H   H2281     1.0  0.61326  0.53195  0.44855  1.0000
  C   C1334     1.0  0.50731  0.48974  0.46888  1.0000
  H   H2282     1.0  0.50307  0.57735  0.35175  1.0000
  H   H2283     1.0  0.51018  0.59293  0.27675  1.0000
  H   H2284     1.0  0.97049  0.90560  0.47305  1.0000
  H   H2285     1.0  0.61096  0.64202  0.25816  1.0000
  S   S377      1.0  0.49415  0.48271  0.43329  1.0000
  H   H2286     1.0  0.52165  0.50455  0.27298  1.0000
  C   C1335     1.0  0.59845  0.50718  0.29173  1.0000
  H   H2287     1.0  0.74086  0.94501  0.25338  1.0000
  H   H2288     1.0  0.65071  0.91545  0.25465  1.0000
  H   H2289     1.0  0.98074  0.94224  0.47079  1.0000
  Fe  Fe190     1.0  0.95445  0.93363  0.24286  1.0000
  H   H2290     1.0  0.93527  0.93219  0.48162  1.0000
  H   H2291     1.0  0.92721  0.90382  0.48880  1.0000
  H   H2292     1.0  0.64184  0.64065  0.24882  1.0000
  H   H2293     1.0  0.51267  0.97190  0.24135  1.0000
  C   C1336     1.0  0.62482  0.64686  0.24365  1.0000
  Fe  Fe191     1.0  0.56939  0.57280  0.24335  1.0000
  H   H2294     1.0  0.57766  0.63399  0.24247  1.0000
  C   C1337     1.0  0.67387  0.48213  0.45840  1.0000
  H   H2295     1.0  0.60655  0.51118  0.24080  1.0000
  H   H2296     1.0  0.98882  0.95952  0.63618  1.0000
  H   H2297     1.0  0.50056  0.89371  0.72840  1.0000
  H   H2298     1.0  0.90623  0.92629  0.65987  1.0000
  H   H2299     1.0  0.57085  0.57154  0.60618  1.0000
  C   C1338     1.0  0.90409  0.97372  0.49703  1.0000
  C   C1339     1.0  0.88520  0.95878  0.69140  1.0000
  S   S378      1.0  0.54431  0.49209  0.57914  1.0000
  Fe  Fe192     1.0  0.95159  0.95422  0.56971  1.0000
  H   H2300     1.0  0.64283  0.52222  0.59216  1.0000
  S   S379      1.0  0.92029  0.95231  0.55645  1.0000
  Fe  Fe193     1.0  0.55114  0.50952  0.51685  1.0000
  C   C1340     1.0  0.49922  0.54902  0.70116  1.0000
  H   H2301     1.0  0.50677  0.93493  0.71500  1.0000
  H   H2302     1.0  0.61038  0.50468  0.59018  1.0000
  H   H2303     1.0  0.98396  0.91785  0.53169  1.0000
  H   H2304     1.0  0.89242  0.94996  0.52669  1.0000
  N   N96       1.0  0.61868  0.50701  0.62043  1.0000
  H   H2305     1.0  0.95933  0.95009  0.49284  1.0000
  H   H2306     1.0  0.64864  0.86463  0.70543  1.0000
  S   S380      1.0  0.58151  0.50415  0.53341  1.0000
  C   C1341     1.0  0.96323  0.90469  0.49077  1.0000
  C   C1342     1.0  0.61290  0.86268  0.72241  1.0000
  N   N97       1.0  0.91110  0.95998  0.68329  1.0000
  S   S381      1.0  0.71124  0.96846  0.73171  1.0000
  H   H2307     1.0  0.87628  0.97607  0.71951  1.0000
  C   C1343     1.0  0.96972  0.91494  0.52444  1.0000
  H   H2308     1.0  0.60297  0.53973  0.60396  1.0000
  C   C1344     1.0  0.65512  0.49588  0.50719  1.0000
  H   H2309     1.0  0.54086  0.70106  0.72358  1.0000
  H   H2310     1.0  0.92924  0.91771  0.50982  1.0000
  H   H2311     1.0  0.87185  0.97194  0.57207  1.0000
  C   C1345     1.0  0.98485  0.92725  0.65882  1.0000
  C   C1346     1.0  0.55361  0.52744  0.67412  1.0000
  Fe  Fe194     1.0  0.55748  0.52374  0.55726  1.0000
  S   S382      1.0  0.49919  0.60935  0.66912  1.0000
  H   H2312     1.0  0.94044  0.89598  0.54287  1.0000
  Fe  Fe195     1.0  0.50458  0.63525  0.63781  1.0000
  S   S383      1.0  0.53720  0.64585  0.64259  1.0000
  C   C1347     1.0  0.85645  0.98102  0.56525  1.0000
  S   S384      1.0  0.50943  0.84983  0.68133  1.0000
  S   S385      1.0  0.50873  0.64891  0.69252  1.0000
  C   C1348     1.0  0.56092  0.52780  0.69311  1.0000
  Fe  Fe196     1.0  0.51262  0.67218  0.65967  1.0000
  S   S386      1.0  0.51756  0.70976  0.65381  1.0000
  Fe  Fe197     1.0  0.53014  0.62180  0.67499  1.0000
  S   S387      1.0  0.55684  0.59622  0.69063  1.0000
  S   S388      1.0  0.97327  0.92079  0.58014  1.0000
  C   C1349     1.0  0.61834  0.49403  0.64348  1.0000
  H   H2313     1.0  0.57123  0.50494  0.61279  1.0000
  H   H2314     1.0  0.56849  0.54924  0.71251  1.0000
  C   C1350     1.0  0.56311  0.54892  0.69772  1.0000
  C   C1351     1.0  0.55742  0.56965  0.68362  1.0000
  C   C1352     1.0  0.55064  0.56915  0.66447  1.0000
  C   C1353     1.0  0.54894  0.54811  0.65961  1.0000
  C   C1354     1.0  0.92255  0.91610  0.69660  1.0000
  C   C1355     1.0  0.59416  0.87251  0.73653  1.0000
  H   H2315     1.0  0.54656  0.58509  0.65348  1.0000
  H   H2316     1.0  0.54371  0.54795  0.64471  1.0000
  C   C1356     1.0  0.76569  0.95811  0.68530  1.0000
  H   H2317     1.0  0.65953  0.68060  0.63721  1.0000
  H   H2318     1.0  0.92382  0.94342  0.71298  1.0000
  H   H2319     1.0  0.58310  0.66757  0.63679  1.0000
  S   S389      1.0  0.54225  0.84520  0.72771  1.0000
  S   S390      1.0  0.95131  0.96747  0.59949  1.0000
  S   S391      1.0  0.97449  0.91455  0.64161  1.0000
  H   H2320     1.0  0.49996  0.50759  0.64079  1.0000
  H   H2321     1.0  0.88481  0.94506  0.72638  1.0000
  H   H2322     1.0  0.92821  0.90475  0.71119  1.0000
  C   C1357     1.0  0.54372  0.73518  0.70417  1.0000
  C   C1358     1.0  0.53966  0.75028  0.68499  1.0000
  C   C1359     1.0  0.53091  0.74253  0.66988  1.0000
  C   C1360     1.0  0.52586  0.71980  0.67406  1.0000
  C   C1361     1.0  0.52875  0.70515  0.69377  1.0000
  C   C1362     1.0  0.53786  0.71275  0.70869  1.0000
  H   H2323     1.0  0.54417  0.76763  0.68139  1.0000
  C   C1363     1.0  0.95984  0.89280  0.53840  1.0000
  H   H2324     1.0  0.52474  0.68775  0.69727  1.0000
  H   H2325     1.0  0.79558  0.97307  0.68723  1.0000
  C   C1364     1.0  0.76837  0.94577  0.65170  1.0000
  H   H2326     1.0  0.50964  0.55700  0.61709  1.0000
  C   C1365     1.0  0.51016  0.52031  0.62866  1.0000
  H   H2327     1.0  0.87497  0.97332  0.68205  1.0000
  C   C1366     1.0  0.75578  0.94835  0.67239  1.0000
  H   H2328     1.0  0.52863  0.75399  0.65468  1.0000
  C   C1367     1.0  0.66224  0.49129  0.60731  1.0000
  C   C1368     1.0  0.61811  0.90049  0.73905  1.0000
  H   H2329     1.0  0.80001  0.95091  0.62775  1.0000
  H   H2330     1.0  0.51492  0.51527  0.61268  1.0000
  C   C1369     1.0  0.60947  0.49450  0.60710  1.0000
  Fe  Fe198     1.0  0.55389  0.78109  0.72166  1.0000
  C   C1370     1.0  0.55587  0.57839  0.59881  1.0000
  S   S392      1.0  0.55796  0.74308  0.72181  1.0000
  H   H2331     1.0  0.64965  0.52302  0.61732  1.0000
  H   H2332     1.0  0.49929  0.61761  0.73661  1.0000
  S   S393      1.0  0.61142  0.83716  0.71398  1.0000
  C   C1371     1.0  0.52042  0.60545  0.59691  1.0000
  C   C1372     1.0  0.51721  0.59672  0.57966  1.0000
  C   C1373     1.0  0.53304  0.57849  0.57233  1.0000
  S   S394      1.0  0.49947  0.62695  0.60708  1.0000
  H   H2333     1.0  0.50236  0.60394  0.57208  1.0000
  H   H2334     1.0  0.53044  0.57181  0.55905  1.0000
  S   S395      1.0  0.57184  0.54569  0.57375  1.0000
  C   C1374     1.0  0.92571  0.94110  0.69604  1.0000
  H   H2335     1.0  0.85693  0.95662  0.71976  1.0000
  H   H2336     1.0  0.64357  0.51216  0.50963  1.0000
  H   H2337     1.0  0.85946  0.97978  0.54794  1.0000
  H   H2338     1.0  0.75640  0.95960  0.70152  1.0000
  H   H2339     1.0  0.54417  0.91243  0.71655  1.0000
  S   S396      1.0  0.66697  0.96403  0.71031  1.0000
  C   C1375     1.0  0.80017  0.96342  0.65628  1.0000
  H   H2340     1.0  0.66987  0.49957  0.49341  1.0000
  Fe  Fe199     1.0  0.57675  0.82367  0.71955  1.0000
  H   H2341     1.0  0.90416  0.91355  0.69835  1.0000
  H   H2342     1.0  0.61261  0.65679  0.68276  1.0000
  C   C1376     1.0  0.53993  0.59645  0.60628  1.0000
  S   S397      1.0  0.72777  0.93924  0.68100  1.0000
  S   S398      1.0  0.52819  0.53218  0.53887  1.0000
  H   H2343     1.0  0.93716  0.95398  0.65455  1.0000
  C   C1377     1.0  0.60951  0.54597  0.63347  1.0000
  Fe  Fe200     1.0  0.70338  0.94599  0.71198  1.0000
  H   H2344     1.0  0.62597  0.55323  0.62523  1.0000
  C   C1378     1.0  0.92035  0.96687  0.52946  1.0000
  H   H2345     1.0  0.49450  0.55651  0.58686  1.0000
  C   C1379     1.0  0.78788  0.96571  0.67722  1.0000
  C   C1380     1.0  0.93730  0.91537  0.49306  1.0000
  H   H2346     1.0  0.63025  0.50066  0.65093  1.0000
  C   C1381     1.0  0.63405  0.87216  0.71631  1.0000
  S   S399      1.0  0.98191  0.97175  0.54941  1.0000
  C   C1382     1.0  0.90450  0.96229  0.51851  1.0000
  C   C1383     1.0  0.99045  0.94978  0.65222  1.0000
  H   H2347     1.0  0.49520  0.54852  0.64414  1.0000
  H   H2348     1.0  0.66632  0.48289  0.62344  1.0000
  Fe  Fe201     1.0  0.97647  0.93581  0.60781  1.0000
  C   C1384     1.0  0.53930  0.92617  0.72629  1.0000
  S   S400      1.0  0.56638  0.80955  0.69424  1.0000
  H   H2349     1.0  0.56488  0.51180  0.70420  1.0000
  H   H2350     1.0  0.50917  0.56372  0.69406  1.0000
  H   H2351     1.0  0.67861  0.49747  0.59697  1.0000
  H   H2352     1.0  0.59559  0.56097  0.63415  1.0000
  C   C1385     1.0  0.60325  0.52986  0.62082  1.0000
  H   H2353     1.0  0.56182  0.70421  0.61953  1.0000
  H   H2354     1.0  0.88689  0.95175  0.65056  1.0000
  H   H2355     1.0  0.93337  0.91009  0.68191  1.0000
  C   C1386     1.0  0.79048  0.95310  0.64376  1.0000
  H   H2356     1.0  0.89549  0.48628  0.59989  1.0000
  Fe  Fe202     1.0  0.51670  0.49877  0.55919  1.0000
  H   H2357     1.0  0.64364  0.69665  0.65706  1.0000
  Fe  Fe203     1.0  0.53096  0.82869  0.70488  1.0000
  H   H2358     1.0  0.61018  0.53749  0.65054  1.0000
  H   H2359     1.0  0.50972  0.95167  0.73305  1.0000
  H   H2360     1.0  0.62496  0.66859  0.63185  1.0000
  H   H2361     1.0  0.54279  0.60361  0.61912  1.0000
  S   S401      1.0  0.55129  0.50131  0.66777  1.0000
  H   H2362     1.0  0.96525  0.87723  0.53129  1.0000
  C   C1387     1.0  0.90542  0.94427  0.65069  1.0000
  H   H2363     1.0  0.64640  0.66520  0.66293  1.0000
  H   H2364     1.0  0.58480  0.52724  0.62837  1.0000
  H   H2365     1.0  0.65314  0.89799  0.71995  1.0000
  H   H2366     1.0  0.95554  0.92935  0.52726  1.0000
  S   S402      1.0  0.82792  0.97260  0.64534  1.0000
  H   H2367     1.0  0.60053  0.49721  0.65356  1.0000
  S   S403      1.0  0.51763  0.79921  0.73028  1.0000
  C   C1388     1.0  0.64384  0.68110  0.65055  1.0000
  C   C1389     1.0  0.64303  0.51212  0.60898  1.0000
  C   C1390     1.0  0.55225  0.56909  0.58207  1.0000
  H   H2368     1.0  0.94455  0.94217  0.68922  1.0000
  H   H2369     1.0  0.91402  0.94359  0.63358  1.0000
  C   C1391     1.0  0.91802  0.95950  0.65927  1.0000
  C   C1392     1.0  0.87569  0.95917  0.71569  1.0000
  N   N98       1.0  0.59883  0.68209  0.65696  1.0000
  C   C1393     1.0  0.58020  0.68309  0.64420  1.0000
  C   C1394     1.0  0.59917  0.65925  0.67282  1.0000
  C   C1395     1.0  0.62195  0.68273  0.64107  1.0000
  C   C1396     1.0  0.59326  0.70263  0.66785  1.0000
  C   C1397     1.0  0.57761  0.70450  0.62590  1.0000
  C   C1398     1.0  0.57591  0.65491  0.68891  1.0000
  C   C1399     1.0  0.60312  0.70044  0.68850  1.0000
  H   H2370     1.0  0.66274  0.48918  0.52195  1.0000
  H   H2371     1.0  0.56264  0.68286  0.65507  1.0000
  H   H2372     1.0  0.60417  0.64474  0.66391  1.0000
  H   H2373     1.0  0.62195  0.69910  0.62878  1.0000
  H   H2374     1.0  0.59895  0.71836  0.65613  1.0000
  H   H2375     1.0  0.57405  0.70669  0.67288  1.0000
  H   H2376     1.0  0.76097  0.93802  0.64173  1.0000
  H   H2377     1.0  0.59257  0.70443  0.61191  1.0000
  H   H2378     1.0  0.87990  0.94314  0.68864  1.0000
  H   H2379     1.0  0.56812  0.66964  0.69692  1.0000
  H   H2380     1.0  0.56304  0.65080  0.68082  1.0000
  H   H2381     1.0  0.57909  0.63957  0.70182  1.0000
  H   H2382     1.0  0.60717  0.71763  0.68899  1.0000
  H   H2383     1.0  0.61927  0.68828  0.68971  1.0000
  H   H2384     1.0  0.58952  0.69619  0.70337  1.0000
  H   H2385     1.0  0.57487  0.72084  0.63183  1.0000
  N   N99       1.0  0.97815  0.91580  0.50036  1.0000
  C   C1400     1.0  0.49733  0.54506  0.62766  1.0000
  H   H2386     1.0  0.84143  0.97154  0.57407  1.0000
  C   C1401     1.0  0.98649  0.91501  0.67981  1.0000
  H   H2387     1.0  0.64631  0.48278  0.56531  1.0000
  H   H2388     1.0  0.54845  0.94101  0.71663  1.0000
  H   H2389     1.0  0.98181  0.89771  0.68514  1.0000
  H   H2390     1.0  0.96352  0.88603  0.49760  1.0000
  H   H2391     1.0  0.51747  0.49547  0.49691  1.0000
  C   C1402     1.0  0.51256  0.93370  0.73050  1.0000
  H   H2392     1.0  0.50797  0.58720  0.71578  1.0000
  H   H2393     1.0  0.52370  0.54990  0.73111  1.0000
  C   C1403     1.0  0.63667  0.89099  0.72459  1.0000
  H   H2394     1.0  0.95315  0.97689  0.68809  1.0000
  C   C1404     1.0  0.58402  0.48922  0.61563  1.0000
  H   H2395     1.0  0.51137  0.53334  0.70581  1.0000
  H   H2396     1.0  0.52694  0.51938  0.63373  1.0000
  H   H2397     1.0  0.91491  0.97712  0.64922  1.0000
  H   H2398     1.0  0.96588  0.88848  0.55405  1.0000
  S   S404      1.0  0.55342  0.87237  0.83433  1.0000
  C   C1405     1.0  0.62270  0.96464  0.82235  1.0000
  H   H2399     1.0  0.54902  0.93968  0.91512  1.0000
  H   H2400     1.0  0.54455  0.95434  0.93658  1.0000
  C   C1406     1.0  0.62533  0.91913  0.80836  1.0000
  H   H2401     1.0  0.64595  0.89520  0.83081  1.0000
  H   H2402     1.0  0.62095  0.90502  0.80221  1.0000
  H   H2403     1.0  0.55949  0.87170  0.78908  1.0000
  H   H2404     1.0  0.50642  0.95912  0.94124  1.0000
  C   C1407     1.0  0.63319  0.80780  0.80500  1.0000
  H   H2405     1.0  0.68432  0.95224  0.99009  1.0000
  N   N100      1.0  0.49832  0.91832  0.74887  1.0000
  C   C1408     1.0  0.70209  0.92345  0.95868  1.0000
  C   C1409     1.0  0.60585  0.84030  0.79156  1.0000
  H   H2406     1.0  0.71324  0.93310  0.94420  1.0000
  H   H2407     1.0  0.57242  0.95113  0.82300  1.0000
  C   C1410     1.0  0.53095  0.97320  0.87864  1.0000
  H   H2408     1.0  0.52316  0.88800  0.74359  1.0000
  H   H2409     1.0  0.55878  0.92266  0.85041  1.0000
  H   H2410     1.0  0.65566  0.92337  0.82093  1.0000
  H   H2411     1.0  0.59191  0.89495  0.83225  1.0000
  H   H2412     1.0  0.73519  0.91535  0.82476  1.0000
  C   C1411     1.0  0.55203  0.89627  0.93847  1.0000
  C   C1412     1.0  0.69830  0.95441  0.85138  1.0000
  H   H2413     1.0  0.52436  0.87459  0.94321  1.0000
  H   H2414     1.0  0.59256  0.83453  0.80629  1.0000
  H   H2415     1.0  0.60924  0.89793  0.84992  1.0000
  C   C1413     1.0  0.57433  0.92803  0.80168  1.0000
  C   C1414     1.0  0.57873  0.93555  0.93005  1.0000
  H   H2416     1.0  0.66161  0.90323  0.80354  1.0000
  C   C1415     1.0  0.70725  0.93864  0.81223  1.0000
  C   C1416     1.0  0.49970  0.94307  0.95103  1.0000
  H   H2417     1.0  0.67018  0.97776  0.83908  1.0000
  Fe  Fe204     1.0  0.69576  0.94286  0.76043  1.0000
  H   H2418     1.0  0.65296  0.95895  0.94680  1.0000
  H   H2419     1.0  0.64886  0.77398  0.81955  1.0000
  S   S405      1.0  0.71357  0.92735  0.78850  1.0000
  Fe  Fe205     1.0  0.50119  0.92971  0.87694  1.0000
  H   H2420     1.0  0.59410  0.95545  0.79902  1.0000
  C   C1417     1.0  0.64238  0.82972  0.76705  1.0000
  C   C1418     1.0  0.71670  0.93699  0.84716  1.0000
  H   H2421     1.0  0.56788  0.89652  0.86765  1.0000
  H   H2422     1.0  0.57709  0.92257  0.86925  1.0000
  S   S406      1.0  0.62521  0.97461  0.89153  1.0000
  C   C1419     1.0  0.72102  0.92903  0.82777  1.0000
  S   S407      1.0  0.51267  0.81344  0.78657  1.0000
  C   C1420     1.0  0.61025  0.80531  0.77772  1.0000
  C   C1421     1.0  0.50822  0.54795  0.74465  1.0000
  C   C1422     1.0  0.68895  0.95640  0.81617  1.0000
  H   H2423     1.0  0.53184  0.96708  0.84694  1.0000
  C   C1423     1.0  0.59681  0.89128  0.74490  1.0000
  H   H2424     1.0  0.66805  0.78857  0.79634  1.0000
  H   H2425     1.0  0.65537  0.83608  0.77346  1.0000
  C   C1424     1.0  0.53963  0.84554  0.78769  1.0000
  H   H2426     1.0  0.51836  0.90473  0.77439  1.0000
  H   H2427     1.0  0.66408  0.79705  0.76031  1.0000
  H   H2428     1.0  0.52304  0.83729  0.85047  1.0000
  H   H2429     1.0  0.66356  0.90483  0.97520  1.0000
  Fe  Fe206     1.0  0.52176  0.89032  0.85333  1.0000
  C   C1425     1.0  0.59570  0.90756  0.84067  1.0000
  H   H2430     1.0  0.61915  0.80443  0.81975  1.0000
  C   C1426     1.0  0.50333  0.91806  0.77083  1.0000
  H   H2431     1.0  0.50605  0.90674  0.95572  1.0000
  H   H2432     1.0  0.51269  0.55398  0.75800  1.0000
  C   C1427     1.0  0.53970  0.97510  0.85632  1.0000
  H   H2433     1.0  0.55284  0.89886  0.92064  1.0000
  C   C1428     1.0  0.50939  0.94060  0.77444  1.0000
  C   C1429     1.0  0.65622  0.81363  0.75169  1.0000
  C   C1430     1.0  0.64823  0.90975  0.81673  1.0000
  C   C1431     1.0  0.49618  0.59983  0.74522  1.0000
  S   S408      1.0  0.60189  0.97447  0.95249  1.0000
  C   C1432     1.0  0.54258  0.85573  0.82100  1.0000
  C   C1433     1.0  0.59035  0.79441  0.79500  1.0000
  H   H2434     1.0  0.50979  0.93851  0.79190  1.0000
  C   C1434     1.0  0.52753  0.83974  0.83294  1.0000
  S   S409      1.0  0.65931  0.96130  0.76277  1.0000
  H   H2435     1.0  0.62446  0.85431  0.81063  1.0000
  H   H2436     1.0  0.72761  0.92951  0.85897  1.0000
  H   H2437     1.0  0.63492  0.84506  0.75626  1.0000
  C   C1435     1.0  0.57363  0.91305  0.85780  1.0000
  C   C1436     1.0  0.51836  0.82680  0.82224  1.0000
  H   H2438     1.0  0.49408  0.51851  0.76861  1.0000
  N   N101      1.0  0.67838  0.93709  0.96448  1.0000
  H   H2439     1.0  0.59596  0.84820  0.77840  1.0000
  C   C1437     1.0  0.52444  0.82966  0.79963  1.0000
  H   H2440     1.0  0.49691  0.94265  0.96868  1.0000
  H   H2441     1.0  0.64351  0.81906  0.80945  1.0000
  C   C1438     1.0  0.61583  0.86005  0.79648  1.0000
  C   C1439     1.0  0.66320  0.92869  0.93289  1.0000
  S   S410      1.0  0.51663  0.89324  0.88799  1.0000
  H   H2442     1.0  0.55899  0.94078  0.97839  1.0000
  C   C1440     1.0  0.54841  0.85884  0.79836  1.0000
  H   H2443     1.0  0.59658  0.78382  0.80955  1.0000
  H   H2444     1.0  0.54433  0.84786  0.77026  1.0000
  S   S411      1.0  0.50838  0.95675  0.89243  1.0000
  C   C1441     1.0  0.66917  0.94655  0.94379  1.0000
  H   H2445     1.0  0.53101  0.95255  0.97086  1.0000
  H   H2446     1.0  0.56359  0.94027  0.79090  1.0000
  H   H2447     1.0  0.58315  0.78266  0.78802  1.0000
  N   N102      1.0  0.60483  0.92796  0.82448  1.0000
  Fe  Fe207     1.0  0.53231  0.81371  0.75238  1.0000
  S   S412      1.0  0.69395  0.96399  0.87584  1.0000
  H   H2448     1.0  0.58376  0.93073  0.94613  1.0000
  H   H2449     1.0  0.65731  0.93794  0.91768  1.0000
  S   S413      1.0  0.56767  0.79319  0.74607  1.0000
  C   C1442     1.0  0.68431  0.96415  0.83592  1.0000
  N   N103      1.0  0.62332  0.82023  0.78531  1.0000
  C   C1443     1.0  0.54051  0.87422  0.94922  1.0000
  H   H2450     1.0  0.54605  0.91991  0.74151  1.0000
  H   H2451     1.0  0.63279  0.97092  0.83178  1.0000
  H   H2452     1.0  0.52889  0.90473  0.98111  1.0000
  C   C1444     1.0  0.58643  0.94176  0.81229  1.0000
  H   H2453     1.0  0.62942  0.93253  0.79351  1.0000
  H   H2454     1.0  0.55966  0.90463  0.97260  1.0000
  C   C1445     1.0  0.55207  0.93764  0.93186  1.0000
  H   H2455     1.0  0.56220  0.91737  0.81403  1.0000
  C   C1446     1.0  0.54118  0.93704  0.97880  1.0000
  H   H2456     1.0  0.62367  0.93369  0.84768  1.0000
  H   H2457     1.0  0.51355  0.92061  0.92822  1.0000
  H   H2458     1.0  0.60098  0.87344  0.80067  1.0000
  C   C1447     1.0  0.51500  0.92113  0.94496  1.0000
  C   C1448     1.0  0.54254  0.91486  0.97009  1.0000
  N   N104      1.0  0.54034  0.91788  0.94674  1.0000
  C   C1449     1.0  0.64968  0.78514  0.80313  1.0000
  H   H2459     1.0  0.58690  0.91701  0.79153  1.0000
  H   H2460     1.0  0.55263  0.85901  0.94463  1.0000
  H   H2461     1.0  0.57048  0.89209  0.94067  1.0000
  C   C1450     1.0  0.67947  0.95745  0.97394  1.0000
  C   C1451     1.0  0.61186  0.94334  0.83655  1.0000
  H   H2462     1.0  0.53653  0.87149  0.96718  1.0000
  H   H2463     1.0  0.52699  0.94435  0.76512  1.0000
  H   H2464     1.0  0.58461  0.95254  0.92193  1.0000
  H   H2465     1.0  0.62791  0.86862  0.78219  1.0000
  H   H2466     1.0  0.57554  0.80753  0.79980  1.0000
  H   H2467     1.0  0.67842  0.96399  0.80410  1.0000
  H   H2468     1.0  0.70033  0.90775  0.95320  1.0000
  H   H2469     1.0  0.64290  0.92965  0.97868  1.0000
  H   H2470     1.0  0.62195  0.79087  0.77130  1.0000
  H   H2471     1.0  0.66181  0.96742  0.97706  1.0000
  H   H2472     1.0  0.71298  0.89727  0.98573  1.0000
  H   H2473     1.0  0.59636  0.95043  0.84768  1.0000
  H   H2474     1.0  0.58830  0.92304  0.91982  1.0000
  H   H2475     1.0  0.63538  0.96085  0.80774  1.0000
  S   S414      1.0  0.51009  0.92772  0.84176  1.0000
  C   C1452     1.0  0.50421  0.89417  0.74446  1.0000
  H   H2476     1.0  0.60253  0.81550  0.76365  1.0000
  H   H2477     1.0  0.58244  0.89849  0.75616  1.0000
  H   H2478     1.0  0.67862  0.91620  0.92810  1.0000
  H   H2479     1.0  0.64463  0.77466  0.79344  1.0000
  H   H2480     1.0  0.49769  0.85856  0.75685  1.0000
  S   S415      1.0  0.62119  0.92316  0.75087  1.0000
  H   H2481     1.0  0.64855  0.91951  0.94320  1.0000
  H   H2482     1.0  0.73549  0.91386  0.96903  1.0000
  H   H2483     1.0  0.50680  0.81439  0.83153  1.0000
  H   H2484     1.0  0.51202  0.59184  0.75186  1.0000
  C   C1453     1.0  0.71657  0.91479  0.97663  1.0000
  H   H2485     1.0  0.71400  0.92635  0.98821  1.0000
  C   C1454     1.0  0.66124  0.92191  0.97984  1.0000
  C   C1455     1.0  0.50672  0.52197  0.75296  1.0000
  H   H2486     1.0  0.52411  0.51305  0.75591  1.0000
  H   H2487     1.0  0.97936  0.48754  0.78669  1.0000
  H   H2488     1.0  0.68196  0.95642  0.93115  1.0000
  C   C1456     1.0  0.69626  0.97455  0.95996  1.0000
  H   H2489     1.0  0.49664  0.87382  0.77762  1.0000
  H   H2490     1.0  0.60891  0.97856  0.81725  1.0000
  H   H2491     1.0  0.71452  0.96606  0.95620  1.0000
  H   H2492     1.0  0.49642  0.95574  0.77058  1.0000
  H   H2493     1.0  0.57788  0.86524  0.74150  1.0000
  Fe  Fe208     1.0  0.65526  0.93870  0.74095  1.0000
  H   H2494     1.0  0.64512  0.81043  0.74131  1.0000
  S   S416      1.0  0.69098  0.91856  0.74067  1.0000
  H   H2495     1.0  0.67073  0.82235  0.74042  1.0000
  H   H2496     1.0  0.50215  0.51395  0.74103  1.0000
