data_image0
_chemical_formula_structural       S4FeS2FeS2FeSFeS3HC2H2C4HC2HC6H4C2NC8H20NC7H15NC5HSH11FeC3H5CHFeCH9CH4C2HFeH2CH2C3HCH2CH2C2SH3FeS2HFeHS2FeHSH4SH2CHC7H4CH2CHC2H2CFeH4C2H4CH2CHCH4C3SH2CHCH10CHNSH2NFeS2C2H2NC3FeS2FeS2FeSFeS3FeS2FeSFeSFeS3HC6H4CHCHCH2CHCHCH5CHCH2C2HCH3NC2H2CH4CHC3H4C2H3C2HCHCHC2H8NCH3NH4CHCH2CHCHCH3C2H5C2HSH2CHC3H4NH8CH3C2H2C2H6CH2C2HCH2S4FeS2FeS2FeSFeS3C2HC6HC3H2C6H4CNC5H12NC8H22CHNH4CHC2H2CH2C2HCH5C2HCHCHFeCHSH5C2HFeH4CHCH3CSH2CHCFeSFeSHFeSHSFeS2H7CH2C6H5NC2HCHCHCH4C2H2CH5CHCHCHNC4HC2H6CH13S2C2NH3C2SHSC2H3CH3CH6SFeH2SHFeS2FeS2H2CHS2CHFeHC8H7NCHC3HC2HCNH4CH2CH11SHCHC2SHCH7CH2CHC2FeH2CH4FeHCSH2C2H3SHFeS2HCFeS2FeS2FeSFeS3H2CHC3H2C6H2CH2C2HC6H8CHC3HCH4CHC2H2FeCH2C2H8CHCHNC3HC3H7CH2SFeH4NCH2C3HC2HCH4CHC2H3CSH3NH3CH5NHCSH2C2H7CH3CH2C2H2CHC2H2CH3CH2C2H4CH12CH2C2NCHCFeSHFeS2FeHFeS3FeS2FeSHFeHFeHS2HC3HCH2SHCH3NC7H6CHCSHSHC2HCHCHCHCH2CNCH3CH5C2H2C4H3CH3SH7CSHC2H3CHSFeHFeS2FeS2HFeCNS2H5C6H4CH2CHCHCHCHCH5CH3CHCH6CH2C2H2SH3SH3NC8H4FeH3CSHC3HCH2NHCH3CFeH2SHFeS2FeS2FeSFeS3FeS2HSHCHCH2C7H2CHCHC7H6FeCHC2HSCH2C2HCH4NCH2C3HCH2CHCH8C3H4NC4HCHCH8CH7C2H2NCHC2H2CHFeH6CH2CH5CH2C5HCNH
_chemical_formula_sum              "S128 Fe64 H768 C448 N32"
_cell_length_a       30.8318
_cell_length_b       60.6999
_cell_length_c       41.5144
_cell_angle_alpha    90.1164
_cell_angle_beta     106.972
_cell_angle_gamma    89.8942

_space_group_name_H-M_alt    "P 1"
_space_group_IT_number       1

loop_
  _space_group_symop_operation_xyz
  'x, y, z'

loop_
  _atom_site_type_symbol
  _atom_site_label
  _atom_site_symmetry_multiplicity
  _atom_site_fract_x
  _atom_site_fract_y
  _atom_site_fract_z
  _atom_site_occupancy
  S   S1        1.0  0.41118  0.17698  0.10764  1.0000
  S   S2        1.0  0.43840  0.23819  0.11935  1.0000
  S   S3        1.0  0.03347  0.23740  0.33433  1.0000
  S   S4        1.0  0.04214  0.28686  0.27335  1.0000
  Fe  Fe1       1.0  0.11996  0.10035  0.07839  1.0000
  S   S5        1.0  0.07500  0.09060  0.10987  1.0000
  S   S6        1.0  0.10071  0.09442  0.02185  1.0000
  Fe  Fe2       1.0  0.20035  0.11142  0.13992  1.0000
  S   S7        1.0  0.16066  0.10194  0.17573  1.0000
  S   S8        1.0  0.27373  0.12199  0.16566  1.0000
  Fe  Fe3       1.0  0.13652  0.07242  0.14171  1.0000
  S   S9        1.0  0.13266  0.03806  0.16405  1.0000
  Fe  Fe4       1.0  0.10286  0.12081  0.14118  1.0000
  S   S10       1.0  0.05726  0.14735  0.15416  1.0000
  S   S11       1.0  0.18011  0.08068  0.10865  1.0000
  S   S12       1.0  0.14384  0.13184  0.10693  1.0000
  H   H1        1.0  0.02119  0.06704  0.03273  1.0000
  C   C1        1.0  0.14280  0.01110  0.15022  1.0000
  C   C2        1.0  0.15838  0.00765  0.12213  1.0000
  H   H2        1.0  0.36845  0.00777  0.18771  1.0000
  H   H3        1.0  0.16331  0.02160  0.10744  1.0000
  C   C3        1.0  0.03297  0.17125  0.25338  1.0000
  C   C4        1.0  0.06584  0.15498  0.25407  1.0000
  C   C5        1.0  0.07356  0.14730  0.22405  1.0000
  C   C6        1.0  0.04817  0.15570  0.19286  1.0000
  H   H4        1.0  0.09902  0.13482  0.22502  1.0000
  C   C7        1.0  0.12361  0.29147  0.32451  1.0000
  C   C8        1.0  0.09636  0.29851  0.29301  1.0000
  H   H5        1.0  0.11281  0.27777  0.33687  1.0000
  C   C9        1.0  0.37327  0.16207  0.12455  1.0000
  C   C10       1.0  0.33010  0.15648  0.10326  1.0000
  C   C11       1.0  0.29897  0.14451  0.11546  1.0000
  C   C12       1.0  0.31095  0.13769  0.14907  1.0000
  C   C13       1.0  0.35421  0.14320  0.17036  1.0000
  C   C14       1.0  0.38525  0.15528  0.15822  1.0000
  H   H6        1.0  0.32067  0.16141  0.07709  1.0000
  H   H7        1.0  0.26597  0.14029  0.09871  1.0000
  H   H8        1.0  0.36392  0.13795  0.19638  1.0000
  H   H9        1.0  0.41853  0.15919  0.17478  1.0000
  C   C15       1.0  0.41958  0.28404  0.21583  1.0000
  C   C16       1.0  0.40027  0.28572  0.24252  1.0000
  N   N1        1.0  0.31401  0.22525  0.15582  1.0000
  C   C17       1.0  0.28002  0.22266  0.17531  1.0000
  C   C18       1.0  0.33505  0.24782  0.16273  1.0000
  C   C19       1.0  0.35115  0.20832  0.16646  1.0000
  C   C20       1.0  0.28987  0.22203  0.11888  1.0000
  C   C21       1.0  0.25883  0.19948  0.17432  1.0000
  C   C22       1.0  0.30298  0.26747  0.14958  1.0000
  C   C23       1.0  0.37582  0.20698  0.20454  1.0000
  C   C24       1.0  0.31824  0.22647  0.09451  1.0000
  H   H10       1.0  0.29521  0.22732  0.20221  1.0000
  H   H11       1.0  0.25106  0.23418  0.16565  1.0000
  H   H12       1.0  0.36449  0.24940  0.15248  1.0000
  H   H13       1.0  0.34943  0.25057  0.19029  1.0000
  H   H14       1.0  0.33757  0.19173  0.15807  1.0000
  H   H15       1.0  0.37802  0.21126  0.15398  1.0000
  H   H16       1.0  0.27770  0.20475  0.11378  1.0000
  H   H17       1.0  0.25893  0.23251  0.11088  1.0000
  H   H18       1.0  0.23838  0.19476  0.14854  1.0000
  H   H19       1.0  0.28438  0.18647  0.18463  1.0000
  H   H20       1.0  0.23540  0.19954  0.19017  1.0000
  H   H21       1.0  0.28850  0.26728  0.12182  1.0000
  H   H22       1.0  0.27542  0.26842  0.16170  1.0000
  H   H23       1.0  0.32274  0.28298  0.15611  1.0000
  H   H24       1.0  0.40277  0.19422  0.20867  1.0000
  H   H25       1.0  0.35299  0.20196  0.21943  1.0000
  H   H26       1.0  0.39304  0.22260  0.21456  1.0000
  H   H27       1.0  0.33021  0.24374  0.09569  1.0000
  H   H28       1.0  0.29688  0.22346  0.06828  1.0000
  H   H29       1.0  0.34761  0.21515  0.09898  1.0000
  N   N2        1.0  0.12014  0.22983  0.24253  1.0000
  C   C25       1.0  0.16858  0.23777  0.25397  1.0000
  C   C26       1.0  0.11955  0.20764  0.22590  1.0000
  C   C27       1.0  0.10089  0.22737  0.27177  1.0000
  C   C28       1.0  0.09195  0.24653  0.21855  1.0000
  C   C29       1.0  0.17756  0.25883  0.27585  1.0000
  C   C30       1.0  0.12553  0.20783  0.19031  1.0000
  C   C31       1.0  0.12761  0.21191  0.30014  1.0000
  H   H30       1.0  0.19163  0.22475  0.26839  1.0000
  H   H31       1.0  0.18102  0.24122  0.23189  1.0000
  H   H32       1.0  0.08782  0.19862  0.22420  1.0000
  H   H33       1.0  0.14652  0.19667  0.24153  1.0000
  H   H34       1.0  0.09726  0.24365  0.28309  1.0000
  H   H35       1.0  0.06569  0.22075  0.26310  1.0000
  H   H36       1.0  0.09189  0.26258  0.23152  1.0000
  H   H37       1.0  0.15911  0.27334  0.26234  1.0000
  H   H38       1.0  0.38600  0.09112  0.22335  1.0000
  H   H39       1.0  0.09552  0.21504  0.17160  1.0000
  H   H40       1.0  0.15666  0.21661  0.18957  1.0000
  H   H41       1.0  0.12823  0.19475  0.29103  1.0000
  H   H42       1.0  0.11022  0.21130  0.32008  1.0000
  H   H43       1.0  0.16260  0.21776  0.31221  1.0000
  H   H44       1.0  0.21424  0.26289  0.28250  1.0000
  N   N3        1.0  0.29892  0.05331  0.18561  1.0000
  C   C32       1.0  0.25096  0.05362  0.18800  1.0000
  C   C33       1.0  0.29651  0.05892  0.14970  1.0000
  C   C34       1.0  0.32557  0.07063  0.20957  1.0000
  C   C35       1.0  0.31813  0.03064  0.19557  1.0000
  C   C36       1.0  0.24555  0.05044  0.22356  1.0000
  H   H45       1.0  0.03411  0.22280  0.20282  1.0000
  S   S13       1.0  0.45192  0.26022  0.21353  1.0000
  H   H46       1.0  0.23410  0.06950  0.17827  1.0000
  H   H47       1.0  0.23004  0.04051  0.17213  1.0000
  H   H48       1.0  0.33048  0.06130  0.14629  1.0000
  H   H49       1.0  0.27931  0.07512  0.14261  1.0000
  H   H50       1.0  0.30365  0.08511  0.21054  1.0000
  H   H51       1.0  0.33699  0.06418  0.23580  1.0000
  H   H52       1.0  0.32131  0.02746  0.22254  1.0000
  H   H53       1.0  0.29434  0.01750  0.18222  1.0000
  H   H54       1.0  0.20910  0.05229  0.22194  1.0000
  H   H55       1.0  0.25557  0.03365  0.23340  1.0000
  H   H56       1.0  0.26400  0.06303  0.24177  1.0000
  Fe  Fe5       1.0  0.00189  0.26144  0.29353  1.0000
  C   C37       1.0  0.37650  0.30480  0.24687  1.0000
  C   C38       1.0  0.02212  0.11915  0.00611  1.0000
  C   C39       1.0  0.46951  0.30253  0.36072  1.0000
  H   H57       1.0  0.40413  0.27227  0.26018  1.0000
  H   H58       1.0  0.08553  0.14826  0.27800  1.0000
  H   H59       1.0  0.16950  0.25658  0.29995  1.0000
  H   H60       1.0  0.12827  0.19053  0.18218  1.0000
  H   H61       1.0  0.10703  0.25059  0.19797  1.0000
  C   C40       1.0  0.01505  0.17187  0.19219  1.0000
  H   H62       1.0  0.37145  0.03350  0.16929  1.0000
  Fe  Fe6       1.0  0.46384  0.20350  0.13089  1.0000
  C   C41       1.0  0.41384  0.30142  0.19290  1.0000
  H   H63       1.0  0.39181  0.06777  0.19870  1.0000
  H   H64       1.0  0.18429  0.29768  0.36547  1.0000
  H   H65       1.0  0.42837  0.30032  0.17217  1.0000
  H   H66       1.0  0.43585  0.30007  0.36491  1.0000
  H   H67       1.0  0.44096  0.30482  0.30711  1.0000
  H   H68       1.0  0.00788  0.29589  0.37262  1.0000
  H   H69       1.0  0.07689  0.29043  0.42309  1.0000
  H   H70       1.0  0.29010  0.02568  0.12682  1.0000
  H   H71       1.0  0.35769  0.09125  0.17942  1.0000
  C   C42       1.0  0.46268  0.31523  0.32740  1.0000
  H   H72       1.0  0.02017  0.24926  0.21632  1.0000
  H   H73       1.0  0.03018  0.24586  0.17598  1.0000
  H   H74       1.0  0.23647  0.03961  0.12134  1.0000
  H   H75       1.0  0.07129  0.27042  0.39092  1.0000
  C   C43       1.0  0.27258  0.04185  0.12280  1.0000
  C   C44       1.0  0.36542  0.02576  0.19166  1.0000
  H   H76       1.0  0.39255  0.03077  0.21460  1.0000
  Fe  Fe7       1.0  0.47972  0.24621  0.17226  1.0000
  H   H77       1.0  0.36193  0.30591  0.26757  1.0000
  H   H78       1.0  0.47189  0.31777  0.26587  1.0000
  C   C45       1.0  0.36767  0.08043  0.20197  1.0000
  H   H79       1.0  0.48716  0.27601  0.30504  1.0000
  H   H80       1.0  0.03250  0.12454  0.03212  1.0000
  C   C46       1.0  0.07798  0.28816  0.39683  1.0000
  C   C47       1.0  0.16433  0.30268  0.34054  1.0000
  C   C48       1.0  0.00746  0.17961  0.22220  1.0000
  H   H81       1.0  0.27313  0.04787  0.09766  1.0000
  C   C49       1.0  0.04145  0.30189  0.37121  1.0000
  H   H82       1.0  0.11264  0.29147  0.39531  1.0000
  H   H83       1.0  0.04353  0.29698  0.34590  1.0000
  C   C50       1.0  0.13577  0.99258  0.16850  1.0000
  H   H84       1.0  0.12368  0.99497  0.19024  1.0000
  H   H85       1.0  0.49048  0.31171  0.38287  1.0000
  C   C51       1.0  0.11176  0.31593  0.27691  1.0000
  C   C52       1.0  0.04140  0.24062  0.20276  1.0000
  S   S14       1.0  0.02539  0.18077  0.29202  1.0000
  H   H86       1.0  0.48426  0.28595  0.35991  1.0000
  H   H87       1.0  0.02709  0.31921  0.42165  1.0000
  H   H88       1.0  0.12604  0.26749  0.58022  1.0000
  Fe  Fe8       1.0  0.39311  0.23536  0.78842  1.0000
  S   S15       1.0  0.42581  0.26171  0.82602  1.0000
  S   S16       1.0  0.31476  0.23193  0.77328  1.0000
  H   H89       1.0  0.41971  0.30906  0.81384  1.0000
  Fe  Fe9       1.0  0.47308  0.23578  0.85578  1.0000
  H   H90       1.0  0.07005  0.27158  0.55290  1.0000
  S   S17       1.0  0.44103  0.23977  0.75691  1.0000
  S   S18       1.0  0.43765  0.20907  0.81995  1.0000
  Fe  Fe10      1.0  0.04553  0.25136  0.65817  1.0000
  H   H91       1.0  0.48584  0.26931  0.93550  1.0000
  S   S19       1.0  0.12270  0.25569  0.66576  1.0000
  H   H92       1.0  0.05659  0.08627  0.95192  1.0000
  H   H93       1.0  0.17158  0.20316  0.63896  1.0000
  H   H94       1.0  0.05458  0.11662  0.88553  1.0000
  H   H95       1.0  0.07922  0.17750  0.51058  1.0000
  S   S20       1.0  0.49020  0.22386  0.91086  1.0000
  H   H96       1.0  0.27099  0.28328  0.75233  1.0000
  H   H97       1.0  0.09009  0.22322  0.61585  1.0000
  C   C53       1.0  0.03410  0.15680  0.83131  1.0000
  H   H98       1.0  0.11750  0.17897  0.60742  1.0000
  C   C54       1.0  0.36039  0.29117  0.75232  1.0000
  C   C55       1.0  0.26165  0.23764  0.74220  1.0000
  C   C56       1.0  0.22083  0.23360  0.75003  1.0000
  C   C57       1.0  0.17810  0.23864  0.72699  1.0000
  C   C58       1.0  0.17542  0.24801  0.69566  1.0000
  C   C59       1.0  0.21619  0.25183  0.68765  1.0000
  C   C60       1.0  0.25883  0.24651  0.71050  1.0000
  H   H99       1.0  0.22227  0.22669  0.77432  1.0000
  H   H100      1.0  0.14731  0.23557  0.73372  1.0000
  H   H101      1.0  0.21482  0.25901  0.66357  1.0000
  H   H102      1.0  0.28946  0.24932  0.70360  1.0000
  C   C61       1.0  0.36012  0.28366  0.71684  1.0000
  H   H103      1.0  0.99606  0.17726  0.78829  1.0000
  H   H104      1.0  0.04778  0.21501  0.57905  1.0000
  C   C62       1.0  0.48931  0.25803  0.95624  1.0000
  H   H105      1.0  0.01738  0.11364  0.82546  1.0000
  C   C63       1.0  0.18780  0.20686  0.61898  1.0000
  C   C64       1.0  0.09226  0.25962  0.57043  1.0000
  H   H106      1.0  0.14240  0.20535  0.53421  1.0000
  H   H107      1.0  0.34441  0.27809  0.76374  1.0000
  C   C65       1.0  0.46222  0.14992  0.85847  1.0000
  Fe  Fe11      1.0  0.47564  0.26517  0.79539  1.0000
  H   H108      1.0  0.07942  0.13076  0.92393  1.0000
  H   H109      1.0  0.04420  0.16591  0.90049  1.0000
  H   H110      1.0  0.25637  0.30664  0.77402  1.0000
  H   H111      1.0  0.11422  0.24183  0.53310  1.0000
  C   C66       1.0  0.06627  0.13298  0.89618  1.0000
  C   C67       1.0  0.16110  0.22460  0.59471  1.0000
  H   H112      1.0  0.99795  0.04276  0.98284  1.0000
  H   H113      1.0  0.19320  0.19163  0.60594  1.0000
  H   H114      1.0  0.36160  0.26540  0.71637  1.0000
  H   H115      1.0  0.04621  0.19047  0.53432  1.0000
  C   C68       1.0  0.49145  0.23534  0.95080  1.0000
  H   H116      1.0  0.15900  0.23868  0.61136  1.0000
  H   H117      1.0  0.07752  0.25696  0.59139  1.0000
  C   C69       1.0  0.09483  0.23808  0.55128  1.0000
  H   H118      1.0  0.33373  0.30306  0.80368  1.0000
  C   C70       1.0  0.07389  0.19320  0.52271  1.0000
  H   H119      1.0  0.22553  0.30101  0.73122  1.0000
  H   H120      1.0  0.39637  0.29015  0.76737  1.0000
  H   H121      1.0  0.03819  0.16001  0.78002  1.0000
  H   H122      1.0  0.28547  0.31183  0.70970  1.0000
  C   C71       1.0  0.02800  0.15029  0.88870  1.0000
  C   C72       1.0  0.08385  0.21218  0.59361  1.0000
  C   C73       1.0  0.11881  0.20022  0.54867  1.0000
  S   S21       1.0  0.00076  0.26983  0.61314  1.0000
  H   H123      1.0  0.05950  0.23470  0.53569  1.0000
  H   H124      1.0  0.13452  0.18513  0.56196  1.0000
  C   C74       1.0  0.08633  0.18816  0.60665  1.0000
  H   H125      1.0  0.45888  0.15509  0.88326  1.0000
  C   C75       1.0  0.03556  0.09763  0.96084  1.0000
  H   H126      1.0  0.39023  0.29013  0.71036  1.0000
  H   H127      1.0  0.08436  0.18836  0.63296  1.0000
  H   H128      1.0  0.45224  0.16390  0.84069  1.0000
  H   H129      1.0  0.49106  0.28379  0.99268  1.0000
  H   H130      1.0  0.22196  0.21348  0.63225  1.0000
  H   H131      1.0  0.18270  0.23027  0.57900  1.0000
  H   H132      1.0  0.05621  0.17867  0.59199  1.0000
  H   H133      1.0  0.05702  0.14249  0.83335  1.0000
  H   H134      1.0  0.05755  0.17086  0.84100  1.0000
  H   H135      1.0  0.09545  0.13853  0.88775  1.0000
  C   C76       1.0  0.01172  0.16067  0.79331  1.0000
  H   H136      1.0  0.06259  0.20556  0.50227  1.0000
  N   N4        1.0  0.11459  0.21828  0.57261  1.0000
  S   S22       1.0  0.99924  0.26011  0.68940  1.0000
  H   H137      1.0  0.32864  0.28788  0.69702  1.0000
  H   H138      1.0  0.43753  0.13647  0.84849  1.0000
  N   N5        1.0  0.34181  0.31375  0.75578  1.0000
  Fe  Fe12      1.0  0.48853  0.21578  0.79187  1.0000
  S   S23       1.0  0.01074  0.21870  0.64290  1.0000
  S   S24       1.0  0.48734  0.29972  0.77725  1.0000
  C   C77       1.0  0.25993  0.30067  0.74963  1.0000
  C   C78       1.0  0.49228  0.26620  0.98876  1.0000
  H   H139      1.0  0.00474  0.14532  0.90346  1.0000
  H   H140      1.0  0.00072  0.18974  0.85660  1.0000
  N   N6        1.0  0.00183  0.15407  0.85224  1.0000
  C   C79       1.0  0.29206  0.31549  0.73686  1.0000
  C   C80       1.0  0.04931  0.10445  0.99470  1.0000
  C   C81       1.0  0.34666  0.31752  0.79271  1.0000
  Fe  Fe13      1.0  0.33402  0.35779  0.28050  1.0000
  S   S25       1.0  0.33827  0.33555  0.32438  1.0000
  S   S26       1.0  0.34440  0.34723  0.23040  1.0000
  Fe  Fe14      1.0  0.32251  0.40029  0.32001  1.0000
  S   S27       1.0  0.32453  0.38027  0.36628  1.0000
  S   S28       1.0  0.33984  0.43742  0.32086  1.0000
  Fe  Fe15      1.0  0.38216  0.36164  0.35646  1.0000
  S   S29       1.0  0.45254  0.35543  0.39213  1.0000
  Fe  Fe16      1.0  0.27942  0.35556  0.33057  1.0000
  S   S30       1.0  0.22641  0.33638  0.34842  1.0000
  S   S31       1.0  0.38240  0.38228  0.31202  1.0000
  S   S32       1.0  0.27290  0.37700  0.28468  1.0000
  Fe  Fe17      1.0  0.38547  0.60089  0.36832  1.0000
  S   S33       1.0  0.37347  0.57882  0.32276  1.0000
  S   S34       1.0  0.45682  0.60269  0.40429  1.0000
  Fe  Fe18      1.0  0.28900  0.62043  0.34518  1.0000
  S   S35       1.0  0.27030  0.59927  0.29867  1.0000
  Fe  Fe19      1.0  0.30677  0.57140  0.33221  1.0000
  S   S36       1.0  0.27348  0.53718  0.32920  1.0000
  Fe  Fe20      1.0  0.33890  0.60834  0.29320  1.0000
  S   S37       1.0  0.34358  0.61908  0.24141  1.0000
  S   S38       1.0  0.32064  0.59214  0.37957  1.0000
  S   S39       1.0  0.35581  0.63077  0.33786  1.0000
  H   H141      1.0  0.31915  0.54233  0.27785  1.0000
  C   C82       1.0  0.32046  0.46497  0.32359  1.0000
  C   C83       1.0  0.27659  0.46982  0.32480  1.0000
  C   C84       1.0  0.26320  0.49194  0.32705  1.0000
  C   C85       1.0  0.29345  0.50955  0.32841  1.0000
  C   C86       1.0  0.33760  0.50466  0.32779  1.0000
  C   C87       1.0  0.35084  0.48257  0.32520  1.0000
  H   H142      1.0  0.25281  0.45656  0.32373  1.0000
  H   H143      1.0  0.22896  0.49544  0.32751  1.0000
  H   H144      1.0  0.36147  0.51790  0.32904  1.0000
  H   H145      1.0  0.38494  0.47906  0.32444  1.0000
  C   C88       1.0  0.44008  0.59823  0.46608  1.0000
  H   H146      1.0  0.40531  0.59459  0.45222  1.0000
  C   C89       1.0  0.43212  0.36653  0.45067  1.0000
  H   H147      1.0  0.39691  0.36663  0.43574  1.0000
  C   C90       1.0  0.24225  0.53550  0.16157  1.0000
  H   H148      1.0  0.22321  0.50484  0.21337  1.0000
  H   H149      1.0  0.32134  0.51746  0.25578  1.0000
  C   C91       1.0  0.28599  0.56816  0.22163  1.0000
  H   H150      1.0  0.19741  0.51197  0.24534  1.0000
  C   C92       1.0  0.39129  0.47626  0.42910  1.0000
  H   H151      1.0  0.30088  0.57580  0.24686  1.0000
  C   C93       1.0  0.35219  0.42314  0.43500  1.0000
  H   H152      1.0  0.24045  0.54633  0.25922  1.0000
  H   H153      1.0  0.37373  0.55990  0.24994  1.0000
  H   H154      1.0  0.39464  0.53571  0.27353  1.0000
  H   H155      1.0  0.33655  0.43024  0.40975  1.0000
  H   H156      1.0  0.22075  0.58248  0.22269  1.0000
  C   C94       1.0  0.38997  0.32053  0.19727  1.0000
  H   H157      1.0  0.22256  0.57511  0.18075  1.0000
  C   C95       1.0  0.32705  0.64163  0.45612  1.0000
  H   H158      1.0  0.20803  0.54521  0.21688  1.0000
  H   H159      1.0  0.39947  0.63883  0.47569  1.0000
  C   C96       1.0  0.24244  0.58151  0.20555  1.0000
  C   C97       1.0  0.23897  0.53828  0.23478  1.0000
  H   H160      1.0  0.31028  0.57201  0.20714  1.0000
  C   C98       1.0  0.32125  0.53570  0.25331  1.0000
  H   H161      1.0  0.37602  0.53389  0.22876  1.0000
  H   H162      1.0  0.25204  0.59874  0.20170  1.0000
  H   H163      1.0  0.20923  0.53694  0.16678  1.0000
  N   N7        1.0  0.28125  0.54353  0.22496  1.0000
  C   C99       1.0  0.22896  0.51358  0.23773  1.0000
  C   C100      1.0  0.28262  0.53178  0.19327  1.0000
  H   H164      1.0  0.25584  0.50511  0.25743  1.0000
  H   H165      1.0  0.28746  0.51369  0.19739  1.0000
  C   C101      1.0  0.36872  0.54183  0.25066  1.0000
  H   H166      1.0  0.24788  0.55025  0.14751  1.0000
  H   H167      1.0  0.31311  0.53684  0.18599  1.0000
  H   H168      1.0  0.23859  0.52088  0.14483  1.0000
  H   H169      1.0  0.37357  0.45337  0.38796  1.0000
  C   C102      1.0  0.40231  0.42975  0.45114  1.0000
  H   H170      1.0  0.33139  0.42885  0.45119  1.0000
  C   C103      1.0  0.42169  0.64456  0.26221  1.0000
  C   C104      1.0  0.40471  0.45792  0.40809  1.0000
  C   C105      1.0  0.15714  0.64227  0.33128  1.0000
  H   H171      1.0  0.49304  0.45249  0.43143  1.0000
  H   H172      1.0  0.46909  0.61190  0.15120  1.0000
  H   H173      1.0  0.10312  0.36554  0.39562  1.0000
  H   H174      1.0  0.16350  0.34068  0.28037  1.0000
  C   C106      1.0  0.46450  0.35173  0.27635  1.0000
  C   C107      1.0  0.46583  0.36103  0.43571  1.0000
  H   H175      1.0  0.08197  0.33072  0.42858  1.0000
  H   H176      1.0  0.43225  0.35004  0.28271  1.0000
  H   H177      1.0  0.09118  0.32141  0.25242  1.0000
  C   C108      1.0  0.02645  0.35402  0.41872  1.0000
  C   C109      1.0  0.47212  0.60172  0.44875  1.0000
  H   H178      1.0  0.46661  0.65149  0.15396  1.0000
  C   C110      1.0  0.15291  0.32685  0.29265  1.0000
  H   H179      1.0  0.42684  0.46569  0.39440  1.0000
  C   C111      1.0  0.08726  0.33417  0.36819  1.0000
  H   H180      1.0  0.45528  0.35542  0.24896  1.0000
  C   C112      1.0  0.42776  0.41979  0.40252  1.0000
  C   C113      1.0  0.44402  0.37207  0.48505  1.0000
  H   H181      1.0  0.30120  0.63940  0.43131  1.0000
  H   H182      1.0  0.36383  0.47081  0.43956  1.0000
  H   H183      1.0  0.42061  0.48232  0.44958  1.0000
  H   H184      1.0  0.39278  0.41626  0.38637  1.0000
  H   H185      1.0  0.41912  0.41485  0.46468  1.0000
  H   H186      1.0  0.16583  0.62583  0.32517  1.0000
  H   H187      1.0  0.34884  0.64346  0.18313  1.0000
  H   H188      1.0  0.00248  0.35473  0.35378  1.0000
  N   N8        1.0  0.04467  0.32660  0.37572  1.0000
  C   C114      1.0  0.37189  0.32247  0.22461  1.0000
  H   H189      1.0  0.49275  0.42649  0.39177  1.0000
  H   H190      1.0  0.37761  0.49047  0.41231  1.0000
  H   H191      1.0  0.03566  0.35677  0.44637  1.0000
  N   N9        1.0  0.42736  0.43789  0.42732  1.0000
  H   H192      1.0  0.38618  0.33405  0.17970  1.0000
  H   H193      1.0  0.44147  0.32985  0.32879  1.0000
  H   H194      1.0  0.12740  0.36215  0.36196  1.0000
  H   H195      1.0  0.43956  0.40403  0.41561  1.0000
  C   C115      1.0  0.45047  0.61386  0.12412  1.0000
  H   H196      1.0  0.44323  0.43861  0.36178  1.0000
  C   C116      1.0  0.04645  0.33174  0.41180  1.0000
  H   H197      1.0  0.48355  0.36613  0.28976  1.0000
  H   H198      1.0  0.44022  0.59707  0.11410  1.0000
  C   C117      1.0  0.45631  0.42427  0.37832  1.0000
  H   H199      1.0  0.03900  0.36830  0.40762  1.0000
  C   C118      1.0  0.09625  0.35909  0.36966  1.0000
  H   H200      1.0  0.37752  0.63149  0.43282  1.0000
  C   C119      1.0  0.37484  0.64410  0.45174  1.0000
  H   H201      1.0  0.06851  0.36843  0.35193  1.0000
  H   H202      1.0  0.08483  0.63697  0.31228  1.0000
  H   H203      1.0  0.02330  0.33692  0.30464  1.0000
  C   C120      1.0  0.47484  0.44417  0.44754  1.0000
  C   C121      1.0  0.00268  0.33652  0.35165  1.0000
  H   H204      1.0  0.45386  0.40974  0.36159  1.0000
  H   H205      1.0  0.34916  0.40493  0.43266  1.0000
  H   H206      1.0  0.41903  0.62324  0.12197  1.0000
  H   H207      1.0  0.47396  0.45651  0.46717  1.0000
  H   H208      1.0  0.42663  0.63749  0.28694  1.0000
  C   C122      1.0  0.37814  0.64792  0.20374  1.0000
  C   C123      1.0  0.38376  0.63859  0.23577  1.0000
  H   H209      1.0  0.08727  0.32862  0.34275  1.0000
  S   S40       1.0  0.25028  0.64957  0.35911  1.0000
  H   H210      1.0  0.11791  0.32665  0.38585  1.0000
  H   H211      1.0  0.32603  0.62658  0.47108  1.0000
  C   C124      1.0  0.48072  0.62420  0.10430  1.0000
  H   H212      1.0  0.46911  0.64564  0.47641  1.0000
  C   C125      1.0  0.17899  0.32063  0.32493  1.0000
  C   C126      1.0  0.49247  0.33027  0.28333  1.0000
  C   C127      1.0  0.11116  0.64865  0.32402  1.0000
  H   H213      1.0  0.40424  0.44176  0.47181  1.0000
  H   H214      1.0  0.46347  0.62142  0.07702  1.0000
  H   H215      1.0  0.39286  0.64660  0.08001  1.0000
  H   H216      1.0  0.00567  0.65263  0.22957  1.0000
  N   N10       1.0  0.49306  0.64822  0.11087  1.0000
  H   H217      1.0  0.42750  0.65231  0.41227  1.0000
  H   H218      1.0  0.49307  0.41829  0.48671  1.0000
  H   H219      1.0  0.45560  0.51444  0.56468  1.0000
  H   H220      1.0  0.47650  0.50624  0.53103  1.0000
  H   H221      1.0  0.40830  0.33818  0.81079  1.0000
  H   H222      1.0  0.41632  0.54733  0.53077  1.0000
  H   H223      1.0  0.42745  0.59843  0.51458  1.0000
  H   H224      1.0  0.49263  0.33930  0.74055  1.0000
  C   C128      1.0  0.42764  0.53267  0.51942  1.0000
  H   H225      1.0  0.28019  0.33277  0.73788  1.0000
  H   H226      1.0  0.47756  0.56635  0.61795  1.0000
  H   H227      1.0  0.32568  0.33186  0.79600  1.0000
  C   C129      1.0  0.46841  0.52099  0.54425  1.0000
  C   C130      1.0  0.48390  0.55023  0.60733  1.0000
  H   H228      1.0  0.39848  0.52110  0.51248  1.0000
  H   H229      1.0  0.36589  0.34738  0.75688  1.0000
  C   C131      1.0  0.45276  0.60029  0.50140  1.0000
  C   C132      1.0  0.36840  0.33143  0.74420  1.0000
  H   H230      1.0  0.01839  0.64365  0.63227  1.0000
  H   H231      1.0  0.35420  0.32276  0.68991  1.0000
  H   H232      1.0  0.47682  0.56583  0.55962  1.0000
  H   H233      1.0  0.37864  0.34910  0.70157  1.0000
  H   H234      1.0  0.00898  0.64536  0.58789  1.0000
  H   H235      1.0  0.40522  0.32720  0.75164  1.0000
  C   C133      1.0  0.39522  0.32193  0.81580  1.0000
  H   H236      1.0  0.41779  0.37649  0.49643  1.0000
  H   H237      1.0  0.45137  0.54114  0.60042  1.0000
  C   C134      1.0  0.35402  0.33707  0.70628  1.0000
  C   C135      1.0  0.48960  0.37214  0.50475  1.0000
  H   H238      1.0  0.32023  0.34513  0.69830  1.0000
  C   C136      1.0  0.99847  0.65237  0.60915  1.0000
  H   H239      1.0  0.39470  0.32214  0.84245  1.0000
  H   H240      1.0  0.43461  0.53728  0.49557  1.0000
  S   S41       1.0  0.40179  0.77582  0.12671  1.0000
  S   S42       1.0  0.45369  0.71974  0.12928  1.0000
  S   S43       1.0  0.04078  0.74326  0.34227  1.0000
  S   S44       1.0  0.04035  0.67670  0.32365  1.0000
  Fe  Fe21      1.0  0.20639  0.85894  0.15085  1.0000
  S   S45       1.0  0.18477  0.88619  0.18020  1.0000
  S   S46       1.0  0.27227  0.84085  0.17901  1.0000
  Fe  Fe22      1.0  0.11739  0.86329  0.09326  1.0000
  S   S47       1.0  0.09003  0.89027  0.11877  1.0000
  S   S48       1.0  0.07797  0.84761  0.04358  1.0000
  Fe  Fe23      1.0  0.16013  0.90485  0.13125  1.0000
  S   S49       1.0  0.17322  0.94070  0.11836  1.0000
  Fe  Fe24      1.0  0.11649  0.86948  0.16544  1.0000
  S   S50       1.0  0.07621  0.86409  0.20304  1.0000
  S   S51       1.0  0.18648  0.87861  0.10269  1.0000
  S   S52       1.0  0.13918  0.84154  0.13911  1.0000
  C   C137      1.0  0.16021  0.96752  0.13108  1.0000
  C   C138      1.0  0.14409  0.97095  0.15893  1.0000
  H   H241      1.0  0.13850  0.95697  0.17332  1.0000
  C   C139      1.0  0.03481  0.79735  0.23806  1.0000
  C   C140      1.0  0.02995  0.81691  0.25453  1.0000
  C   C141      1.0  0.04206  0.83724  0.24311  1.0000
  C   C142      1.0  0.05946  0.83822  0.21536  1.0000
  C   C143      1.0  0.06386  0.81868  0.19866  1.0000
  C   C144      1.0  0.05142  0.79841  0.20990  1.0000
  H   H242      1.0  0.07727  0.81910  0.17735  1.0000
  C   C145      1.0  0.09900  0.66990  0.33209  1.0000
  C   C146      1.0  0.17948  0.67826  0.35519  1.0000
  C   C147      1.0  0.13354  0.68475  0.34746  1.0000
  H   H243      1.0  0.20576  0.68980  0.36760  1.0000
  H   H244      1.0  0.12486  0.70111  0.35395  1.0000
  C   C148      1.0  0.36783  0.79488  0.14167  1.0000
  C   C149      1.0  0.37940  0.80208  0.17519  1.0000
  C   C150      1.0  0.34988  0.81618  0.18605  1.0000
  C   C151      1.0  0.30870  0.82352  0.16359  1.0000
  C   C152      1.0  0.29727  0.81640  0.13009  1.0000
  C   C153      1.0  0.32657  0.80214  0.11931  1.0000
  H   H245      1.0  0.41098  0.79672  0.19273  1.0000
  H   H246      1.0  0.35921  0.82162  0.21200  1.0000
  H   H247      1.0  0.26579  0.82182  0.11249  1.0000
  H   H248      1.0  0.31712  0.79669  0.09336  1.0000
  C   C154      1.0  0.32552  0.72145  0.22734  1.0000
  N   N11       1.0  0.34261  0.72847  0.19838  1.0000
  C   C155      1.0  0.33059  0.75239  0.19095  1.0000
  C   C156      1.0  0.32099  0.71401  0.16849  1.0000
  C   C157      1.0  0.28014  0.75745  0.17364  1.0000
  C   C158      1.0  0.42109  0.73829  0.23879  1.0000
  C   C159      1.0  0.33326  0.71924  0.13575  1.0000
  H   H249      1.0  0.35020  0.75955  0.17503  1.0000
  H   H250      1.0  0.34074  0.76243  0.21444  1.0000
  H   H251      1.0  0.28338  0.71372  0.16277  1.0000
  H   H252      1.0  0.27538  0.77563  0.17201  1.0000
  H   H253      1.0  0.26921  0.75115  0.14740  1.0000
  H   H254      1.0  0.45751  0.73414  0.24346  1.0000
  H   H255      1.0  0.41212  0.73321  0.26164  1.0000
  H   H256      1.0  0.41786  0.75642  0.23557  1.0000
  H   H257      1.0  0.36103  0.70829  0.13333  1.0000
  H   H258      1.0  0.34388  0.73647  0.13393  1.0000
  H   H259      1.0  0.30313  0.71662  0.11362  1.0000
  H   H260      1.0  0.40569  0.73216  0.18582  1.0000
  N   N12       1.0  0.19631  0.82906  0.27100  1.0000
  C   C160      1.0  0.19284  0.83021  0.23393  1.0000
  C   C161      1.0  0.17852  0.85057  0.28039  1.0000
  C   C162      1.0  0.16719  0.81007  0.27600  1.0000
  C   C163      1.0  0.24541  0.82527  0.29007  1.0000
  C   C164      1.0  0.20315  0.80861  0.21772  1.0000
  C   C165      1.0  0.20574  0.87133  0.27727  1.0000
  C   C166      1.0  0.14907  0.81088  0.30692  1.0000
  C   C167      1.0  0.25801  0.82567  0.32884  1.0000
  H   H261      1.0  0.15827  0.83559  0.21901  1.0000
  H   H262      1.0  0.21644  0.84274  0.22903  1.0000
  H   H263      1.0  0.17648  0.85058  0.30657  1.0000
  H   H264      1.0  0.14289  0.85321  0.26472  1.0000
  H   H265      1.0  0.13632  0.80863  0.25410  1.0000
  H   H266      1.0  0.18540  0.79410  0.27705  1.0000
  H   H267      1.0  0.25677  0.80888  0.28362  1.0000
  H   H268      1.0  0.26815  0.83691  0.28198  1.0000
  H   H269      1.0  0.23878  0.80323  0.22862  1.0000
  H   H270      1.0  0.17949  0.79512  0.21894  1.0000
  H   H271      1.0  0.19876  0.81162  0.19058  1.0000
  H   H272      1.0  0.24126  0.87050  0.29362  1.0000
  H   H273      1.0  0.20512  0.87456  0.25093  1.0000
  H   H274      1.0  0.18974  0.88588  0.28547  1.0000
  H   H275      1.0  0.17603  0.81312  0.33092  1.0000
  H   H276      1.0  0.13176  0.79504  0.30857  1.0000
  H   H277      1.0  0.12293  0.82394  0.30409  1.0000
  H   H278      1.0  0.25355  0.80914  0.33884  1.0000
  H   H279      1.0  0.23907  0.83803  0.33891  1.0000
  H   H280      1.0  0.29413  0.83059  0.33916  1.0000
  H   H281      1.0  0.33558  0.73347  0.24849  1.0000
  H   H282      1.0  0.40334  0.70846  0.20950  1.0000
  C   C168      1.0  0.39331  0.72605  0.20686  1.0000
  H   H283      1.0  0.33098  0.69652  0.17430  1.0000
  N   N13       1.0  0.38612  0.66660  0.44113  1.0000
  H   H284      1.0  0.28779  0.72144  0.21964  1.0000
  H   H285      1.0  0.25780  0.75089  0.18795  1.0000
  H   H286      1.0  0.36592  0.70818  0.40975  1.0000
  H   H287      1.0  0.02382  0.84389  0.13444  1.0000
  C   C169      1.0  0.00684  0.87744  0.02822  1.0000
  H   H288      1.0  0.31601  0.67452  0.41465  1.0000
  C   C170      1.0  0.02427  0.85763  0.01998  1.0000
  C   C171      1.0  0.19166  0.65700  0.34723  1.0000
  H   H289      1.0  0.38998  0.67559  0.07398  1.0000
  H   H290      1.0  0.02617  0.88692  0.04965  1.0000
  C   C172      1.0  0.00578  0.84248  0.10707  1.0000
  H   H291      1.0  0.01711  0.81637  0.27615  1.0000
  H   H292      1.0  0.37788  0.69677  0.25236  1.0000
  C   C173      1.0  0.44867  0.66850  0.22457  1.0000
  C   C174      1.0  0.41012  0.66299  0.19823  1.0000
  H   H293      1.0  0.40518  0.67017  0.17364  1.0000
  C   C175      1.0  0.34054  0.69836  0.24213  1.0000
  H   H294      1.0  0.40818  0.66548  0.11589  1.0000
  H   H295      1.0  0.35435  0.69151  0.46454  1.0000
  H   H296      1.0  0.05527  0.78337  0.19697  1.0000
  H   H297      1.0  0.45814  0.74043  0.03055  1.0000
  H   H298      1.0  0.32645  0.69540  0.26351  1.0000
  C   C176      1.0  0.35619  0.69419  0.39192  1.0000
  C   C177      1.0  0.43012  0.66507  0.43218  1.0000
  H   H299      1.0  0.02211  0.85479  0.09451  1.0000
  C   C178      1.0  0.34930  0.67265  0.40947  1.0000
  H   H300      1.0  0.41005  0.69809  0.46417  1.0000
  C   C179      1.0  0.45409  0.65922  0.25652  1.0000
  H   H301      1.0  0.32724  0.68501  0.22365  1.0000
  Fe  Fe25      1.0  0.46712  0.75527  0.14550  1.0000
  C   C180      1.0  0.47005  0.73229  0.01151  1.0000
  H   H302      1.0  0.05579  0.81764  0.10482  1.0000
  S   S53       1.0  0.02206  0.77109  0.25174  1.0000
  H   H303      1.0  0.43790  0.68078  0.42139  1.0000
  H   H304      1.0  0.03836  0.85227  0.25613  1.0000
  H   H305      1.0  0.32369  0.69860  0.37291  1.0000
  H   H306      1.0  0.01262  0.88053  0.14108  1.0000
  H   H307      1.0  0.38146  0.69200  0.37783  1.0000
  C   C181      1.0  0.01850  0.81986  0.09532  1.0000
  C   C182      1.0  0.40991  0.66228  0.09006  1.0000
  H   H308      1.0  0.11261  0.88509  0.99880  1.0000
  Fe  Fe26      1.0  0.00768  0.71062  0.32484  1.0000
  H   H309      1.0  0.48371  0.66336  0.27710  1.0000
  H   H310      1.0  0.31731  0.65590  0.46918  1.0000
  H   H311      1.0  0.00981  0.81903  0.06743  1.0000
  H   H312      1.0  0.14888  0.86266  0.99721  1.0000
  C   C183      1.0  0.38842  0.68411  0.46753  1.0000
  H   H313      1.0  0.00309  0.80585  0.10483  1.0000
  C   C184      1.0  0.47301  0.65999  0.46122  1.0000
  H   H314      1.0  0.48396  0.67460  0.47768  1.0000
  H   H315      1.0  0.34452  0.65921  0.39050  1.0000
  H   H316      1.0  0.45521  0.65895  0.06052  1.0000
  C   C185      1.0  0.45856  0.66292  0.08728  1.0000
  S   S54       1.0  0.49156  0.68649  0.21917  1.0000
  H   H317      1.0  0.17967  0.98368  0.09123  1.0000
  H   H318      1.0  0.46990  0.68039  0.09080  1.0000
  C   C186      1.0  0.16737  0.98606  0.11287  1.0000
  H   H319      1.0  0.99582  0.72097  0.44098  1.0000
  C   C187      1.0  0.99621  0.72390  0.49316  1.0000
  Fe  Fe27      1.0  0.47329  0.71008  0.79526  1.0000
  S   S55       1.0  0.46929  0.74269  0.76885  1.0000
  Fe  Fe28      1.0  0.45787  0.73170  0.85914  1.0000
  S   S56       1.0  0.45369  0.76525  0.83549  1.0000
  H   H320      1.0  0.22356  0.70986  0.63537  1.0000
  Fe  Fe29      1.0  0.40880  0.74931  0.78813  1.0000
  S   S57       1.0  0.34026  0.76547  0.75989  1.0000
  H   H321      1.0  0.00196  0.70649  0.49812  1.0000
  S   S58       1.0  0.41085  0.71631  0.81231  1.0000
  Fe  Fe30      1.0  0.06300  0.73670  0.68537  1.0000
  S   S59       1.0  0.03742  0.76412  0.64798  1.0000
  S   S60       1.0  0.13729  0.72648  0.71203  1.0000
  H   H322      1.0  0.36059  0.78051  0.83051  1.0000
  H   H323      1.0  0.03414  0.88805  0.97084  1.0000
  H   H324      1.0  0.10472  0.87896  0.89774  1.0000
  H   H325      1.0  0.32334  0.78351  0.91371  1.0000
  H   H326      1.0  0.16982  0.72751  0.65308  1.0000
  H   H327      1.0  0.15413  0.79636  0.63297  1.0000
  H   H328      1.0  0.10189  0.73025  0.56000  1.0000
  C   C188      1.0  0.12314  0.70560  0.61879  1.0000
  H   H329      1.0  0.16952  0.75083  0.80085  1.0000
  H   H330      1.0  0.10683  0.77998  0.61338  1.0000
  C   C189      1.0  0.28430  0.75411  0.74500  1.0000
  C   C190      1.0  0.27587  0.73145  0.74510  1.0000
  C   C191      1.0  0.23083  0.72340  0.73457  1.0000
  C   C192      1.0  0.19342  0.73778  0.72381  1.0000
  C   C193      1.0  0.20189  0.76042  0.72336  1.0000
  C   C194      1.0  0.24692  0.76846  0.73367  1.0000
  H   H331      1.0  0.30402  0.72010  0.75356  1.0000
  H   H332      1.0  0.22495  0.70585  0.73508  1.0000
  H   H333      1.0  0.17374  0.77180  0.71580  1.0000
  H   H334      1.0  0.25283  0.78602  0.73348  1.0000
  H   H335      1.0  0.08553  0.76336  0.52671  1.0000
  N   N14       1.0  0.28485  0.75658  0.84646  1.0000
  C   C195      1.0  0.24185  0.74634  0.82411  1.0000
  C   C196      1.0  0.32354  0.74173  0.84502  1.0000
  H   H336      1.0  0.33550  0.80650  0.83312  1.0000
  C   C197      1.0  0.27994  0.75850  0.88146  1.0000
  H   H337      1.0  0.11675  0.69719  0.64073  1.0000
  C   C198      1.0  0.32297  0.71839  0.85955  1.0000
  H   H338      1.0  0.26702  0.79121  0.83890  1.0000
  C   C199      1.0  0.32228  0.76536  0.91008  1.0000
  H   H339      1.0  0.24606  0.74186  0.79924  1.0000
  H   H340      1.0  0.23390  0.73063  0.83493  1.0000
  H   H341      1.0  0.35703  0.74883  0.85829  1.0000
  H   H342      1.0  0.32444  0.73992  0.81850  1.0000
  C   C200      1.0  0.45159  0.73796  0.97724  1.0000
  C   C201      1.0  0.19848  0.76057  0.81672  1.0000
  H   H343      1.0  0.25330  0.77078  0.88189  1.0000
  H   H344      1.0  0.26674  0.74295  0.88928  1.0000
  C   C202      1.0  0.23187  0.72249  0.61884  1.0000
  H   H345      1.0  0.01211  0.83031  0.98520  1.0000
  H   H346      1.0  0.32323  0.71881  0.88630  1.0000
  H   H347      1.0  0.29406  0.70847  0.84432  1.0000
  H   H348      1.0  0.35431  0.70956  0.85895  1.0000
  H   H349      1.0  0.27991  0.77840  0.80429  1.0000
  C   C203      1.0  0.29013  0.77902  0.83233  1.0000
  H   H350      1.0  0.09040  0.70604  0.59855  1.0000
  C   C204      1.0  0.33792  0.78931  0.84261  1.0000
  H   H351      1.0  0.35472  0.75975  0.90665  1.0000
  C   C205      1.0  0.03403  0.84789  0.88475  1.0000
  H   H352      1.0  0.18986  0.76519  0.83995  1.0000
  N   N15       1.0  0.15414  0.74239  0.60359  1.0000
  C   C206      1.0  0.18947  0.73066  0.59130  1.0000
  C   C207      1.0  0.11259  0.74593  0.57401  1.0000
  C   C208      1.0  0.14097  0.72899  0.62972  1.0000
  C   C209      1.0  0.17379  0.76390  0.61949  1.0000
  H   H353      1.0  0.42547  0.75046  0.97029  1.0000
  C   C210      1.0  0.11754  0.76296  0.54779  1.0000
  C   C211      1.0  0.14128  0.77918  0.63126  1.0000
  H   H354      1.0  0.17461  0.71623  0.57530  1.0000
  H   H355      1.0  0.20218  0.74161  0.57458  1.0000
  H   H356      1.0  0.11390  0.73750  0.63780  1.0000
  H   H357      1.0  0.20253  0.76084  0.64253  1.0000
  H   H358      1.0  0.18960  0.77347  0.60301  1.0000
  H   H359      1.0  0.40990  0.69182  0.52113  1.0000
  C   C212      1.0  0.03959  0.89603  0.94825  1.0000
  H   H360      1.0  0.43921  0.66863  0.51143  1.0000
  H   H361      1.0  0.12293  0.77985  0.55841  1.0000
  H   H362      1.0  0.14505  0.75856  0.53675  1.0000
  H   H363      1.0  0.05424  0.92255  0.88676  1.0000
  H   H364      1.0  0.13864  0.77406  0.65626  1.0000
  H   H365      1.0  0.08281  0.75080  0.58243  1.0000
  H   H366      1.0  0.25086  0.73615  0.63447  1.0000
  H   H367      1.0  0.35386  0.78996  0.87007  1.0000
  H   H368      1.0  0.20077  0.77551  0.80195  1.0000
  H   H369      1.0  0.07532  0.90588  0.85859  1.0000
  H   H370      1.0  0.32110  0.75751  0.93397  1.0000
  H   H371      1.0  0.14794  0.69534  0.61086  1.0000
  H   H372      1.0  0.04985  0.85537  0.86660  1.0000
  S   S61       1.0  0.02441  0.71105  0.64903  1.0000
  S   S62       1.0  0.44012  0.73487  0.90912  1.0000
  C   C213      1.0  0.08427  0.89088  0.90769  1.0000
  C   C214      1.0  0.46639  0.72756  0.95196  1.0000
  N   N16       1.0  0.05791  0.87949  0.92821  1.0000
  H   H373      1.0  0.38138  0.66608  0.51204  1.0000
  H   H374      1.0  0.11037  0.90192  0.92398  1.0000
  H   H375      1.0  0.07119  0.85323  0.96530  1.0000
  C   C215      1.0  0.12716  0.87561  0.98152  1.0000
  C   C216      1.0  0.05727  0.90542  0.87817  1.0000
  S   S63       1.0  0.47504  0.67921  0.76386  1.0000
  H   H376      1.0  0.06465  0.90941  0.95816  1.0000
  S   S64       1.0  0.00587  0.73956  0.70930  1.0000
  C   C217      1.0  0.40588  0.67696  0.50486  1.0000
  C   C218      1.0  0.09014  0.86434  0.95288  1.0000
  H   H377      1.0  0.25542  0.71455  0.60655  1.0000
  H   H378      1.0  0.10835  0.85328  0.93979  1.0000
  H   H379      1.0  0.00243  0.85668  0.92292  1.0000
  C   C219      1.0  0.99903  0.84574  0.99166  1.0000
  H   H380      1.0  0.05651  0.83510  0.90000  1.0000
  H   H381      1.0  0.14967  0.88632  0.97192  1.0000
  H   H382      1.0  0.02321  0.89903  0.86484  1.0000
  C   C220      1.0  0.02005  0.86540  0.90680  1.0000
  H   H383      1.0  0.00808  0.66992  0.61286  1.0000
  H   H384      1.0  0.48666  0.77692  0.90652  1.0000
  H   H385      1.0  0.00306  0.83921  0.86957  1.0000
  H   H386      1.0  0.48542  0.80554  0.89618  1.0000
  H   H387      1.0  0.47698  0.65353  0.70616  1.0000
  H   H388      1.0  0.49231  0.79761  0.93883  1.0000
  S   S65       1.0  0.99764  0.72649  0.55982  1.0000
  Fe  Fe31      1.0  0.99631  0.73845  0.61242  1.0000
  H   H389      1.0  0.93229  0.02299  0.01956  1.0000
  H   H390      1.0  0.99510  0.17844  0.16822  1.0000
  S   S66       1.0  0.52565  0.20881  0.11304  1.0000
  H   H391      1.0  0.83274  0.18581  0.33040  1.0000
  Fe  Fe32      1.0  0.56242  0.21982  0.16620  1.0000
  S   S67       1.0  0.63472  0.20721  0.19295  1.0000
  S   S68       1.0  0.54191  0.25535  0.15687  1.0000
  Fe  Fe33      1.0  0.90485  0.24176  0.28268  1.0000
  S   S69       1.0  0.93164  0.21606  0.32304  1.0000
  S   S70       1.0  0.83058  0.25177  0.25648  1.0000
  H   H392      1.0  0.80984  0.23299  0.43411  1.0000
  H   H393      1.0  0.65222  0.28271  0.13064  1.0000
  C   C221      1.0  0.83710  0.21360  0.36443  1.0000
  H   H394      1.0  0.78027  0.20014  0.32305  1.0000
  S   S71       1.0  0.96004  0.23635  0.25761  1.0000
  S   S72       1.0  0.94454  0.26914  0.31495  1.0000
  C   C222      1.0  0.51833  0.28260  0.30052  1.0000
  H   H395      1.0  0.67904  0.21645  0.13876  1.0000
  Fe  Fe34      1.0  0.98928  0.21240  0.29946  1.0000
  H   H396      1.0  0.60616  0.27044  0.09944  1.0000
  C   C223      1.0  0.81748  0.20247  0.32966  1.0000
  C   C224      1.0  0.97465  0.24627  0.44617  1.0000
  C   C225      1.0  0.68880  0.22005  0.21039  1.0000
  C   C226      1.0  0.69443  0.24295  0.21191  1.0000
  C   C227      1.0  0.73797  0.25223  0.22590  1.0000
  C   C228      1.0  0.77665  0.23886  0.23857  1.0000
  C   C229      1.0  0.77106  0.21596  0.23686  1.0000
  C   C230      1.0  0.72749  0.20668  0.22294  1.0000
  H   H397      1.0  0.66520  0.25353  0.20263  1.0000
  H   H398      1.0  0.74169  0.26996  0.22700  1.0000
  H   H399      1.0  0.80027  0.20535  0.24606  1.0000
  H   H400      1.0  0.72376  0.18894  0.22181  1.0000
  H   H401      1.0  0.80008  0.24771  0.31569  1.0000
  H   H402      1.0  0.59624  0.24742  0.01002  1.0000
  H   H403      1.0  0.82895  0.20236  0.38299  1.0000
  N   N17       1.0  0.65797  0.23243  0.08987  1.0000
  C   C231      1.0  0.64966  0.21679  0.11557  1.0000
  H   H404      1.0  0.63284  0.18320  0.12497  1.0000
  C   C232      1.0  0.82823  0.25036  0.33928  1.0000
  C   C233      1.0  0.61463  0.23484  0.06150  1.0000
  C   C234      1.0  0.63846  0.19280  0.10375  1.0000
  H   H405      1.0  0.87478  0.21321  0.37024  1.0000
  C   C235      1.0  0.69437  0.22374  0.07560  1.0000
  C   C236      1.0  0.61412  0.25340  0.03582  1.0000
  H   H406      1.0  0.62072  0.22257  0.12421  1.0000
  C   C237      1.0  0.84921  0.24562  0.40125  1.0000
  N   N18       1.0  0.82087  0.23678  0.36773  1.0000
  H   H407      1.0  0.68238  0.20890  0.05971  1.0000
  H   H408      1.0  0.89213  0.05616  0.01114  1.0000
  H   H409      1.0  0.60622  0.21924  0.04689  1.0000
  H   H410      1.0  0.58560  0.23779  0.07181  1.0000
  C   C238      1.0  0.84516  0.23327  0.43268  1.0000
  H   H411      1.0  0.75649  0.23245  0.11620  1.0000
  H   H412      1.0  0.66661  0.18464  0.09679  1.0000
  C   C239      1.0  0.63767  0.26668  0.11974  1.0000
  H   H413      1.0  0.98174  0.19194  0.22114  1.0000
  H   H414      1.0  0.62927  0.25754  0.14018  1.0000
  H   H415      1.0  0.71832  0.25315  0.37986  1.0000
  H   H416      1.0  0.70247  0.23590  0.05825  1.0000
  H   H417      1.0  0.60669  0.19165  0.08269  1.0000
  H   H418      1.0  0.56792  0.30796  0.31502  1.0000
  H   H419      1.0  0.86592  0.24200  0.45556  1.0000
  H   H420      1.0  0.76414  0.22274  0.38214  1.0000
  H   H421      1.0  0.83391  0.28320  0.32037  1.0000
  H   H422      1.0  0.85891  0.21629  0.43419  1.0000
  H   H423      1.0  0.68482  0.26558  0.09021  1.0000
  S   S73       1.0  0.98107  0.25679  0.40761  1.0000
  H   H424      1.0  0.70299  0.25194  0.12948  1.0000
  C   C240      1.0  0.74807  0.25720  0.37100  1.0000
  H   H425      1.0  0.85966  0.24503  0.33340  1.0000
  C   C241      1.0  0.96357  0.22427  0.45004  1.0000
  C   C242      1.0  0.67311  0.25423  0.10695  1.0000
  S   S74       1.0  0.50271  0.26306  0.05708  1.0000
  H   H426      1.0  0.64788  0.25920  0.03537  1.0000
  C   C243      1.0  0.73999  0.21785  0.10165  1.0000
  H   H427      1.0  0.73652  0.20470  0.11922  1.0000
  H   H428      1.0  0.95957  0.21284  0.42936  1.0000
  H   H429      1.0  0.86691  0.27950  0.36308  1.0000
  H   H430      1.0  0.80592  0.28314  0.35240  1.0000
  H   H431      1.0  0.88563  0.24560  0.40212  1.0000
  H   H432      1.0  0.76963  0.26772  0.39106  1.0000
  H   H433      1.0  0.76362  0.21147  0.08810  1.0000
  C   C244      1.0  0.77117  0.23562  0.36525  1.0000
  H   H434      1.0  0.75128  0.22991  0.33972  1.0000
  H   H435      1.0  0.82602  0.21156  0.30919  1.0000
  C   C245      1.0  0.98762  0.05875  0.02657  1.0000
  H   H436      1.0  0.84166  0.26312  0.40502  1.0000
  C   C246      1.0  0.53748  0.30297  0.32241  1.0000
  C   C247      1.0  0.83376  0.27547  0.34461  1.0000
  Fe  Fe35      1.0  0.97366  0.24332  0.35427  1.0000
  H   H437      1.0  0.73611  0.26675  0.34723  1.0000
  H   H438      1.0  0.98753  0.31385  0.30795  1.0000
  C   C248      1.0  0.97981  0.26079  0.47357  1.0000
  H   H439      1.0  0.55068  0.29755  0.34910  1.0000
  H   H440      1.0  0.98827  0.27785  0.47097  1.0000
  H   H441      1.0  0.59377  0.26764  0.04009  1.0000
  H   H442      1.0  0.54398  0.26919  0.30658  1.0000
  Fe  Fe36      1.0  0.50215  0.24384  0.10445  1.0000
  H   H443      1.0  0.96432  0.07031  0.03400  1.0000
  C   C249      1.0  0.95726  0.21706  0.48074  1.0000
  S   S75       1.0  0.50238  0.21104  0.18456  1.0000
  H   H444      1.0  0.50199  0.21785  0.03138  1.0000
  H   H445      1.0  0.94843  0.20004  0.48333  1.0000
  C   C250      1.0  0.49859  0.22915  0.01068  1.0000
  C   C251      1.0  0.49676  0.25184  0.01618  1.0000
  H   H446      1.0  0.51160  0.28615  0.27329  1.0000
  H   H447      1.0  0.99264  0.04368  0.04225  1.0000
  H   H448      1.0  0.53877  0.18089  0.84688  1.0000
  S   S76       1.0  0.52302  0.18709  0.77275  1.0000
  H   H449      1.0  0.90387  0.20037  0.76839  1.0000
  Fe  Fe37      1.0  0.95119  0.27549  0.64320  1.0000
  S   S77       1.0  0.91256  0.24421  0.62557  1.0000
  S   S78       1.0  0.91738  0.30705  0.65506  1.0000
  H   H450      1.0  0.56844  0.21188  0.88700  1.0000
  C   C252      1.0  0.52229  0.30696  0.75148  1.0000
  Fe  Fe38      1.0  0.81711  0.07604  0.84123  1.0000
  S   S79       1.0  0.80782  0.10081  0.87949  1.0000
  S   S80       1.0  0.80936  0.04034  0.85824  1.0000
  Fe  Fe39      1.0  0.84193  0.11311  0.79938  1.0000
  S   S81       1.0  0.83546  0.13950  0.83513  1.0000
  S   S82       1.0  0.86284  0.12155  0.75238  1.0000
  Fe  Fe40      1.0  0.87199  0.11621  0.87586  1.0000
  S   S83       1.0  0.91874  0.13218  0.92240  1.0000
  Fe  Fe41      1.0  0.77117  0.12260  0.83636  1.0000
  S   S84       1.0  0.71915  0.14730  0.84503  1.0000
  S   S85       1.0  0.88400  0.09070  0.84018  1.0000
  S   S86       1.0  0.77499  0.09687  0.79773  1.0000
  H   H451      1.0  0.62189  0.15721  0.89438  1.0000
  H   H452      1.0  0.61184  0.19256  0.88804  1.0000
  C   C253      1.0  0.94528  0.17772  0.87323  1.0000
  H   H453      1.0  0.92192  0.16995  0.67979  1.0000
  C   C254      1.0  0.91389  0.03951  0.93770  1.0000
  C   C255      1.0  0.81803  0.01292  0.84516  1.0000
  C   C256      1.0  0.82738  0.00838  0.81478  1.0000
  H   H454      1.0  0.76305  0.13582  0.74736  1.0000
  H   H455      1.0  0.83009  0.02182  0.79840  1.0000
  C   C257      1.0  0.91487  0.18767  0.72290  1.0000
  C   C258      1.0  0.90137  0.18604  0.75242  1.0000
  C   C259      1.0  0.88534  0.16600  0.76172  1.0000
  C   C260      1.0  0.88235  0.14728  0.74150  1.0000
  C   C261      1.0  0.89545  0.14894  0.71182  1.0000
  C   C262      1.0  0.91166  0.16900  0.70255  1.0000
  H   H456      1.0  0.87574  0.16493  0.78466  1.0000
  H   H457      1.0  0.89331  0.13457  0.69596  1.0000
  C   C263      1.0  0.88476  0.08125  0.97300  1.0000
  H   H458      1.0  0.80691  0.21305  0.80644  1.0000
  H   H459      1.0  0.80727  0.99824  0.88946  1.0000
  C   C264      1.0  0.97353  0.25357  0.50425  1.0000
  C   C265      1.0  0.74141  0.14874  0.75388  1.0000
  H   H460      1.0  0.73153  0.29118  0.58012  1.0000
  C   C266      1.0  0.57896  0.17703  0.79124  1.0000
  C   C267      1.0  0.61002  0.18825  0.81743  1.0000
  C   C268      1.0  0.65300  0.17902  0.83302  1.0000
  C   C269      1.0  0.66585  0.15865  0.82236  1.0000
  C   C270      1.0  0.63551  0.14778  0.79532  1.0000
  C   C271      1.0  0.59227  0.15695  0.77989  1.0000
  H   H461      1.0  0.60058  0.20387  0.82605  1.0000
  H   H462      1.0  0.67629  0.18762  0.85383  1.0000
  H   H463      1.0  0.64483  0.13208  0.78688  1.0000
  H   H464      1.0  0.56857  0.14819  0.75951  1.0000
  H   H465      1.0  0.87880  0.00188  0.95178  1.0000
  H   H466      1.0  0.85419  0.01388  0.98250  1.0000
  H   H467      1.0  0.96007  0.10647  0.80842  1.0000
  H   H468      1.0  0.58513  0.19343  0.92170  1.0000
  C   C272      1.0  0.74372  0.19418  0.78753  1.0000
  H   H469      1.0  0.91430  0.07400  0.92008  1.0000
  C   C273      1.0  0.92744  0.05754  0.91643  1.0000
  C   C274      1.0  0.58414  0.29953  0.72750  1.0000
  C   C275      1.0  0.84197  0.31747  0.60106  1.0000
  H   H470      1.0  0.58437  0.15588  0.93740  1.0000
  C   C276      1.0  0.54958  0.15265  0.92053  1.0000
  H   H471      1.0  0.72925  0.18129  0.80023  1.0000
  H   H472      1.0  0.82452  0.26614  0.63669  1.0000
  H   H473      1.0  0.94828  0.13276  0.85785  1.0000
  H   H474      1.0  0.66018  0.28578  0.68768  1.0000
  C   C277      1.0  0.92731  0.02114  0.99204  1.0000
  H   H475      1.0  0.66708  0.18292  0.71117  1.0000
  C   C278      1.0  0.96201  0.23163  0.50804  1.0000
  C   C279      1.0  0.54218  0.17877  0.87414  1.0000
  H   H476      1.0  0.73968  0.16924  0.71129  1.0000
  H   H477      1.0  0.78854  0.25012  0.65401  1.0000
  Fe  Fe42      1.0  0.96548  0.23740  0.59849  1.0000
  C   C280      1.0  0.96739  0.13604  0.83940  1.0000
  H   H478      1.0  0.70577  0.14338  0.74288  1.0000
  H   H479      1.0  0.91738  0.08932  0.97482  1.0000
  C   C281      1.0  0.81457  0.99504  0.86594  1.0000
  C   C282      1.0  0.67876  0.18743  0.73840  1.0000
  H   H480      1.0  0.66959  0.25764  0.69941  1.0000
  H   H481      1.0  0.67401  0.31107  0.65160  1.0000
  H   H482      1.0  0.98622  0.14789  0.78176  1.0000
  H   H483      1.0  0.92762  0.19389  0.86857  1.0000
  H   H484      1.0  0.78837  0.17230  0.74576  1.0000
  H   H485      1.0  0.61291  0.20232  0.73339  1.0000
  H   H486      1.0  0.49793  0.20343  0.97450  1.0000
  H   H487      1.0  0.67261  0.28711  0.56005  1.0000
  C   C283      1.0  0.71118  0.30922  0.65597  1.0000
  H   H488      1.0  0.65481  0.21094  0.77041  1.0000
  C   C284      1.0  0.60693  0.12327  0.88711  1.0000
  H   H489      1.0  0.76946  0.25918  0.61042  1.0000
  N   N19       1.0  0.72277  0.28613  0.64776  1.0000
  C   C285      1.0  0.69155  0.27992  0.61367  1.0000
  C   C286      1.0  0.71665  0.26985  0.67344  1.0000
  C   C287      1.0  0.77170  0.28561  0.64789  1.0000
  H   H490      1.0  0.85719  0.30755  0.58557  1.0000
  C   C288      1.0  0.69740  0.29319  0.58351  1.0000
  C   C289      1.0  0.66941  0.26962  0.67919  1.0000
  C   C290      1.0  0.78865  0.26385  0.63649  1.0000
  H   H491      1.0  0.72885  0.20960  0.79424  1.0000
  H   H492      1.0  0.69476  0.26212  0.60831  1.0000
  H   H493      1.0  0.65548  0.28223  0.61306  1.0000
  H   H494      1.0  0.74238  0.27255  0.69826  1.0000
  H   H495      1.0  0.72261  0.25276  0.66599  1.0000
  H   H496      1.0  0.77851  0.29886  0.63178  1.0000
  H   H497      1.0  0.79477  0.28905  0.67348  1.0000
  C   C291      1.0  0.55530  0.29264  0.74641  1.0000
  H   H498      1.0  0.74979  0.14917  0.78166  1.0000
  H   H499      1.0  0.61017  0.28847  0.72453  1.0000
  S   S87       1.0  0.93600  0.21336  0.71339  1.0000
  Fe  Fe43      1.0  0.96118  0.22855  0.67127  1.0000
  H   H500      1.0  0.61735  0.12038  0.91467  1.0000
  H   H501      1.0  0.87057  0.09084  0.99041  1.0000
  H   H502      1.0  0.64249  0.26432  0.65639  1.0000
  H   H503      1.0  0.71668  0.21224  0.70613  1.0000
  N   N20       1.0  0.72951  0.19097  0.74985  1.0000
  C   C292      1.0  0.64925  0.20701  0.74342  1.0000
  H   H504      1.0  0.55931  0.27645  0.75776  1.0000
  H   H505      1.0  0.66906  0.17338  0.75198  1.0000
  C   C293      1.0  0.73985  0.21125  0.73234  1.0000
  C   C294      1.0  0.78816  0.21323  0.72867  1.0000
  C   C295      1.0  0.79484  0.19578  0.80582  1.0000
  H   H506      1.0  0.65412  0.22195  0.72960  1.0000
  C   C296      1.0  0.88508  0.00632  0.97871  1.0000
  C   C297      1.0  0.57946  0.19471  0.89415  1.0000
  H   H507      1.0  0.73346  0.22648  0.74529  1.0000
  C   C298      1.0  0.75101  0.17090  0.73926  1.0000
  H   H508      1.0  0.79404  0.20099  0.71043  1.0000
  H   H509      1.0  0.81510  0.21156  0.75281  1.0000
  H   H510      1.0  0.79228  0.22976  0.71849  1.0000
  H   H511      1.0  0.81596  0.18495  0.79527  1.0000
  C   C299      1.0  0.98197  0.12734  0.98363  1.0000
  H   H512      1.0  0.80107  0.18998  0.83218  1.0000
  C   C300      1.0  0.59289  0.14741  0.87883  1.0000
  C   C301      1.0  0.96801  0.12042  0.94990  1.0000
  H   H513      1.0  0.95461  0.17876  0.82428  1.0000
  H   H514      1.0  0.58070  0.11134  0.87374  1.0000
  H   H515      1.0  0.94049  0.14137  0.81647  1.0000
  C   C302      1.0  0.97656  0.17563  0.85032  1.0000
  S   S88       1.0  0.95271  0.22162  0.54592  1.0000
  H   H516      1.0  0.72475  0.30789  0.71134  1.0000
  H   H517      1.0  0.93063  0.02421  0.93225  1.0000
  H   H518      1.0  0.77249  0.31731  0.69787  1.0000
  N   N21       1.0  0.92539  0.04335  0.97528  1.0000
  H   H519      1.0  0.87678  0.03673  0.92655  1.0000
  H   H520      1.0  0.54091  0.13052  0.95934  1.0000
  H   H521      1.0  0.97718  0.26502  0.52488  1.0000
  C   C303      1.0  0.99471  0.10538  0.93856  1.0000
  H   H522      1.0  0.86173  0.08316  0.94706  1.0000
  H   H523      1.0  0.91292  0.05324  0.88939  1.0000
  H   H524      1.0  0.97436  0.06926  0.97578  1.0000
  H   H525      1.0  0.63742  0.11985  0.87871  1.0000
  H   H526      1.0  0.59207  0.15012  0.85216  1.0000
  N   N22       1.0  0.54865  0.15478  0.88406  1.0000
  H   H527      1.0  0.98745  0.10165  0.85232  1.0000
  C   C304      1.0  0.53375  0.13049  0.93150  1.0000
  S   S89       1.0  0.52593  0.24148  0.82847  1.0000
  H   H528      1.0  0.85502  0.04962  0.97168  1.0000
  H   H529      1.0  0.98446  0.10015  0.91254  1.0000
  C   C305      1.0  0.88904  0.05685  0.98374  1.0000
  C   C306      1.0  0.73507  0.31740  0.69203  1.0000
  H   H530      1.0  0.96445  0.17728  0.90038  1.0000
  H   H531      1.0  0.91865  0.16491  0.86772  1.0000
  H   H532      1.0  0.69006  0.31095  0.58547  1.0000
  H   H533      1.0  0.51340  0.14273  0.83413  1.0000
  H   H534      1.0  0.50997  0.18520  0.87746  1.0000
  H   H535      1.0  0.96163  0.13911  0.99250  1.0000
  H   H536      1.0  0.96479  0.05823  0.92132  1.0000
  C   C307      1.0  0.98478  0.11339  0.83134  1.0000
  H   H537      1.0  0.95703  0.01146  0.98964  1.0000
  H   H538      1.0  0.55122  0.11604  0.92489  1.0000
  H   H539      1.0  0.51232  0.12426  0.86667  1.0000
  C   C308      1.0  0.97182  0.05357  0.98852  1.0000
  H   H540      1.0  0.70862  0.98975  0.75835  1.0000
  H   H541      1.0  0.52788  0.16549  0.92744  1.0000
  C   C309      1.0  0.51053  0.14203  0.86032  1.0000
  C   C310      1.0  0.49632  0.22101  0.97831  1.0000
  H   H542      1.0  0.49662  0.12824  0.92085  1.0000
  H   H543      1.0  0.89088  0.99060  0.99302  1.0000
  C   C311      1.0  0.86389  0.31951  0.63557  1.0000
  H   H544      1.0  0.50926  0.41177  0.44917  1.0000
  C   C312      1.0  0.51139  0.36068  0.45552  1.0000
  C   C313      1.0  0.53810  0.65235  0.10433  1.0000
  H   H545      1.0  0.52300  0.33264  0.27459  1.0000
  H   H546      1.0  0.58230  0.36403  0.35585  1.0000
  C   C314      1.0  0.88437  0.63730  0.24049  1.0000
  H   H547      1.0  0.53921  0.33353  0.36977  1.0000
  H   H548      1.0  0.56526  0.64196  0.12094  1.0000
  H   H549      1.0  0.54211  0.62683  0.16905  1.0000
  C   C315      1.0  0.51747  0.60574  0.46717  1.0000
  H   H550      1.0  0.53765  0.35640  0.44412  1.0000
  H   H551      1.0  0.56293  0.35805  0.31194  1.0000
  C   C316      1.0  0.57028  0.35053  0.33726  1.0000
  C   C317      1.0  0.50534  0.42519  0.46624  1.0000
  H   H552      1.0  0.53986  0.43171  0.47853  1.0000
  H   H553      1.0  0.98881  0.35376  0.40935  1.0000
  H   H554      1.0  0.54256  0.60826  0.45396  1.0000
  H   H555      1.0  0.51172  0.61368  0.11006  1.0000
  C   C318      1.0  0.91561  0.61778  0.25634  1.0000
  H   H556      1.0  0.52789  0.63081  0.05944  1.0000
  H   H557      1.0  0.87427  0.63428  0.21280  1.0000
  H   H558      1.0  0.59869  0.33865  0.34116  1.0000
  H   H559      1.0  0.93011  0.61912  0.28394  1.0000
  H   H560      1.0  0.85251  0.63547  0.24777  1.0000
  H   H561      1.0  0.96428  0.34067  0.29901  1.0000
  H   H562      1.0  0.53173  0.64604  0.19887  1.0000
  H   H563      1.0  0.89725  0.64052  0.31310  1.0000
  H   H564      1.0  0.89559  0.60230  0.25123  1.0000
  H   H565      1.0  0.97292  0.64991  0.27340  1.0000
  H   H566      1.0  0.50376  0.35341  0.34411  1.0000
  H   H567      1.0  0.97192  0.33078  0.35815  1.0000
  C   C319      1.0  0.52805  0.33991  0.34355  1.0000
  H   H568      1.0  0.94378  0.61575  0.24500  1.0000
  H   H569      1.0  0.57575  0.64884  0.06770  1.0000
  C   C320      1.0  0.53771  0.64454  0.17381  1.0000
  C   C321      1.0  0.52330  0.36624  0.48996  1.0000
  N   N23       1.0  0.50524  0.32208  0.31916  1.0000
  C   C322      1.0  0.53998  0.64759  0.06816  1.0000
  H   H570      1.0  0.95041  0.64246  0.20689  1.0000
  C   C323      1.0  0.99475  0.33151  0.31389  1.0000
  Fe  Fe44      1.0  0.61782  0.35774  0.65514  1.0000
  S   S90       1.0  0.61279  0.34755  0.60194  1.0000
  H   H571      1.0  0.88881  0.41591  0.66328  1.0000
  Fe  Fe45      1.0  0.63573  0.40675  0.64016  1.0000
  S   S91       1.0  0.63223  0.39921  0.58643  1.0000
  S   S92       1.0  0.64681  0.44118  0.66476  1.0000
  Fe  Fe46      1.0  0.57181  0.37839  0.58594  1.0000
  H   H572      1.0  0.56893  0.51284  0.56563  1.0000
  Fe  Fe47      1.0  0.67403  0.36892  0.60739  1.0000
  S   S93       1.0  0.73046  0.35693  0.58599  1.0000
  S   S94       1.0  0.57273  0.38736  0.63890  1.0000
  S   S95       1.0  0.68160  0.37769  0.66127  1.0000
  Fe  Fe48      1.0  0.65694  0.57586  0.63219  1.0000
  S   S96       1.0  0.64523  0.59792  0.58653  1.0000
  S   S97       1.0  0.67159  0.54023  0.61836  1.0000
  Fe  Fe49      1.0  0.63390  0.61438  0.67385  1.0000
  S   S98       1.0  0.61864  0.63765  0.63015  1.0000
  H   H573      1.0  0.56990  0.57071  0.55035  1.0000
  Fe  Fe50      1.0  0.58286  0.60906  0.59913  1.0000
  H   H574      1.0  0.72468  0.33471  0.69440  1.0000
  Fe  Fe51      1.0  0.68293  0.62454  0.62172  1.0000
  H   H575      1.0  0.50039  0.55448  0.51283  1.0000
  S   S99       1.0  0.59303  0.58648  0.64375  1.0000
  S   S100      1.0  0.69985  0.60191  0.66649  1.0000
  H   H576      1.0  0.76890  0.47098  0.63753  1.0000
  C   C324      1.0  0.51783  0.32803  0.73668  1.0000
  C   C325      1.0  0.59083  0.64383  0.73436  1.0000
  C   C326      1.0  0.78135  0.46089  0.66071  1.0000
  H   H577      1.0  0.86067  0.33458  0.68189  1.0000
  C   C327      1.0  0.53487  0.50173  0.60009  1.0000
  H   H578      1.0  0.53270  0.56447  0.58679  1.0000
  H   H579      1.0  0.54256  0.35108  0.70627  1.0000
  S   S101      1.0  0.63544  0.62869  0.72519  1.0000
  H   H580      1.0  0.88869  0.39449  0.63353  1.0000
  C   C328      1.0  0.80230  0.34371  0.64070  1.0000
  H   H581      1.0  0.55851  0.36629  0.50493  1.0000
  H   H582      1.0  0.78266  0.39034  0.67522  1.0000
  H   H583      1.0  0.78717  0.35359  0.65623  1.0000
  N   N24       1.0  0.79332  0.41944  0.64854  1.0000
  C   C329      1.0  0.54614  0.33477  0.71720  1.0000
  C   C330      1.0  0.65173  0.46863  0.65056  1.0000
  C   C331      1.0  0.65049  0.48648  0.67206  1.0000
  C   C332      1.0  0.65546  0.50847  0.66247  1.0000
  C   C333      1.0  0.66290  0.51293  0.63145  1.0000
  C   C334      1.0  0.66431  0.49507  0.60997  1.0000
  C   C335      1.0  0.65823  0.47313  0.61923  1.0000
  H   H584      1.0  0.64561  0.48328  0.69641  1.0000
  H   H585      1.0  0.65447  0.52191  0.67940  1.0000
  H   H586      1.0  0.67008  0.49827  0.58594  1.0000
  H   H587      1.0  0.65913  0.45970  0.60232  1.0000
  H   H588      1.0  0.50968  0.54163  0.62769  1.0000
  H   H589      1.0  0.51167  0.50673  0.61466  1.0000
  C   C336      1.0  0.54846  0.52088  0.58052  1.0000
  H   H590      1.0  0.80098  0.47245  0.68034  1.0000
  C   C337      1.0  0.57987  0.32063  0.71280  1.0000
  S   S102      1.0  0.51095  0.61003  0.56347  1.0000
  H   H591      1.0  0.87296  0.61927  0.59252  1.0000
  S   S103      1.0  0.72816  0.65047  0.60718  1.0000
  H   H592      1.0  0.86393  0.62270  0.54746  1.0000
  C   C338      1.0  0.49770  0.60535  0.51967  1.0000
  C   C339      1.0  0.82090  0.40618  0.63060  1.0000
  H   H593      1.0  0.84357  0.44206  0.67828  1.0000
  C   C340      1.0  0.57133  0.55495  0.53730  1.0000
  H   H594      1.0  0.73247  0.42008  0.69026  1.0000
  C   C341      1.0  0.80118  0.32902  0.58635  1.0000
  H   H595      1.0  0.57293  0.53146  0.59924  1.0000
  C   C342      1.0  0.52548  0.54273  0.52858  1.0000
  H   H596      1.0  0.56500  0.61135  0.51633  1.0000
  C   C343      1.0  0.50139  0.55461  0.57686  1.0000
  H   H597      1.0  0.75209  0.45556  0.66899  1.0000
  H   H598      1.0  0.80425  0.39007  0.62182  1.0000
  C   C344      1.0  0.81332  0.44227  0.65565  1.0000
  N   N25       1.0  0.51056  0.53470  0.55812  1.0000
  C   C345      1.0  0.54631  0.64337  0.71310  1.0000
  H   H599      1.0  0.83062  0.40620  0.69736  1.0000
  H   H600      1.0  0.82599  0.44779  0.63445  1.0000
  H   H601      1.0  0.72169  0.42830  0.63718  1.0000
  C   C346      1.0  0.78098  0.34211  0.60605  1.0000
  H   H602      1.0  0.78428  0.43376  0.71441  1.0000
  H   H603      1.0  0.70170  0.43234  0.57835  1.0000
  H   H604      1.0  0.82285  0.41478  0.60741  1.0000
  H   H605      1.0  0.74995  0.41788  0.57402  1.0000
  H   H606      1.0  0.75577  0.44555  0.59140  1.0000
  C   C347      1.0  0.87037  0.40107  0.65092  1.0000
  C   C348      1.0  0.74517  0.41956  0.62585  1.0000
  H   H607      1.0  0.73183  0.40242  0.62197  1.0000
  H   H608      1.0  0.87198  0.38793  0.66983  1.0000
  C   C349      1.0  0.84388  0.33281  0.65521  1.0000
  C   C350      1.0  0.76894  0.41794  0.70336  1.0000
  C   C351      1.0  0.73843  0.42951  0.59053  1.0000
  C   C352      1.0  0.79517  0.40754  0.68080  1.0000
  H   H609      1.0  0.52782  0.52869  0.51181  1.0000
  H   H610      1.0  0.80182  0.63332  0.66368  1.0000
  H   H611      1.0  0.77095  0.40671  0.72486  1.0000
  C   C353      1.0  0.85604  0.62929  0.57002  1.0000
  H   H612      1.0  0.71961  0.32135  0.63872  1.0000
  H   H613      1.0  0.51938  0.48799  0.58291  1.0000
  H   H614      1.0  0.78520  0.32778  0.55949  1.0000
  S   S104      1.0  0.50273  0.38125  0.54694  1.0000
  H   H615      1.0  0.56581  0.49495  0.61836  1.0000
  H   H616      1.0  0.57910  0.55924  0.51357  1.0000
  H   H617      1.0  0.93004  0.63767  0.54145  1.0000
  H   H618      1.0  0.53836  0.63377  0.69014  1.0000
  H   H619      1.0  0.81899  0.62712  0.56592  1.0000
  H   H620      1.0  0.87919  0.64769  0.69166  1.0000
  H   H621      1.0  0.94321  0.63041  0.60089  1.0000
  C   C354      1.0  0.53028  0.60750  0.50251  1.0000
  S   S105      1.0  0.61891  0.32869  0.69067  1.0000
  H   H622      1.0  0.60005  0.54491  0.55252  1.0000
  C   C355      1.0  0.94771  0.64848  0.60448  1.0000
  C   C356      1.0  0.81200  0.64916  0.65644  1.0000
  H   H623      1.0  0.73405  0.64765  0.74669  1.0000
  H   H624      1.0  0.75638  0.63657  0.71522  1.0000
  H   H625      1.0  0.94122  0.65228  0.62901  1.0000
  C   C357      1.0  0.74966  0.65226  0.72675  1.0000
  H   H626      1.0  0.92577  0.80449  0.10536  1.0000
  S   S106      1.0  0.52748  0.75822  0.12506  1.0000
  Fe  Fe52      1.0  0.51596  0.72250  0.11152  1.0000
  H   H627      1.0  0.79489  0.78590  0.31418  1.0000
  Fe  Fe53      1.0  0.57103  0.74619  0.17606  1.0000
  S   S107      1.0  0.64171  0.76122  0.20125  1.0000
  S   S108      1.0  0.56225  0.71059  0.16141  1.0000
  Fe  Fe54      1.0  0.91048  0.73163  0.30069  1.0000
  S   S109      1.0  0.93832  0.76558  0.31541  1.0000
  S   S110      1.0  0.83596  0.72022  0.28150  1.0000
  H   H628      1.0  0.89508  0.73460  0.40224  1.0000
  Fe  Fe55      1.0  0.98148  0.74921  0.36331  1.0000
  C   C358      1.0  0.59044  0.75405  0.99845  1.0000
  N   N26       1.0  0.95584  0.84752  0.10015  1.0000
  S   S111      1.0  0.95168  0.71561  0.34907  1.0000
  S   S112      1.0  0.96389  0.72371  0.27539  1.0000
  H   H629      1.0  0.81520  0.68712  0.18812  1.0000
  H   H630      1.0  0.87144  0.80054  0.32659  1.0000
  H   H631      1.0  0.73549  0.79182  0.40635  1.0000
  H   H632      1.0  0.96133  0.87981  0.07936  1.0000
  H   H633      1.0  0.97728  0.78616  0.47497  1.0000
  C   C359      1.0  0.69578  0.74911  0.22186  1.0000
  C   C360      1.0  0.70058  0.72705  0.23216  1.0000
  C   C361      1.0  0.74368  0.71857  0.25000  1.0000
  C   C362      1.0  0.78285  0.73185  0.25760  1.0000
  C   C363      1.0  0.77825  0.75382  0.24691  1.0000
  C   C364      1.0  0.73504  0.76236  0.22934  1.0000
  H   H634      1.0  0.67091  0.71662  0.22686  1.0000
  H   H635      1.0  0.74655  0.70158  0.25816  1.0000
  H   H636      1.0  0.80783  0.76431  0.25232  1.0000
  H   H637      1.0  0.73193  0.77944  0.22154  1.0000
  C   C365      1.0  0.98599  0.75458  0.45375  1.0000
  H   H638      1.0  0.89027  0.74887  0.36404  1.0000
  H   H639      1.0  0.89448  0.69256  0.22532  1.0000
  C   C366      1.0  0.96881  0.65652  0.22176  1.0000
  H   H640      1.0  0.90937  0.66625  0.33418  1.0000
  C   C367      1.0  0.98244  0.76870  0.47988  1.0000
  H   H641      1.0  0.88921  0.78791  0.36700  1.0000
  C   C368      1.0  0.93810  0.83827  0.12755  1.0000
  H   H642      1.0  0.78613  0.73773  0.32965  1.0000
  C   C369      1.0  0.87850  0.84395  0.05424  1.0000
  H   H643      1.0  0.86301  0.83519  0.03008  1.0000
  C   C370      1.0  0.93512  0.81301  0.12994  1.0000
  H   H644      1.0  0.90590  0.68643  0.28461  1.0000
  H   H645      1.0  0.94416  0.84692  0.04620  1.0000
  H   H646      1.0  0.70606  0.74215  0.30462  1.0000
  H   H647      1.0  0.81125  0.66113  0.20724  1.0000
  H   H648      1.0  0.85989  0.77053  0.40464  1.0000
  C   C371      1.0  0.92997  0.83943  0.06544  1.0000
  H   H649      1.0  0.82335  0.74840  0.40621  1.0000
  H   H650      1.0  0.90443  0.84539  0.12661  1.0000
  H   H651      1.0  0.70266  0.76628  0.32826  1.0000
  C   C372      1.0  0.88037  0.67556  0.22016  1.0000
  H   H652      1.0  0.83530  0.76452  0.32081  1.0000
  C   C373      1.0  0.95037  0.87227  0.10016  1.0000
  H   H653      1.0  0.84669  0.80951  0.35801  1.0000
  H   H654      1.0  0.96014  0.84354  0.15275  1.0000
  H   H655      1.0  0.87087  0.86168  0.04895  1.0000
  H   H656      1.0  0.95140  0.90069  0.01462  1.0000
  H   H657      1.0  0.81763  0.68649  0.23122  1.0000
  H   H658      1.0  0.75961  0.73902  0.36200  1.0000
  C   C374      1.0  0.95374  0.66130  0.25342  1.0000
  H   H659      1.0  0.90764  0.80879  0.14121  1.0000
  H   H660      1.0  0.86168  0.83780  0.07268  1.0000
  C   C375      1.0  0.82823  0.67740  0.21164  1.0000
  C   C376      1.0  0.99278  0.73207  0.46064  1.0000
  H   H661      1.0  0.96740  0.80610  0.14640  1.0000
  H   H662      1.0  0.77495  0.77000  0.42154  1.0000
  S   S113      1.0  0.52572  0.70707  0.06356  1.0000
  H   H663      1.0  0.75351  0.79421  0.35282  1.0000
  H   H664      1.0  0.72470  0.76543  0.38669  1.0000
  H   H665      1.0  0.80241  0.79769  0.38773  1.0000
  S   S114      1.0  0.98202  0.76595  0.41325  1.0000
  H   H666      1.0  0.93392  0.82147  0.06255  1.0000
  H   H667      1.0  0.85185  0.72654  0.36507  1.0000
  H   H668      1.0  0.95187  0.65407  0.31890  1.0000
  N   N27       1.0  0.80181  0.76736  0.36003  1.0000
  C   C377      1.0  0.82161  0.77746  0.33427  1.0000
  C   C378      1.0  0.76943  0.74933  0.34311  1.0000
  C   C379      1.0  0.83839  0.75748  0.38886  1.0000
  C   C380      1.0  0.77784  0.78512  0.37373  1.0000
  C   C381      1.0  0.85927  0.79475  0.34780  1.0000
  C   C382      1.0  0.72529  0.75691  0.31682  1.0000
  C   C383      1.0  0.87025  0.74094  0.37897  1.0000
  C   C384      1.0  0.75195  0.77734  0.39837  1.0000
  H   H669      1.0  0.52084  0.65998  0.04987  1.0000
  H   H670      1.0  0.73188  0.76684  0.29645  1.0000
  H   H671      1.0  0.91422  0.87701  0.09546  1.0000
  H   H672      1.0  0.88678  0.67027  0.19630  1.0000
  Fe  Fe56      1.0  0.50054  0.71141  0.18024  1.0000
  H   H673      1.0  0.96703  0.67790  0.26247  1.0000
  H   H674      1.0  0.54347  0.69263  0.00258  1.0000
  H   H675      1.0  0.54913  0.66974  0.11048  1.0000
  C   C385      1.0  0.97597  0.88428  0.13302  1.0000
  S   S115      1.0  0.51138  0.74673  0.19762  1.0000
  H   H676      1.0  0.62727  0.75729  0.00848  1.0000
  C   C386      1.0  0.51800  0.70544  0.99566  1.0000
  C   C387      1.0  0.96460  0.88529  0.00820  1.0000
  C   C388      1.0  0.50310  0.71581  0.02093  1.0000
  H   H677      1.0  0.57673  0.75432  0.02043  1.0000
  C   C389      1.0  0.89397  0.66909  0.28005  1.0000
  H   H678      1.0  0.97270  0.90236  0.12878  1.0000
  H   H679      1.0  0.96148  0.88054  0.15391  1.0000
  N   N28       1.0  0.90339  0.66023  0.24874  1.0000
  H   H680      1.0  0.85698  0.66962  0.27709  1.0000
  C   C390      1.0  0.91477  0.65643  0.31304  1.0000
  H   H681      1.0  0.50171  0.67322  0.14950  1.0000
  H   H682      1.0  0.96417  0.67134  0.20543  1.0000
  H   H683      1.0  0.50118  0.65595  0.45051  1.0000
  C   C391      1.0  0.49771  0.65505  0.14670  1.0000
  Fe  Fe57      1.0  0.99506  0.75673  0.29326  1.0000
  H   H684      1.0  0.56976  0.65345  0.17553  1.0000
  H   H685      1.0  0.73279  0.66684  0.67803  1.0000
  S   S116      1.0  0.58495  0.77130  0.83196  1.0000
  H   H686      1.0  0.70046  0.90910  0.84593  1.0000
  Fe  Fe58      1.0  0.77246  0.86706  0.84121  1.0000
  S   S117      1.0  0.80553  0.87655  0.80119  1.0000
  S   S118      1.0  0.69565  0.86030  0.82726  1.0000
  Fe  Fe59      1.0  0.85924  0.87815  0.89825  1.0000
  S   S119      1.0  0.89732  0.88814  0.86203  1.0000
  S   S120      1.0  0.88741  0.88431  0.95472  1.0000
  Fe  Fe60      1.0  0.83363  0.90621  0.83411  1.0000
  S   S121      1.0  0.83526  0.94097  0.81202  1.0000
  Fe  Fe61      1.0  0.86657  0.85784  0.83246  1.0000
  S   S122      1.0  0.91333  0.83233  0.81847  1.0000
  S   S123      1.0  0.79713  0.89782  0.87179  1.0000
  S   S124      1.0  0.83190  0.84675  0.87093  1.0000
  Fe  Fe62      1.0  0.96525  0.71619  0.66936  1.0000
  S   S125      1.0  0.93489  0.74226  0.63125  1.0000
  S   S126      1.0  0.92777  0.68592  0.68093  1.0000
  H   H687      1.0  0.65132  0.67607  0.72421  1.0000
  S   S127      1.0  0.94634  0.79805  0.68088  1.0000
  H   H688      1.0  0.63482  0.90466  0.79965  1.0000
  C   C392      1.0  0.88428  0.70026  0.55964  1.0000
  H   H689      1.0  0.97495  0.78124  0.75040  1.0000
  C   C393      1.0  0.95720  0.85381  0.97126  1.0000
  H   H690      1.0  0.61947  0.73277  0.90818  1.0000
  H   H691      1.0  0.93813  0.84460  0.94935  1.0000
  C   C394      1.0  0.92001  0.82264  0.77947  1.0000
  C   C395      1.0  0.94669  0.80374  0.77962  1.0000
  C   C396      1.0  0.95431  0.79575  0.74971  1.0000
  C   C397      1.0  0.93586  0.80676  0.71915  1.0000
  C   C398      1.0  0.90919  0.82568  0.71899  1.0000
  C   C399      1.0  0.90102  0.83349  0.74883  1.0000
  C   C400      1.0  0.95768  0.66894  0.53192  1.0000
  H   H692      1.0  0.63451  0.65670  0.78103  1.0000
  H   H693      1.0  0.88061  0.84808  0.74820  1.0000
  C   C401      1.0  0.82951  0.96849  0.82613  1.0000
  H   H694      1.0  0.89631  0.71759  0.56346  1.0000
  C   C402      1.0  0.82050  0.97303  0.85665  1.0000
  H   H695      1.0  0.81801  0.95960  0.87310  1.0000
  C   C403      1.0  0.67798  0.70188  0.67997  1.0000
  C   C404      1.0  0.61460  0.79629  0.82978  1.0000
  C   C405      1.0  0.59238  0.81617  0.81839  1.0000
  C   C406      1.0  0.61771  0.83552  0.81784  1.0000
  C   C407      1.0  0.66553  0.83531  0.82857  1.0000
  C   C408      1.0  0.68770  0.81544  0.84008  1.0000
  C   C409      1.0  0.66239  0.79613  0.84069  1.0000
  H   H696      1.0  0.55572  0.81665  0.80995  1.0000
  H   H697      1.0  0.60009  0.85074  0.80887  1.0000
  H   H698      1.0  0.72437  0.81492  0.84838  1.0000
  H   H699      1.0  0.68008  0.78089  0.84952  1.0000
  H   H700      1.0  0.58444  0.92050  0.78622  1.0000
  H   H701      1.0  0.98599  0.67532  0.55275  1.0000
  Fe  Fe63      1.0  0.51412  0.75532  0.81882  1.0000
  C   C410      1.0  0.83283  0.98636  0.80533  1.0000
  H   H702      1.0  0.89482  0.83439  0.69559  1.0000
  C   C411      1.0  0.62910  0.78022  0.95058  1.0000
  C   C412      1.0  0.69283  0.92666  0.84898  1.0000
  H   H703      1.0  0.64183  0.69679  0.67493  1.0000
  S   S128      1.0  0.52032  0.72212  0.84454  1.0000
  C   C413      1.0  0.61595  0.91611  0.77983  1.0000
  H   H704      1.0  0.98276  0.77163  0.53206  1.0000
  H   H705      1.0  0.63387  0.80005  0.90709  1.0000
  C   C414      1.0  0.83970  0.69007  0.63773  1.0000
  C   C415      1.0  0.87036  0.67768  0.66271  1.0000
  H   H706      1.0  0.88916  0.65808  0.52220  1.0000
  C   C416      1.0  0.60166  0.73441  0.92782  1.0000
  H   H707      1.0  0.85003  0.70583  0.63033  1.0000
  H   H708      1.0  0.51153  0.70306  0.94231  1.0000
  H   H709      1.0  0.86130  0.65834  0.60013  1.0000
  H   H710      1.0  0.91562  0.68838  0.60981  1.0000
  N   N29       1.0  0.70791  0.68937  0.70972  1.0000
  C   C417      1.0  0.68162  0.68662  0.73498  1.0000
  H   H711      1.0  0.71080  0.93105  0.87552  1.0000
  H   H712      1.0  0.72263  0.98438  0.80218  1.0000
  C   C418      1.0  0.75049  0.70215  0.72640  1.0000
  C   C419      1.0  0.66424  0.70800  0.74729  1.0000
  C   C420      1.0  0.70150  0.90885  0.74417  1.0000
  H   H713      1.0  0.56869  0.78753  0.98687  1.0000
  C   C421      1.0  0.78597  0.70421  0.70694  1.0000
  H   H714      1.0  0.98717  0.92026  0.94720  1.0000
  H   H715      1.0  0.63581  0.79522  0.96683  1.0000
  C   C422      1.0  0.70044  0.97887  0.77728  1.0000
  H   H716      1.0  0.70212  0.67799  0.75801  1.0000
  C   C423      1.0  0.56580  0.66823  0.77279  1.0000
  H   H717      1.0  0.64143  0.77076  0.90252  1.0000
  H   H718      1.0  0.74200  0.71938  0.73152  1.0000
  H   H719      1.0  0.76792  0.69561  0.75198  1.0000
  H   H720      1.0  0.64455  0.70353  0.76489  1.0000
  H   H721      1.0  0.69237  0.71876  0.76151  1.0000
  H   H722      1.0  0.64077  0.71735  0.72644  1.0000
  H   H723      1.0  0.53406  0.74755  0.91910  1.0000
  H   H724      1.0  0.68520  0.78690  0.93000  1.0000
  C   C424      1.0  0.92152  0.65544  0.54256  1.0000
  C   C425      1.0  0.68806  0.69926  0.64590  1.0000
  C   C426      1.0  0.64786  0.78467  0.92059  1.0000
  H   H725      1.0  0.72407  0.70185  0.64756  1.0000
  H   H726      1.0  0.77915  0.71886  0.69022  1.0000
  H   H727      1.0  0.78872  0.68944  0.69214  1.0000
  H   H728      1.0  0.82025  0.70604  0.72518  1.0000
  N   N30       1.0  0.69231  0.93714  0.78829  1.0000
  C   C427      1.0  0.71052  0.95475  0.76998  1.0000
  C   C428      1.0  0.71228  0.91553  0.78154  1.0000
  C   C429      1.0  0.70930  0.94203  0.82552  1.0000
  C   C430      1.0  0.64113  0.93757  0.77585  1.0000
  H   H729      1.0  0.69893  0.95875  0.83130  1.0000
  C   C431      1.0  0.93994  0.87368  0.97938  1.0000
  H   H730      1.0  0.58233  0.71884  0.92668  1.0000
  C   C432      1.0  0.71769  0.66654  0.69912  1.0000
  H   H731      1.0  0.74793  0.95333  0.77552  1.0000
  H   H732      1.0  0.69693  0.95260  0.74222  1.0000
  H   H733      1.0  0.70219  0.90160  0.79483  1.0000
  H   H734      1.0  0.74989  0.91599  0.79190  1.0000
  H   H735      1.0  0.74710  0.94190  0.83407  1.0000
  H   H736      1.0  0.68547  0.65724  0.68902  1.0000
  H   H737      1.0  0.62772  0.95113  0.78838  1.0000
  H   H738      1.0  0.62964  0.94144  0.74843  1.0000
  C   C433      1.0  0.51155  0.65465  0.72221  1.0000
  H   H739      1.0  0.56444  0.75833  0.89275  1.0000
  H   H740      1.0  0.84130  0.66290  0.55606  1.0000
  H   H741      1.0  0.65112  0.76744  0.96606  1.0000
  H   H742      1.0  0.77317  0.69107  0.60149  1.0000
  H   H743      1.0  0.58399  0.73723  0.98784  1.0000
  H   H744      1.0  0.96162  0.79519  0.80308  1.0000
  H   H745      1.0  0.96564  0.89529  0.92649  1.0000
  C   C434      1.0  0.79608  0.68165  0.62144  1.0000
  C   C435      1.0  0.98559  0.76051  0.51237  1.0000
  H   H746      1.0  0.87988  0.69606  0.53293  1.0000
  H   H747      1.0  0.66503  0.91044  0.73042  1.0000
  N   N31       1.0  0.57948  0.77425  0.94139  1.0000
  C   C436      1.0  0.55335  0.79355  0.92198  1.0000
  H   H748      1.0  0.60452  0.90706  0.75553  1.0000
  C   C437      1.0  0.56527  0.77156  0.97302  1.0000
  C   C438      1.0  0.56791  0.75398  0.91942  1.0000
  H   H749      1.0  0.67872  0.71986  0.68551  1.0000
  H   H750      1.0  0.57351  0.67750  0.79605  1.0000
  C   C439      1.0  0.50149  0.79314  0.91570  1.0000
  H   H751      1.0  0.65610  0.92887  0.84574  1.0000
  Fe  Fe64      1.0  0.97810  0.76567  0.67023  1.0000
  H   H752      1.0  0.55881  0.79489  0.89664  1.0000
  H   H753      1.0  0.94164  0.68280  0.51520  1.0000
  H   H754      1.0  0.56568  0.80942  0.93500  1.0000
  H   H755      1.0  0.83976  0.98315  0.78166  1.0000
  H   H756      1.0  0.52883  0.76690  0.96678  1.0000
  H   H757      1.0  0.72192  0.91860  0.73128  1.0000
  C   C440      1.0  0.52096  0.66715  0.75208  1.0000
  H   H758      1.0  0.85092  0.69979  0.56479  1.0000
  H   H759      1.0  0.62708  0.73485  0.95278  1.0000
  C   C441      1.0  0.91895  0.68522  0.58424  1.0000
  H   H760      1.0  0.67712  0.68281  0.63478  1.0000
  H   H761      1.0  0.66800  0.71159  0.62787  1.0000
  H   H762      1.0  0.78300  0.66022  0.73793  1.0000
  H   H763      1.0  0.95298  0.69165  0.58576  1.0000
  H   H764      1.0  0.71113  0.89130  0.74267  1.0000
  C   C442      1.0  0.99394  0.90719  0.93051  1.0000
  H   H765      1.0  0.99308  0.87531  0.88943  1.0000
  H   H766      1.0  0.66433  0.98156  0.77570  1.0000
  C   C443      1.0  0.85590  0.65737  0.67227  1.0000
  C   C444      1.0  0.50010  0.71139  0.96142  1.0000
  C   C445      1.0  0.99256  0.73800  0.51927  1.0000
  C   C446      1.0  0.78208  0.66107  0.63045  1.0000
  C   C447      1.0  0.86754  0.65399  0.57593  1.0000
  H   H767      1.0  0.99302  0.91503  0.90636  1.0000
  C   C448      1.0  0.60032  0.65635  0.76422  1.0000
  N   N32       1.0  0.91475  0.66091  0.57628  1.0000
  H   H768      1.0  0.97313  0.65833  0.51639  1.0000
