data_image0
_chemical_formula_structural       CFeS2CNH3CSHC2FeS2FeSFeC5H3C7H4CH2CH2CH2C3H2CHNHNC3H3SCHCH2CH2CH2CH4CH4SH4CHSHC2FeSH4CFeH4CH4CHSH2CHC2H2CSH2CHC3H6CHCH5CH4CFeSFeS2FeSFeS3CS2FeSCFeS2FeS2FeSFeS3FeS2FeS2FeSFeS3CHSH5CHC6H4CHC6H5CH3C6H5C4H3NH3C4H4C4H3C4H4CH2C2HCFeC2H2CH2C4SH5CH4C2HCHCHC2HC2SHCH9CH2CH2NC8H10CH9CSHC2H3C2H6CH6CHSC4SH8CH2C2H3N2HNHCH2CH2C3H4C2NC3H7C5HCHCH7FeH4CH2NCHFeCH11SH8CHC2H5CH2CH2NCH2FeS2FeS2FeSFeS2NFeS2FeS2Fe2S3CHCSNHCH2C2H2C6H4CH4C6H4C6H4CH2CHCHC3HCH5CH5C2HCH6CH2CNCH5CHC2HC3H7C2H3C2H4CH5NC7H19FeCH10CNFeCSHCSFeS2FeSFeSFeS3FeHSFe2S2FeS2FeS2FeSFeS3FeS2FeS2FeSFeS3H3C3H2CH6C6H6C6H4C2H2C7H5C6H4CHC6H4NC7HCH8CH5CHS3H2C4HNHCH2C3HC2H4CHC2H4CH3C2H3NC8H21C2NC8H20CH2C5SH2CH3CH5CH3FeH6SCH2CNCH4CH12SH2NH3CH8SCH7NC2H3NH2CHCH2FeS2CH2FeSNSHSFeS2FeCFeS2FeS2FeS2FeSFeS3FeS2FeS2FeSFeS3H2C2HC3H3C3HC4HC2H6C6H7C6H4C4HCH9C6H4C6H5CNSHC2FeHCHCH6NC3SCHNH2CHCH2CH2CH5CHCHNC2H4CFeSH5C3H4CH7SCH3CHCHCH4CH4CH2CHNC5HCH13C2H2C2H18C2H3CHCNCHC2HC2H3CH2NHCH2CH4CH2CH4C2HC2HCH5C2HC2H3C2H3SCSH3NH3C4HCH2CHCH3S2FeS2FeSCHSHFeS2FeSFeSNC2H2CH3C8H2FeHC2HC4HCH2C8H8CH2CHCHCH10SH7NHCH5C2H3C2HCH2C3H3SHCFeSHCH2SH3C2HCH3SH3CH3CHNHCH2CHFeSCFeS2FeSFeS3FeSHFeS2FeSFeS4HSFeS2FeSHFeSFeS3CHSH4SHCH4CHSHCHSC6H5C6H4CFeHNC6H2FeH3CHC7H4C6H6CSCH2CHCH2C2NC8H25CH2CH2CHCHCH6CH2NHNC8H11SH3C2H2CHCHCH4FeCSCH2CNCH5SH5CHNH2CH2CHNCHC2H2CHCH4CFeHCHCH2C2H4CHCH2CHSCH2CH3CH4C2H5CH3CHCH7NCHC3HCHCHCNHC2H4CH2CHCHFeS2FeSFeSFeS3CHSH4CHFeS2FeSFeSFeS3CHCH2C2H3CHFeH2NCHC4H2C6H4C6H4CH3CHCNCHCH2CH3CHC2HCH2CHCH4CH3CH2CH10CH2CH5CHCH9CH2CHC3HSH2C2HSCFeCH2CHNCSH2CHSH4CHC2HC2HC2HCH7N2H2C2HCH6CH2C2HCH8CFeSHFeCHFeS2FeS2HFeS2FeSHFeS2HC6H3C2H3C7H4C2H3CHC3H5CHNHNHNH3CHNCH3CH4CH2C2H2CHCH7CH2CHC3H3CHCH2C2HSCHSH2SH5CHCSH4C3HFeCH2C2HCHCH2CHC2FeHSFeS2FeS2FeS2Fe2S3FeS2FeS2FeSFeS3FeS2FeS2FeSFeS3C6H4C6H4C6H5NC4H5C5H2SHC3HC2H2CH4C3HC5H4C4H2C2H2CHCH4CSCH3CH4C3H4C2H2CH2CH2CH9CH2C4HNC2H3CH4CHC2H5NCHC2H13SC2HCH3NH2CHCH5NC8H20NC8H16C4NSFeH3CHCHCH6CHCH3CH2CHCH4CH10NH7CHFeS2FeS2FeSFeS2H2CS2CFeS2FeS2Fe2S3C6H4C6H4C6H5CH2C2H3CHCH2C2HN2HCHCH5C2HC2H6CH2NCHC3HC2HCHCH9C2H2SCHCHCNCH13SHCH4CSHC2H9FeH3C3H2CHCH4C2H2CH7CHSH3CH7CSC2SH2SFeS2FeS2FeSFeS3FeS2FeS2FeSFeS3FeS2HFeS2FeS2FeS2Fe2S3CHC6H6C6H4C6H4C6H4C6H5CHCH5C3H2CHCH5CH6NH4CNHC2NC5H15CH6NH5C3HCHCHCHCH2CH2CH4CH2CHCHCH2CH4CHNCH3NC8H20NHC7HCH4CHC6H3CH3CH4CH2NHCH3CH3C2H3C2HSH2CHCH4CH3CH2SHC2HCH2CH9C2H8CH3CH2FeH3CH2C2H2FeH7FeSFeS2FeS3FeH2FeS2FeSCS2FeS2FeS2FeSFeS3FeS2FeS2FeSFeS3H3C2H2C2H4C4H2C7H4C6H4C3HC2H4C6H4C3HC2HCH7C3HCH3CHSH3CHNC8H21CH2NC8H20C3H7FeH4C2HC3H7SHC3H6NH2CHC3H4CH5CH2CH2CHCHC3NH3C2H4NH5NCHC2H2C5H3C2H3SH3CH3CHC2HC3HCHFeNHCHCH4C2H4CH5CH3CH5CHFeS2HSH2FeH4SFeS2FeSH2SHC6H4C4HC7H5SH2CH5C2H3NCH7CH3SC2HC3NH4CH3CHNCH4CH2C2HCH2CH4SCSH2FeHCH2CHC2HFeC2H4C5HC2H6CH6NFeH2C3H3C2SCHCHSHCFeS2FeS2FeSFeS3FeSFeS2FeSFeS3FeS2FeS2FeSFeS5HSCHSHC2H2C6H4C6H4C3HC2H4C6H4C6H5FeH2C2H3CH2C2H2C2H6CHC4SH6CH4NH2CH3CHCH4C2SH2CHC2HSCH2CH2CH9CH3CH2NC8H13CHC3HNHCH2CH2CH5FeC4H10CH7CHSCH2CH2SNH3CH3CHCH3C2H2CHNHC3FeH3CH6NH3CHCH7CHNHCHC2HSH5FeH2NH3CHCHSCH6CHCHSH2FeS2FeS2FeSFeS2FeS2FeS2FeSFeS2H3CHCH2SC7H4C6H4C2H3CH5CH3C3H3CH2CH3C3H3C2H3CH2CHCH5C4H3CHC2H2CHCH3CH3NHCFeC2H2CHCH3C2HNHCH3CH2CH2SH2NH5CH2SCHC3H8CH5CH2C
_chemical_formula_sum              "C1344 Fe192 S384 N96 H2304"
_cell_length_a       49.3034
_cell_length_b       98.8487
_cell_length_c       52.3116
_cell_angle_alpha    84.7979
_cell_angle_beta     87.3318
_cell_angle_gamma    85.513

_space_group_name_H-M_alt    "P 1"
_space_group_IT_number       1

loop_
  _space_group_symop_operation_xyz
  'x, y, z'

loop_
  _atom_site_type_symbol
  _atom_site_label
  _atom_site_symmetry_multiplicity
  _atom_site_fract_x
  _atom_site_fract_y
  _atom_site_fract_z
  _atom_site_occupancy
  C   C1        1.0  0.44390  0.07773  0.00097  1.0000
  Fe  Fe1       1.0  0.15778  0.01580  0.36618  1.0000
  S   S1        1.0  0.14443  0.02196  0.32595  1.0000
  S   S2        1.0  0.16929  0.03037  0.39445  1.0000
  C   C2        1.0  0.49913  0.07235  0.01946  1.0000
  N   N1        1.0  0.09221  0.05427  0.35896  1.0000
  H   H1        1.0  0.22613  0.99929  0.44627  1.0000
  H   H2        1.0  0.18021  0.04599  0.43596  1.0000
  H   H3        1.0  0.07886  0.07562  0.35183  1.0000
  C   C3        1.0  0.26866  0.04856  0.16864  1.0000
  S   S3        1.0  0.39847  0.05086  0.02147  1.0000
  H   H4        1.0  0.12538  0.07473  0.37797  1.0000
  C   C4        1.0  0.07153  0.07056  0.39260  1.0000
  C   C5        1.0  0.46972  0.05397  0.03683  1.0000
  Fe  Fe2       1.0  0.36172  0.00996  0.14999  1.0000
  S   S4        1.0  0.37162  0.02030  0.18455  1.0000
  S   S5        1.0  0.33791  0.01913  0.11585  1.0000
  Fe  Fe3       1.0  0.41288  0.00852  0.18255  1.0000
  S   S6        1.0  0.45439  0.01775  0.17808  1.0000
  Fe  Fe4       1.0  0.35612  0.00164  0.20733  1.0000
  C   C6        1.0  0.28314  0.00728  0.27696  1.0000
  C   C7        1.0  0.26957  0.02622  0.15262  1.0000
  C   C8        1.0  0.12104  0.05816  0.35337  1.0000
  C   C9        1.0  0.48640  0.01289  0.19209  1.0000
  C   C10       1.0  0.03590  0.00860  0.33391  1.0000
  H   H5        1.0  0.47087  0.00023  0.22425  1.0000
  H   H6        1.0  0.01487  0.02801  0.32254  1.0000
  H   H7        1.0  0.31082  0.05004  0.15213  1.0000
  C   C11       1.0  0.17567  0.00260  0.47038  1.0000
  C   C12       1.0  0.38189  0.04141  0.04704  1.0000
  C   C13       1.0  0.39532  0.03795  0.07010  1.0000
  C   C14       1.0  0.38225  0.03089  0.09117  1.0000
  C   C15       1.0  0.35537  0.02757  0.08954  1.0000
  C   C16       1.0  0.34193  0.03104  0.06650  1.0000
  C   C17       1.0  0.35525  0.03777  0.04520  1.0000
  H   H8        1.0  0.41585  0.04082  0.07175  1.0000
  H   H9        1.0  0.39275  0.02834  0.10888  1.0000
  H   H10       1.0  0.32110  0.02854  0.06510  1.0000
  H   H11       1.0  0.34466  0.04050  0.02759  1.0000
  C   C18       1.0  0.27362  0.99965  0.23606  1.0000
  H   H12       1.0  0.13520  0.05784  0.39311  1.0000
  H   H13       1.0  0.06870  0.08184  0.39224  1.0000
  C   C19       1.0  0.29264  0.00354  0.25255  1.0000
  H   H14       1.0  0.27324  0.00639  0.13725  1.0000
  H   H15       1.0  0.06581  0.03064  0.40577  1.0000
  C   C20       1.0  0.23606  0.00384  0.26789  1.0000
  H   H16       1.0  0.22895  0.03245  0.18596  1.0000
  H   H17       1.0  0.22900  0.03225  0.23221  1.0000
  C   C21       1.0  0.15111  0.03294  0.42382  1.0000
  C   C22       1.0  0.12653  0.02707  0.43028  1.0000
  C   C23       1.0  0.11169  0.03010  0.45293  1.0000
  H   H18       1.0  0.05313  0.06674  0.40302  1.0000
  H   H19       1.0  0.25036  0.02982  0.14287  1.0000
  C   C24       1.0  0.16119  0.04142  0.44077  1.0000
  H   H20       1.0  0.11858  0.02045  0.41756  1.0000
  N   N2        1.0  0.48436  0.06028  0.01329  1.0000
  H   H21       1.0  0.32677  0.04484  0.19457  1.0000
  N   N3        1.0  0.27204  0.03348  0.17654  1.0000
  C   C25       1.0  0.46320  0.06539  0.99399  1.0000
  C   C26       1.0  0.01252  0.01754  0.32968  1.0000
  C   C27       1.0  0.06461  0.03689  0.38705  1.0000
  H   H22       1.0  0.39433  0.00702  0.04930  1.0000
  H   H23       1.0  0.39168  0.00518  0.01587  1.0000
  H   H24       1.0  0.13444  0.04911  0.34820  1.0000
  S   S7        1.0  0.20005  0.00509  0.27535  1.0000
  C   C28       1.0  0.31102  0.03891  0.20529  1.0000
  H   H25       1.0  0.48107  0.03168  0.00833  1.0000
  C   C29       1.0  0.48891  0.00405  0.21446  1.0000
  H   H26       1.0  0.05211  0.06475  0.35995  1.0000
  H   H27       1.0  0.50849  0.02485  0.16279  1.0000
  C   C30       1.0  0.24560  0.99993  0.24359  1.0000
  H   H28       1.0  0.28876  0.06524  0.14731  1.0000
  H   H29       1.0  0.24964  0.01843  0.19959  1.0000
  C   C31       1.0  0.49130  0.03755  0.99211  1.0000
  H   H30       1.0  0.47585  0.03890  0.06936  1.0000
  H   H31       1.0  0.45545  0.04654  0.03174  1.0000
  C   C32       1.0  0.19718  0.01127  0.48003  1.0000
  H   H32       1.0  0.48346  0.00312  0.10647  1.0000
  H   H33       1.0  0.26933  0.05474  0.18518  1.0000
  H   H34       1.0  0.05987  0.02992  0.37266  1.0000
  H   H35       1.0  0.08958  0.06743  0.40405  1.0000
  C   C33       1.0  0.07332  0.06652  0.36458  1.0000
  H   H36       1.0  0.06157  0.04554  0.33817  1.0000
  H   H37       1.0  0.29754  0.01024  0.29003  1.0000
  H   H38       1.0  0.29597  0.04586  0.21477  1.0000
  H   H39       1.0  0.32195  0.03277  0.22102  1.0000
  S   S8        1.0  0.40342  0.99984  0.14608  1.0000
  H   H40       1.0  0.09232  0.02581  0.45741  1.0000
  H   H41       1.0  0.15994  0.01029  0.46231  1.0000
  H   H42       1.0  0.48673  0.07841  0.03336  1.0000
  H   H43       1.0  0.24806  0.05136  0.16096  1.0000
  C   C34       1.0  0.03238  0.99505  0.34296  1.0000
  H   H44       1.0  0.07322  0.06806  0.31222  1.0000
  S   S9        1.0  0.06877  0.01487  0.32676  1.0000
  H   H45       1.0  0.31494  0.02759  0.17210  1.0000
  C   C35       1.0  0.13481  0.06442  0.37485  1.0000
  C   C36       1.0  0.29929  0.02910  0.18785  1.0000
  Fe  Fe5       1.0  0.11280  0.00655  0.33496  1.0000
  S   S10       1.0  0.18926  0.00006  0.35270  1.0000
  H   H46       1.0  0.34041  0.00175  0.07277  1.0000
  H   H47       1.0  0.15645  0.06567  0.36884  1.0000
  H   H48       1.0  0.12216  0.06584  0.33656  1.0000
  H   H49       1.0  0.26499  0.03134  0.23297  1.0000
  C   C37       1.0  0.24758  0.03553  0.22124  1.0000
  Fe  Fe6       1.0  0.17351  0.00477  0.31313  1.0000
  H   H50       1.0  0.28634  0.02858  0.13835  1.0000
  H   H51       1.0  0.20384  0.01888  0.46451  1.0000
  H   H52       1.0  0.15794  0.00152  0.42177  1.0000
  H   H53       1.0  0.28485  0.05135  0.12864  1.0000
  C   C38       1.0  0.27050  0.01050  0.15636  1.0000
  H   H54       1.0  0.45598  0.06177  0.04592  1.0000
  H   H55       1.0  0.24838  0.01047  0.30333  1.0000
  H   H56       1.0  0.43178  0.07553  0.01902  1.0000
  H   H57       1.0  0.10475  0.05879  0.30225  1.0000
  C   C39       1.0  0.28963  0.05394  0.14806  1.0000
  H   H58       1.0  0.50232  0.99837  0.14799  1.0000
  S   S11       1.0  0.32818  0.00423  0.24362  1.0000
  H   H59       1.0  0.07278  0.05313  0.29542  1.0000
  H   H60       1.0  0.09537  0.03894  0.33164  1.0000
  C   C40       1.0  0.48726  0.04701  0.05862  1.0000
  H   H61       1.0  0.50218  0.07937  0.00177  1.0000
  C   C41       1.0  0.25518  0.00738  0.28463  1.0000
  C   C42       1.0  0.12149  0.03880  0.46963  1.0000
  H   H62       1.0  0.25116  0.00690  0.16516  1.0000
  H   H63       1.0  0.09928  0.04626  0.39842  1.0000
  C   C43       1.0  0.14655  0.04426  0.46370  1.0000
  S   S12       1.0  0.12524  0.00142  0.37574  1.0000
  H   H64       1.0  0.29859  0.01901  0.19906  1.0000
  H   H65       1.0  0.24605  0.04680  0.21966  1.0000
  C   C44       1.0  0.08292  0.04849  0.33535  1.0000
  H   H66       1.0  0.10711  0.03440  0.37564  1.0000
  C   C45       1.0  0.24889  0.02961  0.19496  1.0000
  C   C46       1.0  0.09221  0.04299  0.38039  1.0000
  C   C47       1.0  0.08362  0.05786  0.31010  1.0000
  H   H67       1.0  0.04759  0.04479  0.38871  1.0000
  H   H68       1.0  0.15427  0.05100  0.47639  1.0000
  H   H69       1.0  0.49176  0.05445  0.07225  1.0000
  H   H70       1.0  0.28783  0.00604  0.16783  1.0000
  H   H71       1.0  0.45487  0.08701  0.00208  1.0000
  H   H72       1.0  0.36161  0.00938  0.03452  1.0000
  C   C48       1.0  0.50387  0.05012  0.00073  1.0000
  H   H73       1.0  0.50646  0.04171  0.05192  1.0000
  C   C49       1.0  0.38142  0.00325  0.03508  1.0000
  H   H74       1.0  0.38246  0.99799  0.08951  1.0000
  H   H75       1.0  0.20299  0.00740  0.42381  1.0000
  H   H76       1.0  0.45922  0.99426  0.12606  1.0000
  H   H77       1.0  0.23115  0.99708  0.23048  1.0000
  H   H78       1.0  0.28046  0.99647  0.21745  1.0000
  C   C50       1.0  0.20889  0.99739  0.43453  1.0000
  H   H79       1.0  0.44980  0.05722  0.99070  1.0000
  H   H80       1.0  0.12696  0.99455  0.46147  1.0000
  H   H81       1.0  0.42904  0.08018  0.98560  1.0000
  H   H82       1.0  0.24576  0.23496  0.72320  1.0000
  C   C51       1.0  0.08758  0.21039  0.69432  1.0000
  Fe  Fe7       1.0  0.11215  0.05325  0.53185  1.0000
  S   S13       1.0  0.10450  0.03922  0.56719  1.0000
  Fe  Fe8       1.0  0.12343  0.07664  0.56501  1.0000
  S   S14       1.0  0.11677  0.06389  0.60207  1.0000
  S   S15       1.0  0.12815  0.09940  0.56536  1.0000
  Fe  Fe9       1.0  0.14095  0.04742  0.58231  1.0000
  S   S16       1.0  0.17146  0.03247  0.60223  1.0000
  Fe  Fe10      1.0  0.08113  0.05694  0.58320  1.0000
  S   S17       1.0  0.04067  0.05515  0.60436  1.0000
  S   S18       1.0  0.15063  0.06048  0.54604  1.0000
  S   S19       1.0  0.08592  0.07067  0.54713  1.0000
  C   C52       1.0  0.19719  0.08990  0.70903  1.0000
  S   S20       1.0  0.38136  0.04359  0.90864  1.0000
  S   S21       1.0  0.35305  0.07950  0.89885  1.0000
  Fe  Fe11      1.0  0.36158  0.03279  0.94306  1.0000
  S   S22       1.0  0.33957  0.01404  0.93933  1.0000
  C   C53       1.0  0.46084  0.20870  0.83036  1.0000
  Fe  Fe12      1.0  0.36469  0.18220  0.81382  1.0000
  S   S23       1.0  0.37788  0.17210  0.77803  1.0000
  S   S24       1.0  0.35604  0.20484  0.80291  1.0000
  Fe  Fe13      1.0  0.36540  0.15461  0.84551  1.0000
  S   S25       1.0  0.37728  0.14306  0.81125  1.0000
  S   S26       1.0  0.36569  0.14342  0.88542  1.0000
  Fe  Fe14      1.0  0.40754  0.15894  0.80249  1.0000
  S   S27       1.0  0.45137  0.15210  0.79080  1.0000
  Fe  Fe15      1.0  0.34615  0.15747  0.79052  1.0000
  S   S28       1.0  0.31867  0.15250  0.75907  1.0000
  S   S29       1.0  0.39684  0.17009  0.83734  1.0000
  S   S30       1.0  0.33188  0.16798  0.82556  1.0000
  Fe  Fe16      1.0  0.14540  0.17971  0.67786  1.0000
  S   S31       1.0  0.13252  0.18065  0.71918  1.0000
  S   S32       1.0  0.15379  0.19976  0.65520  1.0000
  Fe  Fe17      1.0  0.14025  0.14890  0.68050  1.0000
  S   S33       1.0  0.12708  0.14835  0.72250  1.0000
  S   S34       1.0  0.14453  0.12712  0.66863  1.0000
  Fe  Fe18      1.0  0.10007  0.16708  0.71101  1.0000
  S   S35       1.0  0.05722  0.17361  0.72583  1.0000
  Fe  Fe19      1.0  0.16102  0.16198  0.72609  1.0000
  S   S36       1.0  0.18875  0.16044  0.76022  1.0000
  S   S37       1.0  0.11129  0.16705  0.66896  1.0000
  S   S38       1.0  0.17575  0.16161  0.68498  1.0000
  C   C54       1.0  0.29441  0.22631  0.79767  1.0000
  H   H83       1.0  0.07565  0.20171  0.70209  1.0000
  S   S39       1.0  0.35817  0.99465  0.82749  1.0000
  H   H84       1.0  0.45264  0.02333  0.86482  1.0000
  H   H85       1.0  0.38629  0.11315  0.82784  1.0000
  H   H86       1.0  0.04860  0.15294  0.69097  1.0000
  H   H87       1.0  0.18782  0.01716  0.49573  1.0000
  H   H88       1.0  0.26173  0.22597  0.69784  1.0000
  C   C55       1.0  0.48115  0.15883  0.80078  1.0000
  H   H89       1.0  0.32433  0.18919  0.74283  1.0000
  C   C56       1.0  0.28251  0.15425  0.76009  1.0000
  C   C57       1.0  0.26724  0.15640  0.78278  1.0000
  C   C58       1.0  0.23858  0.15821  0.78251  1.0000
  C   C59       1.0  0.22488  0.15818  0.75953  1.0000
  C   C60       1.0  0.24017  0.15629  0.73678  1.0000
  C   C61       1.0  0.26876  0.15409  0.73715  1.0000
  H   H90       1.0  0.27750  0.15657  0.80058  1.0000
  H   H91       1.0  0.22696  0.15968  0.80023  1.0000
  H   H92       1.0  0.22996  0.15666  0.71890  1.0000
  H   H93       1.0  0.28036  0.15255  0.71945  1.0000
  C   C62       1.0  0.47401  0.05933  0.91755  1.0000
  H   H94       1.0  0.45354  0.06276  0.91227  1.0000
  C   C63       1.0  0.35659  0.09725  0.89618  1.0000
  C   C64       1.0  0.34755  0.10501  0.87392  1.0000
  C   C65       1.0  0.35028  0.11912  0.87047  1.0000
  C   C66       1.0  0.36177  0.12568  0.88943  1.0000
  C   C67       1.0  0.37070  0.11797  0.91181  1.0000
  C   C68       1.0  0.36832  0.10377  0.91513  1.0000
  H   H95       1.0  0.33836  0.10006  0.85923  1.0000
  H   H96       1.0  0.34309  0.12496  0.85329  1.0000
  H   H97       1.0  0.37949  0.12299  0.92663  1.0000
  H   H98       1.0  0.37523  0.09791  0.93239  1.0000
  H   H99       1.0  0.47899  0.13137  0.83168  1.0000
  C   C69       1.0  0.02918  0.15614  0.69985  1.0000
  H   H100      1.0  0.20365  0.01453  0.70956  1.0000
  H   H101      1.0  0.03906  0.05585  0.54925  1.0000
  H   H102      1.0  0.26670  0.99412  0.94050  1.0000
  C   C70       1.0  0.13350  0.10706  0.59398  1.0000
  C   C71       1.0  0.13175  0.12136  0.59372  1.0000
  C   C72       1.0  0.13489  0.12776  0.61636  1.0000
  C   C73       1.0  0.14008  0.11987  0.63943  1.0000
  C   C74       1.0  0.14209  0.10560  0.63961  1.0000
  C   C75       1.0  0.13881  0.09923  0.61706  1.0000
  H   H103      1.0  0.12780  0.12752  0.57592  1.0000
  H   H104      1.0  0.13347  0.13875  0.61590  1.0000
  H   H105      1.0  0.14621  0.09940  0.65731  1.0000
  H   H106      1.0  0.14054  0.08825  0.61755  1.0000
  H   H107      1.0  0.31049  0.22737  0.78225  1.0000
  C   C76       1.0  0.34731  0.01387  0.86191  1.0000
  C   C77       1.0  0.34333  0.01826  0.88668  1.0000
  C   C78       1.0  0.34567  0.00885  0.90826  1.0000
  C   C79       1.0  0.43334  0.20278  0.79627  1.0000
  H   H108      1.0  0.43626  0.10522  0.88870  1.0000
  H   H109      1.0  0.34526  0.02117  0.84528  1.0000
  H   H110      1.0  0.33780  0.02889  0.88906  1.0000
  N   N4        1.0  0.08085  0.22270  0.70930  1.0000
  H   H111      1.0  0.26117  0.00223  0.69992  1.0000
  H   H112      1.0  0.31537  0.20471  0.75827  1.0000
  H   H113      1.0  0.31682  0.18849  0.77645  1.0000
  C   C80       1.0  0.16979  0.01169  0.64038  1.0000
  C   C81       1.0  0.15517  0.02258  0.62694  1.0000
  C   C82       1.0  0.12723  0.02498  0.63227  1.0000
  C   C83       1.0  0.11373  0.01623  0.65030  1.0000
  H   H114      1.0  0.48174  0.23378  0.81470  1.0000
  H   H115      1.0  0.19141  0.00984  0.63629  1.0000
  H   H116      1.0  0.11589  0.03351  0.62235  1.0000
  H   H117      1.0  0.09203  0.01802  0.65404  1.0000
  C   C84       1.0  0.17337  0.22210  0.71230  1.0000
  C   C85       1.0  0.16787  0.21116  0.69852  1.0000
  C   C86       1.0  0.16256  0.21331  0.67240  1.0000
  C   C87       1.0  0.16347  0.22652  0.66005  1.0000
  H   H118      1.0  0.17701  0.22035  0.73259  1.0000
  H   H119      1.0  0.16794  0.20105  0.70813  1.0000
  H   H120      1.0  0.15954  0.22827  0.63979  1.0000
  C   C88       1.0  0.37138  0.22770  0.86095  1.0000
  C   C89       1.0  0.36613  0.21649  0.84752  1.0000
  C   C90       1.0  0.36354  0.21820  0.82090  1.0000
  C   C91       1.0  0.36607  0.23109  0.80787  1.0000
  H   H121      1.0  0.46297  0.99451  0.81247  1.0000
  H   H122      1.0  0.37339  0.22637  0.88156  1.0000
  H   H123      1.0  0.36386  0.20661  0.85779  1.0000
  H   H124      1.0  0.45743  0.08442  0.87942  1.0000
  C   C92       1.0  0.01967  0.06003  0.55665  1.0000
  H   H125      1.0  0.10798  0.01485  0.53704  1.0000
  H   H126      1.0  0.50772  0.14736  0.77535  1.0000
  C   C93       1.0  0.27279  0.23848  0.79638  1.0000
  C   C94       1.0  0.44756  0.22614  0.79410  1.0000
  H   H127      1.0  0.40141  0.01679  0.83907  1.0000
  C   C95       1.0  0.02789  0.16580  0.71790  1.0000
  Fe  Fe20      1.0  0.38717  0.04932  0.98034  1.0000
  C   C96       1.0  0.12806  0.00496  0.66277  1.0000
  C   C97       1.0  0.24150  0.00116  0.71102  1.0000
  H   H128      1.0  0.21520  0.00513  0.48768  1.0000
  H   H129      1.0  0.15908  0.11666  0.72223  1.0000
  C   C98       1.0  0.17552  0.11374  0.73609  1.0000
  H   H130      1.0  0.18908  0.10882  0.68601  1.0000
  H   H131      1.0  0.03939  0.21699  0.70996  1.0000
  C   C99       1.0  0.43702  0.13246  0.87518  1.0000
  C   C100      1.0  0.43806  0.08706  0.86947  1.0000
  C   C101      1.0  0.35354  0.00005  0.85864  1.0000
  C   C102      1.0  0.12880  0.01041  0.53255  1.0000
  S   S40       1.0  0.45871  0.03363  0.91519  1.0000
  H   H132      1.0  0.50315  0.18102  0.84017  1.0000
  H   H133      1.0  0.42811  0.14316  0.87452  1.0000
  H   H134      1.0  0.47758  0.11198  0.86711  1.0000
  H   H135      1.0  0.48450  0.19516  0.78988  1.0000
  H   H136      1.0  0.27288  0.99493  0.75555  1.0000
  C   C103      1.0  0.42920  0.10237  0.87018  1.0000
  H   H137      1.0  0.41733  0.03189  0.82941  1.0000
  H   H138      1.0  0.44064  0.08376  0.84982  1.0000
  H   H139      1.0  0.03719  0.10721  0.55281  1.0000
  H   H140      1.0  0.44315  0.09890  0.81601  1.0000
  C   C104      1.0  0.01537  0.10952  0.61655  1.0000
  C   C105      1.0  0.42797  0.12601  0.85149  1.0000
  H   H141      1.0  0.06948  0.07816  0.62850  1.0000
  C   C106      1.0  0.22567  0.10927  0.74030  1.0000
  H   H142      1.0  0.47698  0.04031  0.97641  1.0000
  C   C107      1.0  0.20364  0.10476  0.70102  1.0000
  H   H143      1.0  0.40615  0.02845  0.86264  1.0000
  C   C108      1.0  0.41557  0.02382  0.84546  1.0000
  C   C109      1.0  0.47014  0.11062  0.84781  1.0000
  H   H144      1.0  0.43602  0.00900  0.90042  1.0000
  C   C110      1.0  0.05059  0.22642  0.70856  1.0000
  C   C111      1.0  0.35235  0.99510  0.90501  1.0000
  S   S41       1.0  0.10097  0.04288  0.49692  1.0000
  H   H145      1.0  0.17294  0.13352  0.75320  1.0000
  C   C112      1.0  0.07743  0.20668  0.75097  1.0000
  H   H146      1.0  0.16730  0.99419  0.66794  1.0000
  H   H147      1.0  0.11307  0.21637  0.73551  1.0000
  H   H148      1.0  0.21941  0.10054  0.75368  1.0000
  H   H149      1.0  0.07711  0.11481  0.58627  1.0000
  H   H150      1.0  0.07074  0.13756  0.60110  1.0000
  H   H151      1.0  0.47898  0.11917  0.80799  1.0000
  H   H152      1.0  0.05548  0.10647  0.64781  1.0000
  H   H153      1.0  0.47823  0.20876  0.76579  1.0000
  H   H154      1.0  0.24389  0.10528  0.72910  1.0000
  C   C113      1.0  0.44410  0.01690  0.85124  1.0000
  H   H155      1.0  0.07568  0.12566  0.62834  1.0000
  H   H156      1.0  0.22402  0.10408  0.69096  1.0000
  C   C114      1.0  0.46166  0.23708  0.80699  1.0000
  H   H157      1.0  0.17942  0.99558  0.71662  1.0000
  H   H158      1.0  0.42908  0.12728  0.89337  1.0000
  N   N5        1.0  0.26833  0.20021  0.73084  1.0000
  C   C115      1.0  0.26400  0.21493  0.73653  1.0000
  C   C116      1.0  0.28065  0.19223  0.75399  1.0000
  C   C117      1.0  0.24185  0.19446  0.72581  1.0000
  C   C118      1.0  0.28678  0.19927  0.70719  1.0000
  C   C119      1.0  0.24934  0.22470  0.71602  1.0000
  C   C120      1.0  0.31099  0.19392  0.75775  1.0000
  C   C121      1.0  0.21975  0.19519  0.74758  1.0000
  C   C122      1.0  0.29470  0.18474  0.69929  1.0000
  H   H159      1.0  0.25238  0.21593  0.75510  1.0000
  H   H160      1.0  0.28384  0.21917  0.73909  1.0000
  H   H161      1.0  0.27837  0.18120  0.75369  1.0000
  H   H162      1.0  0.26946  0.19494  0.77203  1.0000
  H   H163      1.0  0.23295  0.19936  0.70777  1.0000
  H   H164      1.0  0.24535  0.18352  0.72234  1.0000
  H   H165      1.0  0.27687  0.20481  0.69021  1.0000
  H   H166      1.0  0.30567  0.20460  0.70864  1.0000
  H   H167      1.0  0.16545  0.99742  0.48754  1.0000
  H   H168      1.0  0.03812  0.08232  0.64627  1.0000
  C   C123      1.0  0.49193  0.06873  0.92365  1.0000
  H   H169      1.0  0.08269  0.20613  0.77148  1.0000
  H   H170      1.0  0.40752  0.19775  0.76650  1.0000
  H   H171      1.0  0.48507  0.07939  0.92367  1.0000
  H   H172      1.0  0.20137  0.19065  0.74163  1.0000
  H   H173      1.0  0.21346  0.20581  0.75163  1.0000
  H   H174      1.0  0.22630  0.18915  0.76544  1.0000
  H   H175      1.0  0.27935  0.18148  0.68668  1.0000
  H   H176      1.0  0.29719  0.17702  0.71583  1.0000
  H   H177      1.0  0.31489  0.18453  0.68891  1.0000
  C   C124      1.0  0.06134  0.12911  0.61293  1.0000
  S   S42       1.0  0.11032  0.99332  0.68310  1.0000
  H   H178      1.0  0.28447  0.21684  0.79519  1.0000
  C   C125      1.0  0.48244  0.04547  0.91863  1.0000
  C   C126      1.0  0.08262  0.21237  0.66526  1.0000
  H   H179      1.0  0.08513  0.20224  0.65739  1.0000
  H   H180      1.0  0.08293  0.10125  0.62685  1.0000
  H   H181      1.0  0.40984  0.99449  0.84647  1.0000
  C   C127      1.0  0.37139  0.24221  0.82121  1.0000
  C   C128      1.0  0.15617  0.00279  0.65812  1.0000
  H   H182      1.0  0.05188  0.24056  0.74001  1.0000
  H   H183      1.0  0.39605  0.09518  0.83398  1.0000
  H   H184      1.0  0.20910  0.08530  0.72550  1.0000
  H   H185      1.0  0.24427  0.00649  0.72843  1.0000
  H   H186      1.0  0.11866  0.23061  0.69509  1.0000
  H   H187      1.0  0.07018  0.08332  0.66010  1.0000
  C   C129      1.0  0.42649  0.20297  0.76774  1.0000
  H   H188      1.0  0.20559  0.13599  0.72396  1.0000
  H   H189      1.0  0.30379  0.22464  0.81667  1.0000
  H   H190      1.0  0.40715  0.00528  0.88467  1.0000
  H   H191      1.0  0.22858  0.01832  0.68416  1.0000
  H   H192      1.0  0.17197  0.10327  0.74448  1.0000
  H   H193      1.0  0.03157  0.08966  0.55291  1.0000
  C   C130      1.0  0.48104  0.20647  0.78676  1.0000
  H   H194      1.0  0.42192  0.08094  0.87919  1.0000
  S   S43       1.0  0.40907  0.06170  0.94855  1.0000
  C   C131      1.0  0.14421  0.00521  0.55698  1.0000
  C   C132      1.0  0.09058  0.21887  0.73611  1.0000
  C   C133      1.0  0.01477  0.06044  0.58310  1.0000
  C   C134      1.0  0.21916  0.00994  0.69619  1.0000
  S   S44       1.0  0.34674  0.05195  0.96120  1.0000
  H   H195      1.0  0.04195  0.13347  0.62145  1.0000
  H   H196      1.0  0.06776  0.09244  0.58282  1.0000
  H   H197      1.0  0.28223  0.99745  0.84826  1.0000
  H   H198      1.0  0.45770  0.01824  0.83374  1.0000
  H   H199      1.0  0.43265  0.13304  0.83429  1.0000
  H   H200      1.0  0.20903  0.00445  0.68237  1.0000
  H   H201      1.0  0.14518  0.99607  0.61102  1.0000
  H   H202      1.0  0.06184  0.21684  0.66106  1.0000
  C   C135      1.0  0.47416  0.99699  0.86554  1.0000
  H   H203      1.0  0.40541  0.12643  0.85311  1.0000
  H   H204      1.0  0.23259  0.99796  0.93009  1.0000
  C   C136      1.0  0.43048  0.10783  0.82264  1.0000
  C   C137      1.0  0.05915  0.08515  0.64193  1.0000
  H   H205      1.0  0.14529  0.01399  0.56877  1.0000
  H   H206      1.0  0.46075  0.17121  0.82863  1.0000
  H   H207      1.0  0.12776  0.00234  0.51933  1.0000
  N   N6        1.0  0.04432  0.10528  0.60843  1.0000
  N   N7        1.0  0.45601  0.21137  0.80202  1.0000
  H   H208      1.0  0.47765  0.21433  0.83632  1.0000
  N   N8        1.0  0.44485  0.00227  0.86229  1.0000
  H   H209      1.0  0.40669  0.10361  0.87264  1.0000
  C   C138      1.0  0.48414  0.12060  0.82794  1.0000
  H   H210      1.0  0.18274  0.11881  0.77522  1.0000
  H   H211      1.0  0.25089  0.12604  0.70237  1.0000
  C   C139      1.0  0.02949  0.09843  0.56490  1.0000
  H   H212      1.0  0.43246  0.00575  0.80740  1.0000
  H   H213      1.0  0.36398  0.23248  0.78729  1.0000
  C   C140      1.0  0.42888  0.00174  0.88759  1.0000
  C   C141      1.0  0.06087  0.10017  0.63144  1.0000
  C   C142      1.0  0.17015  0.12264  0.75870  1.0000
  H   H214      1.0  0.49201  0.01464  0.87969  1.0000
  H   H215      1.0  0.02650  0.02586  0.64304  1.0000
  H   H216      1.0  0.43791  0.19191  0.80348  1.0000
  H   H217      1.0  0.48601  0.99833  0.84697  1.0000
  C   C143      1.0  0.03762  0.23512  0.72978  1.0000
  C   C144      1.0  0.48008  0.16818  0.81941  1.0000
  N   N9        1.0  0.20310  0.11415  0.72236  1.0000
  C   C145      1.0  0.23217  0.13009  0.69253  1.0000
  C   C146      1.0  0.43619  0.21211  0.84847  1.0000
  C   C147      1.0  0.09676  0.23410  0.69665  1.0000
  H   H218      1.0  0.23093  0.12530  0.67427  1.0000
  H   H219      1.0  0.23403  0.14110  0.68699  1.0000
  H   H220      1.0  0.45042  0.22835  0.77293  1.0000
  H   H221      1.0  0.39570  0.10302  0.80188  1.0000
  H   H222      1.0  0.08756  0.22742  0.74842  1.0000
  H   H223      1.0  0.18860  0.13168  0.69769  1.0000
  H   H224      1.0  0.05494  0.20752  0.75028  1.0000
  C   C148      1.0  0.50408  0.17372  0.82592  1.0000
  C   C149      1.0  0.05692  0.11772  0.59549  1.0000
  C   C150      1.0  0.20622  0.12832  0.70981  1.0000
  C   C151      1.0  0.40039  0.10464  0.82189  1.0000
  C   C152      1.0  0.16936  0.23751  0.67383  1.0000
  H   H225      1.0  0.24189  0.11478  0.77574  1.0000
  C   C153      1.0  0.17432  0.23529  0.70006  1.0000
  H   H226      1.0  0.03298  0.19507  0.66933  1.0000
  C   C154      1.0  0.04610  0.09474  0.58915  1.0000
  H   H227      1.0  0.08553  0.19689  0.74377  1.0000
  H   H228      1.0  0.20249  0.08366  0.69261  1.0000
  H   H229      1.0  0.22155  0.12854  0.76080  1.0000
  H   H230      1.0  0.25530  0.12386  0.74801  1.0000
  H   H231      1.0  0.03939  0.08483  0.59758  1.0000
  H   H232      1.0  0.47834  0.10017  0.84373  1.0000
  H   H233      1.0  0.44258  0.19725  0.75667  1.0000
  Fe  Fe21      1.0  0.36986  0.06279  0.92796  1.0000
  H   H234      1.0  0.22909  0.22152  0.71203  1.0000
  H   H235      1.0  0.46740  0.19777  0.83510  1.0000
  H   H236      1.0  0.17508  0.08914  0.71340  1.0000
  H   H237      1.0  0.14856  0.12212  0.76558  1.0000
  C   C155      1.0  0.01140  0.19360  0.67518  1.0000
  H   H238      1.0  0.16561  0.00281  0.55055  1.0000
  H   H239      1.0  0.09014  0.00081  0.56763  1.0000
  N   N10       1.0  0.43949  0.11168  0.84805  1.0000
  C   C156      1.0  0.48982  0.00369  0.88532  1.0000
  H   H240      1.0  0.44306  0.21200  0.86842  1.0000
  Fe  Fe22      1.0  0.41846  0.04171  0.93164  1.0000
  C   C157      1.0  0.23619  0.11990  0.75675  1.0000
  H   H241      1.0  0.42257  0.21345  0.75858  1.0000
  H   H242      1.0  0.45936  0.13284  0.87548  1.0000
  H   H243      1.0  0.43361  0.11618  0.80720  1.0000
  H   H244      1.0  0.10599  0.00846  0.59196  1.0000
  H   H245      1.0  0.41406  0.20609  0.80646  1.0000
  H   H246      1.0  0.10936  0.20669  0.69623  1.0000
  H   H247      1.0  0.04431  0.12261  0.57964  1.0000
  H   H248      1.0  0.42108  0.20433  0.84886  1.0000
  H   H249      1.0  0.49857  0.14901  0.89041  1.0000
  H   H250      1.0  0.42618  0.22234  0.84329  1.0000
  H   H251      1.0  0.13977  0.01874  0.52200  1.0000
  S   S45       1.0  0.39987  0.02937  0.96474  1.0000
  H   H252      1.0  0.42533  0.22824  0.79836  1.0000
  H   H253      1.0  0.44808  0.24133  0.82234  1.0000
  H   H254      1.0  0.01502  0.11664  0.63187  1.0000
  H   H255      1.0  0.47313  0.06835  0.97496  1.0000
  H   H256      1.0  0.25785  0.23670  0.81278  1.0000
  H   H257      1.0  0.26990  0.99751  0.89267  1.0000
  H   H258      1.0  0.50786  0.03065  0.98420  1.0000
  H   H259      1.0  0.26114  0.23765  0.77907  1.0000
  C   C158      1.0  0.10472  0.99861  0.58334  1.0000
  H   H260      1.0  0.02563  0.22877  0.74407  1.0000
  C   C159      1.0  0.50662  0.15467  0.78965  1.0000
  C   C160      1.0  0.44062  0.99566  0.81597  1.0000
  H   H261      1.0  0.09810  0.21857  0.65477  1.0000
  H   H262      1.0  0.50658  0.11872  0.82907  1.0000
  H   H263      1.0  0.09037  0.23700  0.67667  1.0000
  H   H264      1.0  0.04542  0.23193  0.68969  1.0000
  H   H265      1.0  0.48046  0.00242  0.90498  1.0000
  C   C161      1.0  0.37436  0.24057  0.84778  1.0000
  H   H266      1.0  0.18818  0.99890  0.58802  1.0000
  H   H267      1.0  0.50781  0.22336  0.78569  1.0000
  C   C162      1.0  0.50807  0.21235  0.79195  1.0000
  H   H268      1.0  0.00977  0.19396  0.69630  1.0000
  H   H269      1.0  0.50800  0.14046  0.86201  1.0000
  N   N11       1.0  0.13244  0.99344  0.57306  1.0000
  C   C163      1.0  0.43236  0.99338  0.84474  1.0000
  H   H270      1.0  0.02274  0.24305  0.72105  1.0000
  H   H271      1.0  0.07017  0.99366  0.60897  1.0000
  Fe  Fe23      1.0  0.11709  0.45283  0.33655  1.0000
  S   S46       1.0  0.12807  0.46227  0.37197  1.0000
  S   S47       1.0  0.07513  0.44399  0.33739  1.0000
  Fe  Fe24      1.0  0.17646  0.45422  0.31211  1.0000
  S   S48       1.0  0.19033  0.46380  0.34597  1.0000
  S   S49       1.0  0.20464  0.44945  0.27672  1.0000
  Fe  Fe25      1.0  0.16658  0.44865  0.37066  1.0000
  S   S50       1.0  0.18747  0.43930  0.40659  1.0000
  Fe  Fe26      1.0  0.15061  0.47658  0.34450  1.0000
  S   S51       1.0  0.15475  0.43810  0.33702  1.0000
  S   S52       1.0  0.13758  0.46811  0.30879  1.0000
  N   N12       1.0  0.16552  0.47373  0.45428  1.0000
  Fe  Fe27      1.0  0.35783  0.44874  0.20169  1.0000
  S   S53       1.0  0.34018  0.45876  0.16545  1.0000
  S   S54       1.0  0.33170  0.44741  0.23992  1.0000
  Fe  Fe28      1.0  0.41703  0.44805  0.17601  1.0000
  S   S55       1.0  0.40183  0.45862  0.13887  1.0000
  S   S56       1.0  0.46256  0.44062  0.17432  1.0000
  Fe  Fe29      1.0  0.37528  0.47189  0.16378  1.0000
  Fe  Fe30      1.0  0.36841  0.44439  0.14385  1.0000
  S   S57       1.0  0.35195  0.43714  0.10793  1.0000
  S   S58       1.0  0.39259  0.46255  0.20069  1.0000
  S   S59       1.0  0.38405  0.43303  0.18025  1.0000
  C   C164      1.0  0.40965  0.34887  0.02047  1.0000
  H   H272      1.0  0.45308  0.42313  0.07024  1.0000
  C   C165      1.0  0.47930  0.40457  0.06325  1.0000
  S   S60       1.0  0.41213  0.39386  0.03748  1.0000
  N   N13       1.0  0.49179  0.40717  0.03647  1.0000
  H   H273      1.0  0.27490  0.40606  0.36282  1.0000
  C   C166      1.0  0.49342  0.45832  0.19733  1.0000
  H   H274      1.0  0.41682  0.48654  0.13388  1.0000
  H   H275      1.0  0.35161  0.47623  0.23348  1.0000
  C   C167      1.0  0.47150  0.41727  0.07796  1.0000
  C   C168      1.0  0.30449  0.48201  0.20458  1.0000
  H   H276      1.0  0.47562  0.46045  0.20963  1.0000
  H   H277      1.0  0.40011  0.36272  0.04876  1.0000
  C   C169      1.0  0.37001  0.42551  0.08832  1.0000
  C   C170      1.0  0.39095  0.41631  0.09776  1.0000
  C   C171      1.0  0.40353  0.40659  0.08206  1.0000
  C   C172      1.0  0.39592  0.40627  0.05656  1.0000
  C   C173      1.0  0.37533  0.41562  0.04697  1.0000
  C   C174      1.0  0.36223  0.42508  0.06290  1.0000
  H   H278      1.0  0.39687  0.41644  0.11740  1.0000
  H   H279      1.0  0.41905  0.39924  0.08985  1.0000
  H   H280      1.0  0.36914  0.41544  0.02743  1.0000
  H   H281      1.0  0.34590  0.43210  0.05553  1.0000
  C   C175      1.0  0.04222  0.45121  0.32844  1.0000
  H   H282      1.0  0.20409  0.46812  0.41433  1.0000
  H   H283      1.0  0.46061  0.39898  0.06279  1.0000
  H   H284      1.0  0.05489  0.47067  0.31271  1.0000
  H   H285      1.0  0.03293  0.42467  0.42014  1.0000
  C   C176      1.0  0.23995  0.44995  0.26654  1.0000
  C   C177      1.0  0.24789  0.44744  0.24103  1.0000
  C   C178      1.0  0.27559  0.44690  0.23237  1.0000
  C   C179      1.0  0.29607  0.44860  0.24926  1.0000
  C   C180      1.0  0.28814  0.45117  0.27474  1.0000
  C   C181      1.0  0.26038  0.45207  0.28321  1.0000
  H   H286      1.0  0.23245  0.44577  0.22784  1.0000
  H   H287      1.0  0.28114  0.44487  0.21275  1.0000
  H   H288      1.0  0.30364  0.45254  0.28805  1.0000
  H   H289      1.0  0.25485  0.45417  0.30279  1.0000
  C   C182      1.0  0.17082  0.42833  0.42976  1.0000
  C   C183      1.0  0.14668  0.42276  0.42458  1.0000
  C   C184      1.0  0.13468  0.41354  0.44302  1.0000
  C   C185      1.0  0.14625  0.41011  0.46703  1.0000
  C   C186      1.0  0.16990  0.41606  0.47253  1.0000
  C   C187      1.0  0.18234  0.42497  0.45380  1.0000
  H   H290      1.0  0.13764  0.42525  0.40612  1.0000
  H   H291      1.0  0.11647  0.40892  0.43859  1.0000
  H   H292      1.0  0.35157  0.36703  0.08685  1.0000
  H   H293      1.0  0.20116  0.42913  0.45787  1.0000
  C   C188      1.0  0.12680  0.45724  0.45568  1.0000
  H   H294      1.0  0.39289  0.36961  0.01709  1.0000
  H   H295      1.0  0.13398  0.48855  0.46654  1.0000
  C   C189      1.0  0.49186  0.44977  0.17762  1.0000
  H   H296      1.0  0.30568  0.47735  0.25530  1.0000
  C   C190      1.0  0.47978  0.42066  0.99294  1.0000
  H   H297      1.0  0.47307  0.39040  0.02208  1.0000
  C   C191      1.0  0.35742  0.34633  0.05595  1.0000
  C   C192      1.0  0.25326  0.48470  0.23589  1.0000
  C   C193      1.0  0.39079  0.36045  0.03086  1.0000
  H   H298      1.0  0.32644  0.47975  0.19961  1.0000
  C   C194      1.0  0.36061  0.33169  0.04722  1.0000
  H   H299      1.0  0.38103  0.49095  0.02166  1.0000
  H   H300      1.0  0.33660  0.34747  0.06514  1.0000
  H   H301      1.0  0.46612  0.41394  0.09832  1.0000
  H   H302      1.0  0.03934  0.44030  0.40164  1.0000
  H   H303      1.0  0.11629  0.46140  0.47274  1.0000
  C   C195      1.0  0.34691  0.37083  0.04478  1.0000
  H   H304      1.0  0.37178  0.34677  0.07165  1.0000
  H   H305      1.0  0.49336  0.39786  0.07573  1.0000
  H   H306      1.0  0.20526  0.48533  0.40033  1.0000
  H   H307      1.0  0.15416  0.46170  0.42429  1.0000
  H   H308      1.0  0.20681  0.46716  0.46556  1.0000
  C   C196      1.0  0.15122  0.48180  0.47475  1.0000
  C   C197      1.0  0.18656  0.46296  0.46484  1.0000
  H   H309      1.0  0.27222  0.49255  0.17964  1.0000
  C   C198      1.0  0.34530  0.48419  0.24655  1.0000
  H   H310      1.0  0.13881  0.44754  0.46109  1.0000
  H   H311      1.0  0.30523  0.49016  0.16402  1.0000
  H   H312      1.0  0.37105  0.32480  0.06228  1.0000
  H   H313      1.0  0.41202  0.33997  0.03488  1.0000
  H   H314      1.0  0.34035  0.32770  0.04575  1.0000
  H   H315      1.0  0.35283  0.36434  0.99586  1.0000
  C   C199      1.0  0.31410  0.48714  0.24801  1.0000
  H   H316      1.0  0.34975  0.37967  0.03032  1.0000
  H   H317      1.0  0.28410  0.47610  0.17160  1.0000
  C   C200      1.0  0.35328  0.48751  0.07945  1.0000
  N   N14       1.0  0.36111  0.35792  0.03556  1.0000
  C   C201      1.0  0.35544  0.37492  0.07093  1.0000
  H   H318      1.0  0.03499  0.42576  0.38528  1.0000
  H   H319      1.0  0.30629  0.36396  0.01200  1.0000
  H   H320      1.0  0.37261  0.33045  0.02912  1.0000
  H   H321      1.0  0.35906  0.34673  0.00161  1.0000
  H   H322      1.0  0.19011  0.45471  0.45169  1.0000
  C   C202      1.0  0.47251  0.41724  0.02160  1.0000
  H   H323      1.0  0.27308  0.40367  0.30601  1.0000
  C   C203      1.0  0.02764  0.43110  0.40233  1.0000
  C   C204      1.0  0.49380  0.39380  0.02441  1.0000
  H   H324      1.0  0.11474  0.48957  0.38966  1.0000
  C   C205      1.0  0.19178  0.47792  0.41050  1.0000
  C   C206      1.0  0.01973  0.44325  0.33317  1.0000
  C   C207      1.0  0.14447  0.46743  0.44001  1.0000
  H   H325      1.0  0.26053  0.47793  0.25259  1.0000
  H   H326      1.0  0.40327  0.34582  0.00192  1.0000
  H   H327      1.0  0.32457  0.37002  0.04714  1.0000
  H   H328      1.0  0.25213  0.40801  0.25973  1.0000
  H   H329      1.0  0.11071  0.45455  0.44324  1.0000
  H   H330      1.0  0.26552  0.38956  0.37483  1.0000
  H   H331      1.0  0.02299  0.43286  0.34138  1.0000
  C   C208      1.0  0.34907  0.35569  0.01039  1.0000
  C   C209      1.0  0.03782  0.46448  0.31684  1.0000
  H   H332      1.0  0.29795  0.47203  0.21323  1.0000
  H   H333      1.0  0.23000  0.42033  0.27407  1.0000
  H   H334      1.0  0.35387  0.48615  0.10077  1.0000
  C   C210      1.0  0.31819  0.35398  0.01134  1.0000
  C   C211      1.0  0.29074  0.48556  0.17858  1.0000
  H   H335      1.0  0.34308  0.38435  0.07552  1.0000
  H   H336      1.0  0.28070  0.39176  0.34331  1.0000
  H   H337      1.0  0.49807  0.42655  0.99017  1.0000
  H   H338      1.0  0.31287  0.34979  0.99335  1.0000
  C   C212      1.0  0.26645  0.39674  0.35723  1.0000
  H   H339      1.0  0.13042  0.47552  0.43055  1.0000
  H   H340      1.0  0.48846  0.42399  0.07802  1.0000
  H   H341      1.0  0.35218  0.48012  0.26586  1.0000
  H   H342      1.0  0.17557  0.47667  0.39706  1.0000
  H   H343      1.0  0.37691  0.37745  0.07069  1.0000
  N   N15       1.0  0.23447  0.41001  0.32425  1.0000
  C   C213      1.0  0.23751  0.39952  0.34693  1.0000
  C   C214      1.0  0.20461  0.41221  0.31862  1.0000
  C   C215      1.0  0.24450  0.42339  0.32989  1.0000
  C   C216      1.0  0.25111  0.40493  0.30169  1.0000
  C   C217      1.0  0.19257  0.40078  0.30556  1.0000
  C   C218      1.0  0.23254  0.42923  0.35471  1.0000
  C   C219      1.0  0.24971  0.41429  0.27638  1.0000
  H   H344      1.0  0.22359  0.40234  0.36333  1.0000
  H   H345      1.0  0.23117  0.38953  0.34211  1.0000
  H   H346      1.0  0.20003  0.42190  0.30648  1.0000
  H   H347      1.0  0.19213  0.41345  0.33666  1.0000
  H   H348      1.0  0.26710  0.42278  0.33056  1.0000
  H   H349      1.0  0.23957  0.43129  0.31399  1.0000
  H   H350      1.0  0.24628  0.39450  0.29789  1.0000
  H   H351      1.0  0.19582  0.39072  0.31658  1.0000
  H   H352      1.0  0.17021  0.40312  0.30436  1.0000
  H   H353      1.0  0.20083  0.40022  0.28556  1.0000
  H   H354      1.0  0.21006  0.43056  0.35491  1.0000
  H   H355      1.0  0.23994  0.43949  0.35584  1.0000
  H   H356      1.0  0.23901  0.42290  0.37226  1.0000
  H   H357      1.0  0.26612  0.42145  0.27501  1.0000
  H   H358      1.0  0.31168  0.34688  0.02766  1.0000
  H   H359      1.0  0.25163  0.47862  0.21928  1.0000
  H   H360      1.0  0.45164  0.41356  0.02281  1.0000
  H   H361      1.0  0.19679  0.48787  0.44437  1.0000
  H   H362      1.0  0.43029  0.35257  0.01663  1.0000
  Fe  Fe31      1.0  0.40475  0.39459  0.99486  1.0000
  C   C220      1.0  0.17963  0.48364  0.43539  1.0000
  H   H363      1.0  0.47060  0.42721  0.03007  1.0000
  H   H364      1.0  0.33187  0.49064  0.07507  1.0000
  H   H365      1.0  0.23229  0.48876  0.24114  1.0000
  H   H366      1.0  0.35881  0.47749  0.07178  1.0000
  H   H367      1.0  0.49890  0.37800  0.05673  1.0000
  H   H368      1.0  0.39310  0.49206  0.06535  1.0000
  H   H369      1.0  0.34570  0.49120  0.02872  1.0000
  H   H370      1.0  0.16558  0.49261  0.42954  1.0000
  H   H371      1.0  0.50291  0.39474  0.00469  1.0000
  H   H372      1.0  0.01094  0.48052  0.38560  1.0000
  C   C221      1.0  0.01134  0.46962  0.30999  1.0000
  N   N16       1.0  0.30108  0.49275  0.22333  1.0000
  Fe  Fe32      1.0  0.16174  0.47930  0.68903  1.0000
  C   C222      1.0  0.01502  0.37743  0.58056  1.0000
  S   S61       1.0  0.15550  0.45677  0.69167  1.0000
  H   H373      1.0  0.09715  0.30117  0.66514  1.0000
  C   C223      1.0  0.08302  0.44988  0.72409  1.0000
  S   S62       1.0  0.40233  0.46179  0.84195  1.0000
  Fe  Fe33      1.0  0.16432  0.38388  0.58131  1.0000
  S   S63       1.0  0.13404  0.39521  0.60649  1.0000
  S   S64       1.0  0.19591  0.37081  0.60441  1.0000
  Fe  Fe34      1.0  0.13736  0.39601  0.53180  1.0000
  S   S65       1.0  0.10458  0.40762  0.55373  1.0000
  Fe  Fe35      1.0  0.13825  0.41300  0.57730  1.0000
  S   S66       1.0  0.14009  0.43523  0.58319  1.0000
  Fe  Fe36      1.0  0.10359  0.38869  0.58060  1.0000
  S   S67       1.0  0.06556  0.37996  0.59786  1.0000
  S   S68       1.0  0.17151  0.40245  0.55389  1.0000
  S   S69       1.0  0.13339  0.37636  0.55697  1.0000
  Fe  Fe37      1.0  0.37856  0.40725  0.94594  1.0000
  H   H374      1.0  0.07029  0.48934  0.75036  1.0000
  S   S70       1.0  0.34958  0.42495  0.93272  1.0000
  Fe  Fe38      1.0  0.43722  0.39641  0.94379  1.0000
  Fe  Fe39      1.0  0.39287  0.37668  0.95196  1.0000
  S   S71       1.0  0.38157  0.35502  0.94862  1.0000
  S   S72       1.0  0.40180  0.39293  0.92037  1.0000
  Fe  Fe40      1.0  0.40230  0.30393  0.83506  1.0000
  S   S73       1.0  0.41897  0.30268  0.79430  1.0000
  S   S74       1.0  0.39911  0.32619  0.84411  1.0000
  Fe  Fe41      1.0  0.39535  0.27321  0.84104  1.0000
  S   S75       1.0  0.41179  0.27045  0.80120  1.0000
  S   S76       1.0  0.38172  0.25442  0.86476  1.0000
  Fe  Fe42      1.0  0.44408  0.28405  0.80992  1.0000
  S   S77       1.0  0.48824  0.27649  0.80078  1.0000
  Fe  Fe43      1.0  0.38476  0.28926  0.79022  1.0000
  S   S78       1.0  0.35746  0.29010  0.75592  1.0000
  S   S79       1.0  0.42917  0.28582  0.85083  1.0000
  S   S80       1.0  0.36680  0.29146  0.82977  1.0000
  Fe  Fe44      1.0  0.17707  0.27115  0.70732  1.0000
  S   S81       1.0  0.16514  0.28269  0.74182  1.0000
  S   S82       1.0  0.18255  0.24836  0.71854  1.0000
  Fe  Fe45      1.0  0.18072  0.29769  0.67257  1.0000
  S   S83       1.0  0.17014  0.31062  0.70507  1.0000
  S   S84       1.0  0.18292  0.30747  0.63158  1.0000
  Fe  Fe46      1.0  0.19908  0.29583  0.72780  1.0000
  S   S85       1.0  0.22797  0.30139  0.75767  1.0000
  Fe  Fe47      1.0  0.13751  0.29611  0.71558  1.0000
  S   S86       1.0  0.09462  0.30610  0.72172  1.0000
  S   S87       1.0  0.21212  0.28379  0.69436  1.0000
  S   S88       1.0  0.14701  0.28366  0.68213  1.0000
  H   H375      1.0  0.24487  0.26067  0.75677  1.0000
  H   H376      1.0  0.03425  0.41424  0.53678  1.0000
  H   H377      1.0  0.08832  0.32553  0.60642  1.0000
  C   C224      1.0  0.06410  0.29777  0.72087  1.0000
  C   C225      1.0  0.06309  0.28381  0.72784  1.0000
  C   C226      1.0  0.30755  0.26639  0.82728  1.0000
  H   H378      1.0  0.08157  0.27772  0.73293  1.0000
  H   H379      1.0  0.04035  0.31640  0.70945  1.0000
  C   C227      1.0  0.09494  0.24755  0.70957  1.0000
  H   H380      1.0  0.48194  0.41158  0.98189  1.0000
  H   H381      1.0  0.03998  0.34048  0.67624  1.0000
  H   H382      1.0  0.17913  0.41338  0.49084  1.0000
  H   H383      1.0  0.02937  0.45497  0.73059  1.0000
  H   H384      1.0  0.45214  0.43371  0.86166  1.0000
  H   H385      1.0  0.10635  0.47241  0.71604  1.0000
  C   C228      1.0  0.32138  0.29288  0.75704  1.0000
  C   C229      1.0  0.30711  0.29188  0.73471  1.0000
  C   C230      1.0  0.27851  0.29424  0.73464  1.0000
  C   C231      1.0  0.26390  0.29799  0.75678  1.0000
  C   C232      1.0  0.27820  0.29910  0.77908  1.0000
  C   C233      1.0  0.30666  0.29622  0.77942  1.0000
  H   H386      1.0  0.31824  0.28926  0.71730  1.0000
  H   H387      1.0  0.26783  0.29340  0.71731  1.0000
  H   H388      1.0  0.26706  0.30190  0.79636  1.0000
  H   H389      1.0  0.31718  0.29674  0.79691  1.0000
  H   H390      1.0  0.10285  0.43639  0.75369  1.0000
  H   H391      1.0  0.06606  0.35210  0.67863  1.0000
  C   C234      1.0  0.38732  0.34697  0.91964  1.0000
  C   C235      1.0  0.38393  0.33296  0.91966  1.0000
  C   C236      1.0  0.38795  0.32631  0.89685  1.0000
  C   C237      1.0  0.39507  0.33369  0.87374  1.0000
  C   C238      1.0  0.39828  0.34771  0.87373  1.0000
  C   C239      1.0  0.39464  0.35429  0.89655  1.0000
  H   H392      1.0  0.37823  0.32720  0.93741  1.0000
  H   H393      1.0  0.38531  0.31554  0.89712  1.0000
  H   H394      1.0  0.40376  0.35350  0.85596  1.0000
  H   H395      1.0  0.39724  0.36507  0.89621  1.0000
  C   C240      1.0  0.04209  0.37985  0.57381  1.0000
  C   C241      1.0  0.04984  0.38306  0.54805  1.0000
  H   H396      1.0  0.10166  0.24628  0.72961  1.0000
  H   H397      1.0  0.07084  0.38471  0.54262  1.0000
  C   C242      1.0  0.26006  0.26323  0.79537  1.0000
  C   C243      1.0  0.19081  0.35337  0.61231  1.0000
  C   C244      1.0  0.18116  0.34544  0.59435  1.0000
  C   C245      1.0  0.17923  0.33137  0.60042  1.0000
  C   C246      1.0  0.18590  0.32518  0.62479  1.0000
  C   C247      1.0  0.19496  0.33317  0.64297  1.0000
  C   C248      1.0  0.19783  0.34717  0.63659  1.0000
  H   H398      1.0  0.17610  0.35005  0.57545  1.0000
  H   H399      1.0  0.17254  0.32524  0.58614  1.0000
  H   H400      1.0  0.20047  0.32849  0.66170  1.0000
  H   H401      1.0  0.20555  0.35318  0.65052  1.0000
  H   H402      1.0  0.10870  0.32292  0.67559  1.0000
  C   C249      1.0  0.38593  0.45175  0.86631  1.0000
  C   C250      1.0  0.36997  0.45769  0.88570  1.0000
  C   C251      1.0  0.35817  0.44938  0.90572  1.0000
  C   C252      1.0  0.36296  0.43518  0.90673  1.0000
  C   C253      1.0  0.37852  0.42927  0.88706  1.0000
  C   C254      1.0  0.38956  0.43755  0.86662  1.0000
  H   H403      1.0  0.36702  0.46866  0.88551  1.0000
  H   H404      1.0  0.34601  0.45396  0.92089  1.0000
  H   H405      1.0  0.38189  0.41831  0.88753  1.0000
  H   H406      1.0  0.40159  0.43293  0.85144  1.0000
  C   C255      1.0  0.11896  0.34591  0.64442  1.0000
  H   H407      1.0  0.34709  0.42809  0.82672  1.0000
  C   C256      1.0  0.15173  0.45058  0.66160  1.0000
  C   C257      1.0  0.14461  0.43719  0.66024  1.0000
  C   C258      1.0  0.14073  0.43232  0.63630  1.0000
  C   C259      1.0  0.14404  0.44085  0.61369  1.0000
  C   C260      1.0  0.15106  0.45421  0.61513  1.0000
  C   C261      1.0  0.15502  0.45905  0.63897  1.0000
  H   H408      1.0  0.14191  0.43063  0.67773  1.0000
  H   H409      1.0  0.13516  0.42202  0.63532  1.0000
  H   H410      1.0  0.15373  0.46084  0.59771  1.0000
  H   H411      1.0  0.16081  0.46932  0.63974  1.0000
  N   N17       1.0  0.32109  0.46077  0.80306  1.0000
  C   C262      1.0  0.33225  0.46968  0.78060  1.0000
  C   C263      1.0  0.29371  0.45676  0.79593  1.0000
  C   C264      1.0  0.34034  0.44815  0.80661  1.0000
  C   C265      1.0  0.31952  0.46857  0.82670  1.0000
  C   C266      1.0  0.36162  0.47372  0.78274  1.0000
  C   C267      1.0  0.27315  0.46871  0.78722  1.0000
  C   C268      1.0  0.29774  0.46489  0.84787  1.0000
  H   H412      1.0  0.33157  0.46471  0.76237  1.0000
  C   C269      1.0  0.29700  0.25377  0.74774  1.0000
  H   H413      1.0  0.28362  0.45071  0.81203  1.0000
  H   H414      1.0  0.29616  0.44993  0.78001  1.0000
  H   H415      1.0  0.34319  0.44313  0.78832  1.0000
  H   H416      1.0  0.36093  0.45077  0.81141  1.0000
  H   H417      1.0  0.33952  0.46749  0.83604  1.0000
  H   H418      1.0  0.31550  0.47970  0.82145  1.0000
  H   H419      1.0  0.00984  0.43298  0.62272  1.0000
  H   H420      1.0  0.04129  0.40556  0.62405  1.0000
  C   C270      1.0  0.08423  0.46292  0.67027  1.0000
  H   H421      1.0  0.27794  0.47283  0.76718  1.0000
  H   H422      1.0  0.25238  0.46506  0.78744  1.0000
  H   H423      1.0  0.22325  0.27115  0.77608  1.0000
  H   H424      1.0  0.46927  0.46120  0.93565  1.0000
  H   H425      1.0  0.27691  0.46839  0.84185  1.0000
  C   C271      1.0  0.12873  0.34606  0.67197  1.0000
  H   H426      1.0  0.29833  0.45392  0.85424  1.0000
  S   S89       1.0  0.41484  0.41208  0.96677  1.0000
  S   S90       1.0  0.36644  0.39082  0.97592  1.0000
  S   S91       1.0  0.13158  0.39771  0.48881  1.0000
  H   H427      1.0  0.11362  0.35316  0.59477  1.0000
  H   H428      1.0  0.31956  0.47948  0.77770  1.0000
  C   C272      1.0  0.16920  0.49105  0.48781  1.0000
  C   C273      1.0  0.45664  0.45285  0.93159  1.0000
  C   C274      1.0  0.08468  0.47503  0.72187  1.0000
  C   C275      1.0  0.45596  0.42733  0.87986  1.0000
  H   H429      1.0  0.12366  0.32767  0.60712  1.0000
  N   N18       1.0  0.28343  0.25236  0.79665  1.0000
  H   H430      1.0  0.06606  0.35028  0.63467  1.0000
  C   C276      1.0  0.07081  0.34010  0.64512  1.0000
  H   H431      1.0  0.36469  0.47770  0.80141  1.0000
  H   H432      1.0  0.10839  0.45379  0.75570  1.0000
  C   C277      1.0  0.23729  0.26176  0.77672  1.0000
  C   C278      1.0  0.33252  0.43720  0.82794  1.0000
  C   C279      1.0  0.49042  0.45462  0.86387  1.0000
  H   H433      1.0  0.04619  0.45628  0.68689  1.0000
  C   C280      1.0  0.03789  0.27787  0.72956  1.0000
  C   C281      1.0  0.09274  0.44686  0.75170  1.0000
  H   H434      1.0  0.29142  0.27487  0.82681  1.0000
  H   H435      1.0  0.48446  0.37546  0.95574  1.0000
  H   H436      1.0  0.18923  0.48584  0.49282  1.0000
  H   H437      1.0  0.31585  0.26536  0.84683  1.0000
  C   C282      1.0  0.02621  0.44845  0.59664  1.0000
  H   H438      1.0  0.07434  0.25286  0.70833  1.0000
  C   C283      1.0  0.10815  0.32185  0.65475  1.0000
  C   C284      1.0  0.42706  0.45929  0.93046  1.0000
  H   H439      1.0  0.33483  0.44066  0.84724  1.0000
  H   H440      1.0  0.11188  0.34633  0.68663  1.0000
  H   H441      1.0  0.07071  0.44140  0.71994  1.0000
  H   H442      1.0  0.05145  0.42260  0.62771  1.0000
  C   C285      1.0  0.04349  0.41867  0.58787  1.0000
  H   H443      1.0  0.14000  0.35528  0.67305  1.0000
  H   H444      1.0  0.41209  0.45139  0.93332  1.0000
  H   H445      1.0  0.24953  0.26390  0.81460  1.0000
  C   C286      1.0  0.49533  0.43924  0.91401  1.0000
  C   C287      1.0  0.09920  0.34538  0.59216  1.0000
  H   H446      1.0  0.03715  0.26720  0.73596  1.0000
  H   H447      1.0  0.22473  0.25320  0.78350  1.0000
  H   H448      1.0  0.03626  0.38721  0.50935  1.0000
  N   N19       1.0  0.33300  0.33639  0.79100  1.0000
  C   C288      1.0  0.31277  0.33044  0.81066  1.0000
  C   C289      1.0  0.31723  0.34261  0.76825  1.0000
  C   C290      1.0  0.34587  0.34754  0.80296  1.0000
  C   C291      1.0  0.35421  0.32527  0.78408  1.0000
  C   C292      1.0  0.32407  0.32507  0.83700  1.0000
  C   C293      1.0  0.29890  0.33300  0.75651  1.0000
  C   C294      1.0  0.36777  0.35493  0.78648  1.0000
  C   C295      1.0  0.36779  0.32667  0.75680  1.0000
  H   H449      1.0  0.29545  0.33806  0.81434  1.0000
  H   H450      1.0  0.30357  0.32168  0.80339  1.0000
  H   H451      1.0  0.33089  0.34673  0.75249  1.0000
  H   H452      1.0  0.30375  0.35158  0.77367  1.0000
  H   H453      1.0  0.32994  0.35538  0.80900  1.0000
  H   H454      1.0  0.35627  0.34351  0.82077  1.0000
  H   H455      1.0  0.37085  0.32416  0.79793  1.0000
  H   H456      1.0  0.34561  0.31516  0.78592  1.0000
  H   H457      1.0  0.32687  0.33352  0.84902  1.0000
  H   H458      1.0  0.30930  0.31851  0.84770  1.0000
  H   H459      1.0  0.34358  0.31885  0.83508  1.0000
  H   H460      1.0  0.27989  0.33165  0.76843  1.0000
  H   H461      1.0  0.29270  0.33749  0.73723  1.0000
  H   H462      1.0  0.30936  0.32284  0.75413  1.0000
  H   H463      1.0  0.36069  0.35918  0.76743  1.0000
  H   H464      1.0  0.38666  0.34815  0.78454  1.0000
  H   H465      1.0  0.37347  0.36362  0.79664  1.0000
  H   H466      1.0  0.35353  0.32498  0.74185  1.0000
  H   H467      1.0  0.38463  0.31859  0.75547  1.0000
  H   H468      1.0  0.37670  0.33652  0.75192  1.0000
  H   H469      1.0  0.10967  0.35632  0.63863  1.0000
  C   C296      1.0  0.06022  0.46423  0.69008  1.0000
  C   C297      1.0  0.04090  0.46392  0.73361  1.0000
  N   N20       1.0  0.22539  0.40849  0.61970  1.0000
  C   C298      1.0  0.20519  0.42004  0.61069  1.0000
  C   C299      1.0  0.21009  0.39912  0.63862  1.0000
  C   C300      1.0  0.23486  0.40098  0.59666  1.0000
  C   C301      1.0  0.24887  0.41441  0.63121  1.0000
  C   C302      1.0  0.21524  0.43023  0.58882  1.0000
  C   C303      1.0  0.19854  0.40538  0.66318  1.0000
  C   C304      1.0  0.25602  0.38878  0.60115  1.0000
  C   C305      1.0  0.26648  0.40476  0.64994  1.0000
  H   H470      1.0  0.18643  0.41603  0.60407  1.0000
  H   H471      1.0  0.19831  0.42628  0.62678  1.0000
  H   H472      1.0  0.22240  0.38966  0.64479  1.0000
  H   H473      1.0  0.19253  0.39542  0.62930  1.0000
  H   H474      1.0  0.21714  0.39720  0.58779  1.0000
  H   H475      1.0  0.24449  0.40786  0.58151  1.0000
  H   H476      1.0  0.26284  0.41867  0.61571  1.0000
  H   H477      1.0  0.24126  0.42324  0.64206  1.0000
  H   H478      1.0  0.21607  0.42582  0.57000  1.0000
  H   H479      1.0  0.20035  0.43927  0.58703  1.0000
  H   H480      1.0  0.23514  0.43399  0.59252  1.0000
  H   H481      1.0  0.18061  0.41259  0.65907  1.0000
  H   H482      1.0  0.19131  0.39713  0.67709  1.0000
  H   H483      1.0  0.21383  0.41058  0.67275  1.0000
  H   H484      1.0  0.25942  0.38377  0.58297  1.0000
  H   H485      1.0  0.24910  0.38082  0.61571  1.0000
  H   H486      1.0  0.27599  0.39209  0.60597  1.0000
  H   H487      1.0  0.28836  0.40608  0.64514  1.0000
  H   H488      1.0  0.26381  0.39379  0.64971  1.0000
  H   H489      1.0  0.26286  0.40763  0.66994  1.0000
  C   C306      1.0  0.06213  0.34180  0.67342  1.0000
  H   H490      1.0  0.10190  0.44892  0.71171  1.0000
  H   H491      1.0  0.07823  0.48417  0.70905  1.0000
  C   C307      1.0  0.10313  0.33268  0.61150  1.0000
  C   C308      1.0  0.46866  0.45699  0.88555  1.0000
  C   C309      1.0  0.03983  0.30559  0.71468  1.0000
  C   C310      1.0  0.08994  0.31009  0.65210  1.0000
  C   C311      1.0  0.50259  0.38074  0.95704  1.0000
  S   S92       1.0  0.15240  0.49123  0.72322  1.0000
  H   H492      1.0  0.05637  0.33358  0.63723  1.0000
  H   H493      1.0  0.37251  0.25211  0.81096  1.0000
  C   C312      1.0  0.50502  0.39350  0.94356  1.0000
  H   H494      1.0  0.31051  0.26588  0.77537  1.0000
  H   H495      1.0  0.06845  0.31270  0.65811  1.0000
  H   H496      1.0  0.02598  0.43747  0.55144  1.0000
  C   C313      1.0  0.05271  0.41411  0.61519  1.0000
  H   H497      1.0  0.13797  0.34480  0.63227  1.0000
  H   H498      1.0  0.42298  0.46597  0.94639  1.0000
  H   H499      1.0  0.10049  0.46965  0.67337  1.0000
  H   H500      1.0  0.09287  0.45222  0.67019  1.0000
  H   H501      1.0  0.09134  0.30666  0.63248  1.0000
  C   C314      1.0  0.44883  0.43550  0.90324  1.0000
  H   H502      1.0  0.07682  0.46593  0.65069  1.0000
  H   H503      1.0  0.37687  0.46510  0.77967  1.0000
  H   H504      1.0  0.49227  0.30505  0.80991  1.0000
  Fe  Fe48      1.0  0.39534  0.48440  0.84410  1.0000
  H   H505      1.0  0.02670  0.49229  0.65281  1.0000
  H   H506      1.0  0.07186  0.33399  0.68723  1.0000
  H   H507      1.0  0.31581  0.25103  0.73621  1.0000
  H   H508      1.0  0.27250  0.47710  0.79992  1.0000
  H   H509      1.0  0.04818  0.44531  0.59837  1.0000
  H   H510      1.0  0.30137  0.47025  0.86505  1.0000
  S   S93       1.0  0.47793  0.40173  0.92642  1.0000
  C   C315      1.0  0.30464  0.25524  0.77554  1.0000
  H   H511      1.0  0.14333  0.33717  0.67688  1.0000
  H   H512      1.0  0.32473  0.26910  0.81382  1.0000
  C   C316      1.0  0.01361  0.28572  0.72357  1.0000
  N   N21       1.0  0.10002  0.33517  0.63960  1.0000
  C   C317      1.0  0.03028  0.38442  0.52918  1.0000
  H   H513      1.0  0.31194  0.43374  0.82617  1.0000
  H   H514      1.0  0.12943  0.31827  0.64926  1.0000
  H   H515      1.0  0.28751  0.26353  0.73885  1.0000
  H   H516      1.0  0.26773  0.27339  0.79017  1.0000
  C   C318      1.0  0.29664  0.25270  0.82209  1.0000
  H   H517      1.0  0.28219  0.24985  0.83838  1.0000
  H   H518      1.0  0.47215  0.46712  0.89207  1.0000
  H   H519      1.0  0.19621  0.44742  0.49593  1.0000
  H   H520      1.0  0.07802  0.35004  0.59296  1.0000
  H   H521      1.0  0.42793  0.44012  0.90019  1.0000
  H   H522      1.0  0.04401  0.46297  0.75451  1.0000
  H   H523      1.0  0.46481  0.24588  0.79263  1.0000
  H   H524      1.0  0.42322  0.46567  0.91224  1.0000
  H   H525      1.0  0.04712  0.40952  0.57692  1.0000
  H   H526      1.0  0.48659  0.46251  0.84766  1.0000
  H   H527      1.0  0.45756  0.44537  0.94887  1.0000
  H   H528      1.0  0.04898  0.47411  0.68438  1.0000
  S   S94       1.0  0.43027  0.37916  0.97349  1.0000
  H   H529      1.0  0.02075  0.45585  0.61115  1.0000
  H   H530      1.0  0.07444  0.41019  0.61401  1.0000
  N   N22       1.0  0.06744  0.46345  0.71797  1.0000
  H   H531      1.0  0.05799  0.42600  0.57907  1.0000
  H   H532      1.0  0.36583  0.48197  0.76751  1.0000
  H   H533      1.0  0.10905  0.25450  0.69889  1.0000
  C   C319      1.0  0.18078  0.45609  0.49209  1.0000
  H   H534      1.0  0.10328  0.34227  0.57238  1.0000
  H   H535      1.0  0.07582  0.44714  0.76636  1.0000
  H   H536      1.0  0.14165  0.47511  0.49021  1.0000
  H   H537      1.0  0.17019  0.24763  0.66417  1.0000
  H   H538      1.0  0.44704  0.42808  0.92048  1.0000
  H   H539      1.0  0.49001  0.44461  0.85612  1.0000
  H   H540      1.0  0.46278  0.42735  0.98442  1.0000
  H   H541      1.0  0.44856  0.45854  0.87641  1.0000
  S   S95       1.0  0.20113  0.48876  0.67865  1.0000
  C   C320      1.0  0.08409  0.47995  0.74921  1.0000
  H   H542      1.0  0.28358  0.24553  0.74587  1.0000
  H   H543      1.0  0.50524  0.43457  0.89712  1.0000
  H   H544      1.0  0.18266  0.46317  0.50709  1.0000
  H   H545      1.0  0.07917  0.47231  0.76511  1.0000
  H   H546      1.0  0.47696  0.42248  0.87978  1.0000
  H   H547      1.0  0.44221  0.41890  0.88054  1.0000
  H   H548      1.0  0.03213  0.48630  0.72638  1.0000
  N   N23       1.0  0.46774  0.44620  0.90798  1.0000
  C   C321      1.0  0.01479  0.29956  0.71557  1.0000
  C   C322      1.0  0.02151  0.47678  0.72784  1.0000
  H   H549      1.0  0.16065  0.45187  0.49460  1.0000
  H   H550      1.0  0.31437  0.24508  0.82399  1.0000
  H   H551      1.0  0.10453  0.48309  0.75300  1.0000
  N   N24       1.0  0.01449  0.42460  0.58556  1.0000
  H   H552      1.0  0.32419  0.24911  0.77923  1.0000
  H   H553      1.0  0.49323  0.43050  0.92885  1.0000
  C   C323      1.0  0.01075  0.43003  0.55791  1.0000
  H   H554      1.0  0.02253  0.45402  0.57761  1.0000
  C   C324      1.0  0.01341  0.41930  0.53801  1.0000
  H   H555      1.0  0.01064  0.47625  0.70986  1.0000
  H   H556      1.0  0.00931  0.42446  0.51868  1.0000
  Fe  Fe49      1.0  0.12525  0.54331  0.46175  1.0000
  S   S96       1.0  0.16572  0.55247  0.46097  1.0000
  S   S97       1.0  0.11552  0.52197  0.45489  1.0000
  C   C325      1.0  0.49874  0.66510  0.21542  1.0000
  H   H557      1.0  0.24378  0.67959  0.29342  1.0000
  H   H558      1.0  0.38417  0.66920  0.29490  1.0000
  Fe  Fe50      1.0  0.14362  0.57130  0.44150  1.0000
  S   S98       1.0  0.15884  0.58219  0.40408  1.0000
  N   N25       1.0  0.07010  0.73877  0.30486  1.0000
  S   S99       1.0  0.10460  0.56132  0.43956  1.0000
  H   H559      1.0  0.29394  0.52113  0.23380  1.0000
  S   S100      1.0  0.42435  0.54994  0.01910  1.0000
  Fe  Fe51      1.0  0.39246  0.57432  0.06955  1.0000
  S   S101      1.0  0.43640  0.56670  0.06880  1.0000
  S   S102      1.0  0.37754  0.58596  0.10390  1.0000
  Fe  Fe52      1.0  0.43457  0.57097  0.02608  1.0000
  C   C326      1.0  0.01157  0.56260  0.40696  1.0000
  Fe  Fe53      1.0  0.42229  0.54644  0.06208  1.0000
  S   S103      1.0  0.44263  0.52694  0.08017  1.0000
  S   S104      1.0  0.37816  0.55347  0.06596  1.0000
  Fe  Fe54      1.0  0.42617  0.66829  0.20157  1.0000
  S   S105      1.0  0.41517  0.67646  0.16169  1.0000
  S   S106      1.0  0.46604  0.67383  0.21689  1.0000
  Fe  Fe55      1.0  0.36831  0.65883  0.21419  1.0000
  S   S107      1.0  0.35391  0.66614  0.17498  1.0000
  S   S108      1.0  0.34133  0.65009  0.24719  1.0000
  Fe  Fe56      1.0  0.39454  0.65691  0.16077  1.0000
  S   S109      1.0  0.40069  0.64639  0.12370  1.0000
  Fe  Fe57      1.0  0.37599  0.68481  0.17985  1.0000
  S   S110      1.0  0.35484  0.70590  0.17275  1.0000
  S   S111      1.0  0.40780  0.64819  0.19989  1.0000
  S   S112      1.0  0.38809  0.67797  0.21982  1.0000
  Fe  Fe58      1.0  0.11802  0.65989  0.29527  1.0000
  S   S113      1.0  0.12508  0.67217  0.32789  1.0000
  S   S114      1.0  0.07588  0.65273  0.28981  1.0000
  Fe  Fe59      1.0  0.18057  0.65670  0.28058  1.0000
  S   S115      1.0  0.19091  0.66815  0.31352  1.0000
  S   S116      1.0  0.21156  0.65131  0.24838  1.0000
  Fe  Fe60      1.0  0.15936  0.65610  0.33651  1.0000
  S   S117      1.0  0.16037  0.64639  0.37767  1.0000
  Fe  Fe61      1.0  0.15560  0.68275  0.30134  1.0000
  S   S118      1.0  0.15957  0.70493  0.28702  1.0000
  S   S119      1.0  0.15163  0.64358  0.30437  1.0000
  S   S120      1.0  0.14588  0.67157  0.26783  1.0000
  H   H560      1.0  0.45738  0.59386  0.09800  1.0000
  H   H561      1.0  0.34039  0.61340  0.16146  1.0000
  C   C327      1.0  0.16069  0.71803  0.30742  1.0000
  C   C328      1.0  0.16071  0.73151  0.29642  1.0000
  H   H562      1.0  0.23398  0.56211  0.46592  1.0000
  C   C329      1.0  0.33910  0.62838  0.18850  1.0000
  C   C330      1.0  0.16246  0.72618  0.34962  1.0000
  C   C331      1.0  0.16149  0.71536  0.33406  1.0000
  H   H563      1.0  0.16015  0.73361  0.27579  1.0000
  H   H564      1.0  0.16333  0.72409  0.37025  1.0000
  H   H565      1.0  0.16155  0.70498  0.34267  1.0000
  C   C332      1.0  0.04407  0.66216  0.29460  1.0000
  C   C333      1.0  0.04232  0.67581  0.30000  1.0000
  C   C334      1.0  0.49296  0.67920  0.13429  1.0000
  H   H566      1.0  0.06077  0.68086  0.30152  1.0000
  C   C335      1.0  0.41162  0.49718  0.12833  1.0000
  C   C336      1.0  0.37259  0.71979  0.18040  1.0000
  C   C337      1.0  0.39957  0.71788  0.18793  1.0000
  C   C338      1.0  0.41351  0.72909  0.19343  1.0000
  H   H567      1.0  0.32246  0.60056  0.13553  1.0000
  C   C339      1.0  0.21019  0.59103  0.44569  1.0000
  C   C340      1.0  0.35958  0.73300  0.17875  1.0000
  H   H568      1.0  0.40979  0.70776  0.18928  1.0000
  H   H569      1.0  0.43443  0.72751  0.19904  1.0000
  H   H570      1.0  0.09461  0.55952  0.38202  1.0000
  H   H571      1.0  0.18816  0.58930  0.44807  1.0000
  H   H572      1.0  0.10619  0.73874  0.27975  1.0000
  H   H573      1.0  0.33877  0.73457  0.17281  1.0000
  C   C341      1.0  0.30512  0.65176  0.24763  1.0000
  C   C342      1.0  0.29083  0.65531  0.22521  1.0000
  C   C343      1.0  0.26223  0.65512  0.22579  1.0000
  C   C344      1.0  0.24747  0.65197  0.24895  1.0000
  C   C345      1.0  0.26162  0.64917  0.27162  1.0000
  C   C346      1.0  0.29032  0.64884  0.27086  1.0000
  H   H574      1.0  0.30188  0.65788  0.20734  1.0000
  H   H575      1.0  0.25143  0.65745  0.20822  1.0000
  H   H576      1.0  0.25053  0.64673  0.28958  1.0000
  H   H577      1.0  0.30111  0.64612  0.28834  1.0000
  H   H578      1.0  0.32095  0.50886  0.04844  1.0000
  H   H579      1.0  0.44009  0.62205  0.32765  1.0000
  H   H580      1.0  0.47742  0.55433  0.03392  1.0000
  C   C347      1.0  0.38785  0.60220  0.10921  1.0000
  C   C348      1.0  0.39338  0.61186  0.08881  1.0000
  C   C349      1.0  0.39816  0.62524  0.09367  1.0000
  C   C350      1.0  0.39765  0.62908  0.11893  1.0000
  C   C351      1.0  0.39340  0.61925  0.13940  1.0000
  C   C352      1.0  0.38826  0.60591  0.13451  1.0000
  H   H581      1.0  0.39284  0.60917  0.06925  1.0000
  H   H582      1.0  0.40146  0.63277  0.07771  1.0000
  H   H583      1.0  0.39350  0.62200  0.15893  1.0000
  H   H584      1.0  0.38420  0.59844  0.15039  1.0000
  C   C353      1.0  0.42218  0.51828  0.10360  1.0000
  C   C354      1.0  0.39863  0.52483  0.11408  1.0000
  C   C355      1.0  0.38134  0.51751  0.13128  1.0000
  C   C356      1.0  0.38760  0.50363  0.13815  1.0000
  H   H585      1.0  0.21008  0.60131  0.43498  1.0000
  C   C357      1.0  0.42890  0.50451  0.11108  1.0000
  H   H586      1.0  0.39376  0.53554  0.10904  1.0000
  H   H587      1.0  0.36294  0.52258  0.13903  1.0000
  H   H588      1.0  0.44723  0.49943  0.10320  1.0000
  H   H589      1.0  0.24015  0.72484  0.31638  1.0000
  H   H590      1.0  0.01388  0.53455  0.41968  1.0000
  H   H591      1.0  0.28110  0.63344  0.18318  1.0000
  H   H592      1.0  0.26206  0.50343  0.21356  1.0000
  H   H593      1.0  0.49263  0.61773  0.06278  1.0000
  H   H594      1.0  0.36324  0.65524  0.29717  1.0000
  C   C358      1.0  0.15798  0.60009  0.39703  1.0000
  C   C359      1.0  0.14944  0.60916  0.41536  1.0000
  C   C360      1.0  0.15029  0.62331  0.40921  1.0000
  C   C361      1.0  0.15908  0.62854  0.38456  1.0000
  C   C362      1.0  0.16707  0.61947  0.36614  1.0000
  C   C363      1.0  0.16668  0.60532  0.37241  1.0000
  H   H595      1.0  0.14233  0.60527  0.43426  1.0000
  H   H596      1.0  0.14401  0.63027  0.42357  1.0000
  H   H597      1.0  0.17413  0.62332  0.34719  1.0000
  H   H598      1.0  0.17334  0.59840  0.35811  1.0000
  C   C364      1.0  0.12480  0.51611  0.42475  1.0000
  C   C365      1.0  0.11470  0.50407  0.41818  1.0000
  C   C366      1.0  0.33855  0.51513  0.04970  1.0000
  C   C367      1.0  0.14065  0.50566  0.37756  1.0000
  C   C368      1.0  0.15002  0.51795  0.38380  1.0000
  C   C369      1.0  0.14222  0.52315  0.40739  1.0000
  H   H599      1.0  0.41473  0.50513  0.01269  1.0000
  H   H600      1.0  0.32534  0.52536  0.21780  1.0000
  H   H601      1.0  0.16376  0.52334  0.37049  1.0000
  H   H602      1.0  0.14995  0.53250  0.41225  1.0000
  H   H603      1.0  0.48023  0.74024  0.23502  1.0000
  C   C370      1.0  0.02905  0.56675  0.48069  1.0000
  N   N26       1.0  0.04641  0.54292  0.39467  1.0000
  S   S121      1.0  0.34781  0.55119  0.00034  1.0000
  H   H604      1.0  0.37321  0.51187  0.98994  1.0000
  C   C371      1.0  0.08693  0.73703  0.32854  1.0000
  C   C372      1.0  0.23175  0.72486  0.22466  1.0000
  Fe  Fe62      1.0  0.09430  0.56907  0.47784  1.0000
  H   H605      1.0  0.48227  0.68505  0.14939  1.0000
  C   C373      1.0  0.28778  0.63809  0.16389  1.0000
  H   H606      1.0  0.03314  0.60994  0.39028  1.0000
  C   C374      1.0  0.31480  0.51696  0.22862  1.0000
  H   H607      1.0  0.34287  0.62884  0.12427  1.0000
  H   H608      1.0  0.43446  0.67087  0.26537  1.0000
  H   H609      1.0  0.45198  0.62213  0.27219  1.0000
  H   H610      1.0  0.44455  0.65057  0.24301  1.0000
  H   H611      1.0  0.39028  0.65500  0.31891  1.0000
  H   H612      1.0  0.33707  0.51198  0.99801  1.0000
  N   N27       1.0  0.22804  0.69901  0.23542  1.0000
  C   C375      1.0  0.44896  0.64420  0.26118  1.0000
  C   C376      1.0  0.38685  0.51692  0.03846  1.0000
  C   C377      1.0  0.06261  0.72481  0.29930  1.0000
  S   S122      1.0  0.15164  0.49916  0.34829  1.0000
  C   C378      1.0  0.32619  0.63580  0.13164  1.0000
  H   H613      1.0  0.42964  0.66992  0.29929  1.0000
  N   N28       1.0  0.30728  0.62825  0.15032  1.0000
  H   H614      1.0  0.05875  0.54955  0.48341  1.0000
  H   H615      1.0  0.31153  0.61317  0.18300  1.0000
  C   C379      1.0  0.38449  0.65796  0.29887  1.0000
  H   H616      1.0  0.45546  0.62683  0.23868  1.0000
  C   C380      1.0  0.22237  0.58050  0.42746  1.0000
  H   H617      1.0  0.47130  0.64413  0.26331  1.0000
  H   H618      1.0  0.04558  0.53477  0.35772  1.0000
  C   C381      1.0  0.25831  0.74312  0.29948  1.0000
  H   H619      1.0  0.35086  0.62120  0.20217  1.0000
  H   H620      1.0  0.29471  0.69792  0.20960  1.0000
  C   C382      1.0  0.50303  0.65193  0.20753  1.0000
  H   H621      1.0  0.08180  0.52950  0.38514  1.0000
  H   H622      1.0  0.28763  0.68591  0.23662  1.0000
  H   H623      1.0  0.44616  0.61087  0.06272  1.0000
  H   H624      1.0  0.21296  0.72694  0.21367  1.0000
  H   H625      1.0  0.47863  0.67942  0.11845  1.0000
  C   C383      1.0  0.04138  0.55669  0.40508  1.0000
  H   H626      1.0  0.38022  0.52478  0.02291  1.0000
  C   C384      1.0  0.03558  0.53227  0.41420  1.0000
  H   H627      1.0  0.45697  0.59496  0.04999  1.0000
  N   N29       1.0  0.36532  0.50700  0.04525  1.0000
  C   C385      1.0  0.03872  0.51750  0.40653  1.0000
  C   C386      1.0  0.03472  0.54294  0.36850  1.0000
  H   H628      1.0  0.28292  0.70416  0.23874  1.0000
  H   H629      1.0  0.29600  0.60129  0.11346  1.0000
  H   H630      1.0  0.04830  0.72061  0.31461  1.0000
  H   H631      1.0  0.04614  0.53224  0.43261  1.0000
  C   C387      1.0  0.22622  0.68821  0.25766  1.0000
  Fe  Fe63      1.0  0.38122  0.55841  0.02310  1.0000
  S   S123      1.0  0.39131  0.58010  0.02686  1.0000
  H   H632      1.0  0.26920  0.50287  0.24623  1.0000
  H   H633      1.0  0.29813  0.64730  0.16762  1.0000
  H   H634      1.0  0.20980  0.68160  0.19841  1.0000
  H   H635      1.0  0.42230  0.62809  0.25343  1.0000
  H   H636      1.0  0.17495  0.68771  0.20191  1.0000
  C   C388      1.0  0.29196  0.61827  0.13747  1.0000
  C   C389      1.0  0.44077  0.66479  0.28343  1.0000
  C   C390      1.0  0.25300  0.59144  0.46975  1.0000
  H   H637      1.0  0.48600  0.64674  0.20196  1.0000
  H   H638      1.0  0.49673  0.66839  0.14175  1.0000
  H   H639      1.0  0.07839  0.70419  0.29251  1.0000
  H   H640      1.0  0.19071  0.67828  0.22843  1.0000
  C   C391      1.0  0.22955  0.71279  0.24531  1.0000
  H   H641      1.0  0.39006  0.52280  0.05506  1.0000
  H   H642      1.0  0.46157  0.62011  0.09764  1.0000
  H   H643      1.0  0.01077  0.57210  0.41693  1.0000
  H   H644      1.0  0.46049  0.61062  0.03082  1.0000
  H   H645      1.0  0.24969  0.72334  0.21135  1.0000
  H   H646      1.0  0.25797  0.61340  0.46011  1.0000
  H   H647      1.0  0.26353  0.58209  0.46275  1.0000
  S   S124      1.0  0.36445  0.49449  0.15798  1.0000
  C   C392      1.0  0.46737  0.61241  0.11354  1.0000
  H   H648      1.0  0.43743  0.64941  0.32450  1.0000
  H   H649      1.0  0.21135  0.57106  0.43013  1.0000
  H   H650      1.0  0.29705  0.63922  0.10002  1.0000
  C   C393      1.0  0.19436  0.68593  0.21208  1.0000
  H   H651      1.0  0.05905  0.65421  0.38662  1.0000
  C   C394      1.0  0.16222  0.73968  0.33865  1.0000
  H   H652      1.0  0.18433  0.70346  0.23309  1.0000
  C   C395      1.0  0.01661  0.68302  0.30285  1.0000
  H   H653      1.0  0.06008  0.51318  0.40798  1.0000
  H   H654      1.0  0.25651  0.60373  0.43236  1.0000
  H   H655      1.0  0.49673  0.57075  0.11314  1.0000
  H   H656      1.0  0.35397  0.63488  0.17799  1.0000
  C   C396      1.0  0.40056  0.74230  0.19172  1.0000
  H   H657      1.0  0.48411  0.66410  0.26987  1.0000
  H   H658      1.0  0.23589  0.69756  0.29237  1.0000
  H   H659      1.0  0.26571  0.69052  0.27510  1.0000
  H   H660      1.0  0.25002  0.70171  0.19832  1.0000
  C   C397      1.0  0.28057  0.69585  0.22647  1.0000
  H   H661      1.0  0.33710  0.64316  0.14142  1.0000
  H   H662      1.0  0.35626  0.49344  0.24089  1.0000
  C   C398      1.0  0.31347  0.64417  0.10835  1.0000
  H   H663      1.0  0.10089  0.71666  0.28044  1.0000
  N   N30       1.0  0.06995  0.62786  0.36677  1.0000
  C   C399      1.0  0.08998  0.61602  0.36111  1.0000
  C   C400      1.0  0.06150  0.62581  0.39488  1.0000
  C   C401      1.0  0.08480  0.64069  0.36213  1.0000
  C   C402      1.0  0.04640  0.62823  0.34914  1.0000
  C   C403      1.0  0.10378  0.61669  0.33400  1.0000
  H   H664      1.0  0.16776  0.60426  0.47374  1.0000
  C   C404      1.0  0.06824  0.65414  0.36693  1.0000
  H   H665      1.0  0.30919  0.49403  0.26353  1.0000
  H   H666      1.0  0.10654  0.61480  0.37512  1.0000
  H   H667      1.0  0.07994  0.60627  0.36334  1.0000
  H   H668      1.0  0.03185  0.51659  0.38699  1.0000
  H   H669      1.0  0.42490  0.50403  0.04587  1.0000
  H   H670      1.0  0.10303  0.63995  0.37414  1.0000
  H   H671      1.0  0.09264  0.64216  0.34188  1.0000
  H   H672      1.0  0.05191  0.63324  0.32985  1.0000
  H   H673      1.0  0.04199  0.61766  0.34579  1.0000
  H   H674      1.0  0.11976  0.62401  0.33231  1.0000
  H   H675      1.0  0.11428  0.60660  0.33077  1.0000
  H   H676      1.0  0.08913  0.61933  0.31856  1.0000
  H   H677      1.0  0.27759  0.62346  0.12344  1.0000
  C   C405      1.0  0.46198  0.60562  0.05066  1.0000
  C   C406      1.0  0.26359  0.60347  0.45223  1.0000
  H   H678      1.0  0.08215  0.66251  0.36470  1.0000
  H   H679      1.0  0.00910  0.72175  0.37019  1.0000
  C   C407      1.0  0.16117  0.74232  0.31200  1.0000
  C   C408      1.0  0.47113  0.66683  0.28676  1.0000
  H   H680      1.0  0.26971  0.73892  0.28274  1.0000
  H   H681      1.0  0.05261  0.65673  0.35232  1.0000
  H   H682      1.0  0.25049  0.68487  0.21158  1.0000
  H   H683      1.0  0.04682  0.63406  0.40093  1.0000
  H   H684      1.0  0.23106  0.67797  0.25093  1.0000
  H   H685      1.0  0.20498  0.68807  0.26592  1.0000
  H   H686      1.0  0.35228  0.52783  0.07858  1.0000
  H   H687      1.0  0.32933  0.64516  0.09258  1.0000
  H   H688      1.0  0.24441  0.57786  0.42899  1.0000
  H   H689      1.0  0.24712  0.63483  0.15093  1.0000
  H   H690      1.0  0.32623  0.51397  0.24625  1.0000
  H   H691      1.0  0.50524  0.60453  0.04377  1.0000
  H   H692      1.0  0.08606  0.53916  0.41144  1.0000
  H   H693      1.0  0.32251  0.61249  0.10708  1.0000
  H   H694      1.0  0.47910  0.66119  0.30445  1.0000
  H   H695      1.0  0.21128  0.71513  0.25802  1.0000
  H   H696      1.0  0.31631  0.52872  0.07518  1.0000
  H   H697      1.0  0.42881  0.51906  0.02525  1.0000
  C   C409      1.0  0.04878  0.61226  0.40344  1.0000
  C   C410      1.0  0.44394  0.62946  0.25655  1.0000
  H   H698      1.0  0.21417  0.61278  0.47140  1.0000
  H   H699      1.0  0.26445  0.64757  0.13066  1.0000
  H   H700      1.0  0.10812  0.73316  0.32366  1.0000
  C   C411      1.0  0.36251  0.49801  0.02392  1.0000
  H   H701      1.0  0.24708  0.71301  0.25771  1.0000
  C   C412      1.0  0.33507  0.52172  0.07539  1.0000
  N   N31       1.0  0.43335  0.65023  0.28346  1.0000
  C   C413      1.0  0.24416  0.68921  0.28070  1.0000
  H   H702      1.0  0.33274  0.51399  0.09195  1.0000
  C   C414      1.0  0.44109  0.64257  0.30868  1.0000
  C   C415      1.0  0.26111  0.64313  0.15059  1.0000
  H   H703      1.0  0.20287  0.70672  0.20343  1.0000
  C   C416      1.0  0.20201  0.69955  0.22105  1.0000
  C   C417      1.0  0.32430  0.62010  0.17046  1.0000
  H   H704      1.0  0.03881  0.61288  0.42284  1.0000
  H   H705      1.0  0.08493  0.55121  0.35452  1.0000
  H   H706      1.0  0.07882  0.72913  0.34285  1.0000
  C   C418      1.0  0.42581  0.62973  0.31743  1.0000
  H   H707      1.0  0.46334  0.63948  0.30834  1.0000
  H   H708      1.0  0.27888  0.61256  0.15198  1.0000
  N   N32       1.0  0.22249  0.59082  0.47161  1.0000
  H   H709      1.0  0.11438  0.54513  0.37175  1.0000
  C   C419      1.0  0.31445  0.50512  0.21140  1.0000
  H   H710      1.0  0.30603  0.65455  0.11328  1.0000
  H   H711      1.0  0.32475  0.63465  0.20030  1.0000
  C   C420      1.0  0.40324  0.65073  0.27904  1.0000
  H   H712      1.0  0.40923  0.63213  0.33180  1.0000
  H   H713      1.0  0.03858  0.55263  0.35676  1.0000
  H   H714      1.0  0.17240  0.50053  0.47526  1.0000
  H   H715      1.0  0.48356  0.61617  0.12447  1.0000
  C   C421      1.0  0.25149  0.69542  0.21706  1.0000
  H   H716      1.0  0.25036  0.65124  0.16146  1.0000
  H   H717      1.0  0.01549  0.69364  0.30646  1.0000
  C   C422      1.0  0.30960  0.60767  0.12273  1.0000
  H   H718      1.0  0.39880  0.65598  0.25979  1.0000
  H   H719      1.0  0.23440  0.73422  0.23427  1.0000
  H   H720      1.0  0.44931  0.61157  0.12691  1.0000
  H   H721      1.0  0.33546  0.52358  0.03422  1.0000
  C   C423      1.0  0.27143  0.49666  0.22943  1.0000
  C   C424      1.0  0.07688  0.53971  0.39227  1.0000
  H   H722      1.0  0.30418  0.50933  0.19357  1.0000
  C   C425      1.0  0.49704  0.55837  0.03038  1.0000
  C   C426      1.0  0.12263  0.49884  0.39465  1.0000
  H   H723      1.0  0.41755  0.62461  0.30192  1.0000
  C   C427      1.0  0.08656  0.71389  0.29667  1.0000
  H   H724      1.0  0.07941  0.62629  0.40698  1.0000
  H   H725      1.0  0.02094  0.64519  0.28845  1.0000
  H   H726      1.0  0.21998  0.58487  0.40727  1.0000
  H   H727      1.0  0.28620  0.60229  0.45096  1.0000
  H   H728      1.0  0.47335  0.67782  0.28833  1.0000
  C   C428      1.0  0.03777  0.55295  0.48037  1.0000
  C   C429      1.0  0.01986  0.65572  0.29274  1.0000
  H   H729      1.0  0.09786  0.71163  0.31460  1.0000
  C   C430      1.0  0.09310  0.54961  0.37402  1.0000
  C   C431      1.0  0.23363  0.73448  0.30496  1.0000
  H   H730      1.0  0.05171  0.72532  0.28104  1.0000
  H   H731      1.0  0.05209  0.56458  0.39300  1.0000
  H   H732      1.0  0.02611  0.53279  0.47593  1.0000
  C   C432      1.0  0.47586  0.59822  0.10441  1.0000
  C   C433      1.0  0.49947  0.57088  0.01604  1.0000
  H   H733      1.0  0.39586  0.64050  0.27825  1.0000
  H   H734      1.0  0.04967  0.55639  0.42460  1.0000
  H   H735      1.0  0.02625  0.51106  0.42023  1.0000
  S   S125      1.0  0.47020  0.58051  0.00550  1.0000
  C   C434      1.0  0.49084  0.60679  0.06016  1.0000
  S   S126      1.0  0.13162  0.58050  0.47838  1.0000
  H   H736      1.0  0.48176  0.59170  0.12200  1.0000
  H   H737      1.0  0.06467  0.60365  0.40519  1.0000
  H   H738      1.0  0.02029  0.64334  0.37123  1.0000
  N   N33       1.0  0.49849  0.59781  0.08405  1.0000
  H   H739      1.0  0.50708  0.73820  0.19684  1.0000
  H   H740      1.0  0.33582  0.50239  0.20481  1.0000
  H   H741      1.0  0.48553  0.57973  0.06915  1.0000
  C   C435      1.0  0.41521  0.51068  0.03011  1.0000
  C   C436      1.0  0.01931  0.54346  0.47595  1.0000
  C   C437      1.0  0.35651  0.50555  0.99745  1.0000
  C   C438      1.0  0.01889  0.63522  0.35830  1.0000
  H   H742      1.0  0.37802  0.50423  0.08469  1.0000
  C   C439      1.0  0.37349  0.49806  0.06893  1.0000
  H   H743      1.0  0.22510  0.73188  0.28698  1.0000
  H   H744      1.0  0.21742  0.73922  0.31718  1.0000
  C   C440      1.0  0.50391  0.58340  0.07682  1.0000
  H   H745      1.0  0.27243  0.74041  0.31549  1.0000
  C   C441      1.0  0.21085  0.60334  0.48408  1.0000
  H   H746      1.0  0.10085  0.49872  0.43140  1.0000
  H   H747      1.0  0.01611  0.74044  0.28247  1.0000
  H   H748      1.0  0.03237  0.74232  0.32679  1.0000
  S   S127      1.0  0.05244  0.57865  0.48515  1.0000
  S   S128      1.0  0.17273  0.56176  0.53448  1.0000
  Fe  Fe64      1.0  0.17505  0.50450  0.65474  1.0000
  S   S129      1.0  0.16679  0.51835  0.68671  1.0000
  S   S130      1.0  0.18315  0.50824  0.61164  1.0000
  Fe  Fe65      1.0  0.12952  0.50647  0.69599  1.0000
  S   S131      1.0  0.08647  0.51595  0.70488  1.0000
  C   C442      1.0  0.47907  0.54092  0.71585  1.0000
  H   H749      1.0  0.21591  0.58032  0.50947  1.0000
  S   S132      1.0  0.41330  0.49706  0.87164  1.0000
  H   H750      1.0  0.14312  0.55502  0.63051  1.0000
  Fe  Fe66      1.0  0.37284  0.50928  0.87078  1.0000
  S   S133      1.0  0.38367  0.52342  0.83629  1.0000
  S   S134      1.0  0.34573  0.51547  0.90476  1.0000
  Fe  Fe67      1.0  0.36705  0.50817  0.81229  1.0000
  S   S135      1.0  0.34133  0.51146  0.77604  1.0000
  Fe  Fe68      1.0  0.42387  0.51051  0.83610  1.0000
  S   S136      1.0  0.46437  0.52057  0.83364  1.0000
  N   N34       1.0  0.09725  0.53938  0.62202  1.0000
  C   C443      1.0  0.07571  0.54940  0.63223  1.0000
  C   C444      1.0  0.10273  0.51527  0.60593  1.0000
  H   H751      1.0  0.11604  0.55542  0.59801  1.0000
  H   H752      1.0  0.18630  0.55760  0.58779  1.0000
  C   C445      1.0  0.05312  0.50280  0.67482  1.0000
  H   H753      1.0  0.05322  0.53626  0.66086  1.0000
  H   H754      1.0  0.48169  0.53952  0.69501  1.0000
  H   H755      1.0  0.22922  0.53417  0.83017  1.0000
  C   C446      1.0  0.28662  0.50604  0.78696  1.0000
  C   C447      1.0  0.31498  0.53592  0.81930  1.0000
  C   C448      1.0  0.34893  0.52569  0.93061  1.0000
  C   C449      1.0  0.37354  0.53045  0.93745  1.0000
  C   C450      1.0  0.37403  0.53829  0.95892  1.0000
  C   C451      1.0  0.34984  0.54151  0.97320  1.0000
  C   C452      1.0  0.32554  0.53681  0.96598  1.0000
  C   C453      1.0  0.32515  0.52889  0.94518  1.0000
  H   H756      1.0  0.39211  0.52804  0.92642  1.0000
  H   H757      1.0  0.39295  0.54190  0.96425  1.0000
  Fe  Fe69      1.0  0.19075  0.50184  0.71155  1.0000
  H   H758      1.0  0.30611  0.52520  0.94042  1.0000
  C   C454      1.0  0.05467  0.51152  0.69425  1.0000
  C   C455      1.0  0.03022  0.51699  0.70556  1.0000
  H   H759      1.0  0.03106  0.52385  0.72046  1.0000
  C   C456      1.0  0.25272  0.50565  0.75376  1.0000
  C   C457      1.0  0.12049  0.53662  0.63999  1.0000
  C   C458      1.0  0.08783  0.54746  0.57457  1.0000
  C   C459      1.0  0.30708  0.50889  0.76820  1.0000
  H   H760      1.0  0.32009  0.53650  0.87078  1.0000
  C   C460      1.0  0.27334  0.50822  0.73501  1.0000
  H   H761      1.0  0.32841  0.54259  0.82796  1.0000
  H   H762      1.0  0.07916  0.52126  0.63887  1.0000
  C   C461      1.0  0.22927  0.53076  0.85098  1.0000
  C   C462      1.0  0.28518  0.53777  0.82941  1.0000
  C   C463      1.0  0.17418  0.54703  0.55638  1.0000
  C   C464      1.0  0.16846  0.53441  0.54870  1.0000
  C   C465      1.0  0.17100  0.52268  0.56603  1.0000
  C   C466      1.0  0.17857  0.52349  0.59137  1.0000
  C   C467      1.0  0.18366  0.53617  0.59929  1.0000
  C   C468      1.0  0.18169  0.54788  0.58176  1.0000
  H   H763      1.0  0.16281  0.53360  0.52919  1.0000
  H   H764      1.0  0.16731  0.51289  0.55969  1.0000
  H   H765      1.0  0.19000  0.53686  0.61863  1.0000
  H   H766      1.0  0.13719  0.53004  0.63146  1.0000
  H   H767      1.0  0.24690  0.53574  0.88592  1.0000
  H   H768      1.0  0.31590  0.53871  0.79823  1.0000
  H   H769      1.0  0.05778  0.55061  0.61988  1.0000
  H   H770      1.0  0.15864  0.49422  0.50577  1.0000
  C   C469      1.0  0.13376  0.54928  0.64740  1.0000
  H   H771      1.0  0.11409  0.53067  0.65807  1.0000
  H   H772      1.0  0.24631  0.54874  0.86040  1.0000
  C   C470      1.0  0.28609  0.51829  0.86198  1.0000
  H   H773      1.0  0.28543  0.51622  0.90454  1.0000
  C   C471      1.0  0.29845  0.54030  0.87397  1.0000
  H   H774      1.0  0.09842  0.55202  0.55704  1.0000
  C   C472      1.0  0.10819  0.54530  0.59637  1.0000
  H   H775      1.0  0.08326  0.55975  0.63159  1.0000
  H   H776      1.0  0.32325  0.52518  0.82229  1.0000
  H   H777      1.0  0.12596  0.53882  0.58949  1.0000
  H   H778      1.0  0.11932  0.55615  0.65793  1.0000
  H   H779      1.0  0.07024  0.55465  0.57903  1.0000
  H   H780      1.0  0.27781  0.54860  0.82465  1.0000
  H   H781      1.0  0.27687  0.51291  0.84715  1.0000
  H   H782      1.0  0.15052  0.54589  0.66050  1.0000
  H   H783      1.0  0.08046  0.53776  0.56960  1.0000
  H   H784      1.0  0.12180  0.51222  0.61598  1.0000
  S   S137      1.0  0.35368  0.49498  0.84681  1.0000
  H   H785      1.0  0.31171  0.55961  0.88340  1.0000
  H   H786      1.0  0.30836  0.51558  0.85996  1.0000
  H   H787      1.0  0.29375  0.53765  0.89473  1.0000
  H   H788      1.0  0.27688  0.56077  0.87512  1.0000
  H   H789      1.0  0.23173  0.51950  0.85347  1.0000
  H   H790      1.0  0.25440  0.51196  0.89114  1.0000
  H   H791      1.0  0.06520  0.52795  0.60942  1.0000
  N   N35       1.0  0.28011  0.53351  0.85754  1.0000
  H   H792      1.0  0.30380  0.55977  0.85046  1.0000
  C   C473      1.0  0.25088  0.53761  0.86480  1.0000
  H   H793      1.0  0.28447  0.50071  0.89001  1.0000
  H   H794      1.0  0.20876  0.53385  0.85918  1.0000
  H   H795      1.0  0.10780  0.51857  0.58557  1.0000
  H   H796      1.0  0.46591  0.49991  0.74773  1.0000
  H   H797      1.0  0.19339  0.57636  0.48621  1.0000
  C   C474      1.0  0.29731  0.55600  0.87022  1.0000
  C   C475      1.0  0.27686  0.51163  0.88848  1.0000
  H   H798      1.0  0.08010  0.54456  0.67424  1.0000
  H   H799      1.0  0.27339  0.53181  0.81732  1.0000
  H   H800      1.0  0.26855  0.50911  0.71492  1.0000
  C   C476      1.0  0.18002  0.60401  0.49101  1.0000
  C   C477      1.0  0.08469  0.52616  0.61955  1.0000
  H   H801      1.0  0.25275  0.56523  0.49356  1.0000
  C   C478      1.0  0.49826  0.51277  0.83385  1.0000
  H   H802      1.0  0.46242  0.55447  0.78880  1.0000
  H   H803      1.0  0.31565  0.51215  0.72741  1.0000
  C   C479      1.0  0.02757  0.49925  0.66751  1.0000
  C   C480      1.0  0.25967  0.50461  0.77980  1.0000
  C   C481      1.0  0.50452  0.49951  0.82685  1.0000
  H   H804      1.0  0.45997  0.53624  0.72201  1.0000
  H   H805      1.0  0.04920  0.55395  0.66526  1.0000
  H   H806      1.0  0.47649  0.55203  0.71806  1.0000
  S   S138      1.0  0.21806  0.50380  0.74606  1.0000
  H   H807      1.0  0.30680  0.53920  0.97680  1.0000
  C   C482      1.0  0.06424  0.54566  0.65971  1.0000
  Fe  Fe70      1.0  0.15009  0.56089  0.49802  1.0000
  S   S139      1.0  0.40860  0.49694  0.80854  1.0000
  H   H808      1.0  0.09152  0.50595  0.60603  1.0000
  C   C483      1.0  0.30015  0.50994  0.74220  1.0000
  H   H809      1.0  0.07163  0.49860  0.66567  1.0000
  H   H810      1.0  0.29152  0.50505  0.80696  1.0000
  S   S140      1.0  0.13658  0.49382  0.66288  1.0000
  H   H811      1.0  0.02328  0.53227  0.53308  1.0000
  H   H812      1.0  0.22228  0.55661  0.49756  1.0000
  H   H813      1.0  0.45526  0.54953  0.75807  1.0000
  C   C484      1.0  0.46371  0.54573  0.77674  1.0000
  C   C485      1.0  0.49369  0.53998  0.77465  1.0000
  H   H814      1.0  0.45843  0.52317  0.75660  1.0000
  C   C486      1.0  0.47908  0.51849  0.76072  1.0000
  H   H815      1.0  0.17439  0.59555  0.50521  1.0000
  H   H816      1.0  0.24402  0.50262  0.79454  1.0000
  H   H817      1.0  0.47735  0.51438  0.78122  1.0000
  S   S141      1.0  0.11157  0.55030  0.50027  1.0000
  H   H818      1.0  0.45052  0.53815  0.78678  1.0000
  H   H819      1.0  0.26100  0.59187  0.48924  1.0000
  H   H820      1.0  0.49904  0.53644  0.79474  1.0000
  C   C487      1.0  0.21489  0.57845  0.48882  1.0000
  H   H821      1.0  0.50614  0.54877  0.76896  1.0000
  H   H822      1.0  0.22133  0.60436  0.50218  1.0000
  H   H823      1.0  0.48537  0.50934  0.72366  1.0000
  C   C488      1.0  0.48371  0.50618  0.74451  1.0000
  H   H824      1.0  0.50180  0.49945  0.75050  1.0000
  N   N36       1.0  0.50049  0.52869  0.75723  1.0000
  H   H825      1.0  0.01276  0.52493  0.56395  1.0000
  C   C489      1.0  0.50442  0.53435  0.72967  1.0000
  H   H826      1.0  0.17414  0.61362  0.50004  1.0000
  H   H827      1.0  0.35444  0.49798  0.98334  1.0000
  C   C490      1.0  0.23221  0.56495  0.48587  1.0000
  H   H828      1.0  0.48826  0.49331  0.82311  1.0000
  Fe  Fe71      1.0  0.40166  0.77773  0.20184  1.0000
  S   S142      1.0  0.40904  0.78562  0.23975  1.0000
  C   C491      1.0  0.13454  0.98770  0.44665  1.0000
  Fe  Fe72      1.0  0.38114  0.80604  0.17873  1.0000
  S   S143      1.0  0.38721  0.81565  0.21498  1.0000
  S   S144      1.0  0.36453  0.81948  0.14460  1.0000
  Fe  Fe73      1.0  0.42723  0.80295  0.21612  1.0000
  S   S145      1.0  0.46657  0.81266  0.22202  1.0000
  Fe  Fe74      1.0  0.36814  0.79740  0.23508  1.0000
  S   S146      1.0  0.33978  0.79930  0.27076  1.0000
  S   S147      1.0  0.42223  0.79455  0.17845  1.0000
  S   S148      1.0  0.35954  0.78832  0.19863  1.0000
  Fe  Fe75      1.0  0.15626  0.77493  0.34289  1.0000
  S   S149      1.0  0.15017  0.78171  0.30151  1.0000
  H   H829      1.0  0.20664  0.76275  0.24442  1.0000
  Fe  Fe76      1.0  0.14922  0.80410  0.35883  1.0000
  S   S150      1.0  0.14311  0.81299  0.31812  1.0000
  S   S151      1.0  0.14282  0.81452  0.39603  1.0000
  Fe  Fe77      1.0  0.11601  0.79581  0.31570  1.0000
  S   S152      1.0  0.07557  0.79950  0.29591  1.0000
  Fe  Fe78      1.0  0.17817  0.79800  0.30753  1.0000
  S   S153      1.0  0.20978  0.80060  0.27436  1.0000
  S   S154      1.0  0.12002  0.78781  0.35677  1.0000
  S   S155      1.0  0.18614  0.79034  0.34851  1.0000
  S   S156      1.0  0.08784  0.89480  0.45308  1.0000
  H   H830      1.0  0.17325  0.92718  0.32242  1.0000
  S   S157      1.0  0.08561  0.93404  0.45169  1.0000
  Fe  Fe79      1.0  0.41447  0.88625  0.06768  1.0000
  S   S158      1.0  0.41886  0.90653  0.08237  1.0000
  S   S159      1.0  0.43085  0.86876  0.09534  1.0000
  Fe  Fe80      1.0  0.39287  0.89963  0.01682  1.0000
  S   S160      1.0  0.39463  0.92092  0.02794  1.0000
  H   H831      1.0  0.46058  0.81604  0.30623  1.0000
  Fe  Fe81      1.0  0.43507  0.91318  0.04303  1.0000
  S   S161      1.0  0.46946  0.92682  0.03764  1.0000
  Fe  Fe82      1.0  0.37801  0.91272  0.06637  1.0000
  S   S162      1.0  0.34726  0.92515  0.08975  1.0000
  S   S163      1.0  0.43496  0.89238  0.02948  1.0000
  S   S164      1.0  0.37208  0.89186  0.05416  1.0000
  C   C492      1.0  0.50197  0.98945  0.13649  1.0000
  H   H832      1.0  0.40537  0.82181  0.35387  1.0000
  S   S165      1.0  0.16942  0.96606  0.38070  1.0000
  H   H833      1.0  0.39892  0.80088  0.33704  1.0000
  H   H834      1.0  0.18323  0.88916  0.35554  1.0000
  H   H835      1.0  0.31968  0.76673  0.27719  1.0000
  H   H836      1.0  0.19483  0.92944  0.39562  1.0000
  S   S166      1.0  0.40581  0.96263  0.15850  1.0000
  H   H837      1.0  0.16189  0.89048  0.32875  1.0000
  C   C493      1.0  0.24246  0.76143  0.34265  1.0000
  H   H838      1.0  0.06023  0.78056  0.33961  1.0000
  H   H839      1.0  0.21143  0.91518  0.41352  1.0000
  H   H840      1.0  0.17794  0.92091  0.42343  1.0000
  H   H841      1.0  0.18363  0.90380  0.33198  1.0000
  C   C494      1.0  0.04390  0.74717  0.31007  1.0000
  H   H842      1.0  0.38369  0.83473  0.26037  1.0000
  S   S167      1.0  0.14723  0.90524  0.46572  1.0000
  H   H843      1.0  0.13163  0.85285  0.44995  1.0000
  C   C495      1.0  0.08527  0.83634  0.36667  1.0000
  H   H844      1.0  0.08692  0.80977  0.38020  1.0000
  S   S168      1.0  0.14077  0.98975  0.31906  1.0000
  C   C496      1.0  0.36278  0.93632  0.10796  1.0000
  C   C497      1.0  0.34748  0.94349  0.12639  1.0000
  C   C498      1.0  0.36016  0.95216  0.14135  1.0000
  C   C499      1.0  0.38825  0.95338  0.13827  1.0000
  C   C500      1.0  0.40329  0.94642  0.11953  1.0000
  C   C501      1.0  0.39052  0.93817  0.10411  1.0000
  H   H845      1.0  0.32592  0.94223  0.12928  1.0000
  H   H846      1.0  0.34845  0.95746  0.15590  1.0000
  H   H847      1.0  0.42495  0.94738  0.11689  1.0000
  H   H848      1.0  0.40226  0.93328  0.08917  1.0000
  H   H849      1.0  0.47879  0.88078  0.11141  1.0000
  C   C502      1.0  0.10863  0.94459  0.43487  1.0000
  C   C503      1.0  0.13646  0.94273  0.43931  1.0000
  C   C504      1.0  0.15498  0.94988  0.42322  1.0000
  C   C505      1.0  0.14567  0.95904  0.40296  1.0000
  C   C506      1.0  0.11774  0.96165  0.39966  1.0000
  C   C507      1.0  0.09920  0.95439  0.41563  1.0000
  H   H850      1.0  0.14375  0.93542  0.45454  1.0000
  H   H851      1.0  0.17660  0.94801  0.42600  1.0000
  H   H852      1.0  0.11047  0.96875  0.38405  1.0000
  H   H853      1.0  0.07763  0.95594  0.41233  1.0000
  C   C508      1.0  0.04413  0.79320  0.30735  1.0000
  Fe  Fe83      1.0  0.15556  0.98603  0.35934  1.0000
  H   H854      1.0  0.18310  0.94091  0.33965  1.0000
  N   N37       1.0  0.50862  0.75937  0.18176  1.0000
  C   C509      1.0  0.14467  0.83189  0.40140  1.0000
  C   C510      1.0  0.13694  0.83608  0.42584  1.0000
  C   C511      1.0  0.13737  0.84981  0.43097  1.0000
  C   C512      1.0  0.14592  0.85948  0.41174  1.0000
  C   C513      1.0  0.15353  0.85533  0.38721  1.0000
  C   C514      1.0  0.15280  0.84161  0.38200  1.0000
  H   H855      1.0  0.13076  0.82864  0.44102  1.0000
  H   H856      1.0  0.04719  0.86875  0.45492  1.0000
  Fe  Fe84      1.0  0.10342  0.91338  0.46726  1.0000
  H   H857      1.0  0.15885  0.83852  0.36312  1.0000
  H   H858      1.0  0.03109  0.87380  0.42538  1.0000
  H   H859      1.0  0.42512  0.98481  0.10096  1.0000
  C   C515      1.0  0.02048  0.79753  0.29398  1.0000
  H   H860      1.0  0.48101  0.78583  0.24821  1.0000
  C   C516      1.0  0.41443  0.83238  0.31541  1.0000
  C   C517      1.0  0.38357  0.83285  0.13039  1.0000
  C   C518      1.0  0.40837  0.83549  0.14014  1.0000
  C   C519      1.0  0.42285  0.84636  0.12880  1.0000
  C   C520      1.0  0.41261  0.85475  0.10777  1.0000
  C   C521      1.0  0.38791  0.85208  0.09786  1.0000
  C   C522      1.0  0.37343  0.84117  0.10918  1.0000
  H   H861      1.0  0.41638  0.82915  0.15643  1.0000
  H   H862      1.0  0.44190  0.84835  0.13663  1.0000
  H   H863      1.0  0.38000  0.85837  0.08147  1.0000
  H   H864      1.0  0.35434  0.83913  0.10145  1.0000
  C   C523      1.0  0.30357  0.80047  0.27120  1.0000
  C   C524      1.0  0.28928  0.79932  0.24913  1.0000
  C   C525      1.0  0.26060  0.79974  0.25045  1.0000
  C   C526      1.0  0.24580  0.80110  0.27385  1.0000
  C   C527      1.0  0.26004  0.80244  0.29592  1.0000
  C   C528      1.0  0.28878  0.80218  0.29454  1.0000
  H   H865      1.0  0.30032  0.79808  0.23102  1.0000
  H   H866      1.0  0.24980  0.79883  0.23321  1.0000
  H   H867      1.0  0.24895  0.80361  0.31402  1.0000
  H   H868      1.0  0.29961  0.80313  0.31172  1.0000
  H   H869      1.0  0.16116  0.75266  0.30339  1.0000
  H   H870      1.0  0.36336  0.75437  0.18296  1.0000
  C   C529      1.0  0.04223  0.78386  0.32900  1.0000
  S   S169      1.0  0.39858  0.99068  0.20803  1.0000
  C   C530      1.0  0.33837  0.99080  0.07064  1.0000
  H   H871      1.0  0.35829  0.96428  0.08836  1.0000
  H   H872      1.0  0.13575  0.97694  0.45493  1.0000
  C   C531      1.0  0.41823  0.82964  0.34458  1.0000
  H   H873      1.0  0.07746  0.76637  0.29092  1.0000
  C   C532      1.0  0.16190  0.99163  0.43348  1.0000
  H   H874      1.0  0.37424  0.82067  0.29421  1.0000
  H   H875      1.0  0.20357  0.75158  0.27306  1.0000
  C   C533      1.0  0.50014  0.91727  0.03212  1.0000
  C   C534      1.0  0.38407  0.98684  0.08730  1.0000
  N   N38       1.0  0.34735  0.88195  0.14255  1.0000
  C   C535      1.0  0.36081  0.86929  0.15649  1.0000
  C   C536      1.0  0.36984  0.89017  0.13034  1.0000
  C   C537      1.0  0.33082  0.87748  0.12168  1.0000
  C   C538      1.0  0.32943  0.88951  0.16162  1.0000
  C   C539      1.0  0.34185  0.85827  0.16743  1.0000
  C   C540      1.0  0.39063  0.89416  0.14896  1.0000
  C   C541      1.0  0.31530  0.88879  0.10477  1.0000
  C   C542      1.0  0.32324  0.90502  0.15503  1.0000
  H   H876      1.0  0.37635  0.86426  0.14374  1.0000
  H   H877      1.0  0.37218  0.87191  0.17303  1.0000
  H   H878      1.0  0.36194  0.89970  0.11962  1.0000
  H   H879      1.0  0.38154  0.88445  0.11548  1.0000
  H   H880      1.0  0.34408  0.87127  0.10863  1.0000
  H   H881      1.0  0.31490  0.87080  0.12988  1.0000
  H   H882      1.0  0.30962  0.88482  0.16501  1.0000
  H   H883      1.0  0.33909  0.88854  0.18061  1.0000
  H   H884      1.0  0.32426  0.86252  0.17889  1.0000
  H   H885      1.0  0.33467  0.85259  0.15197  1.0000
  H   H886      1.0  0.35356  0.85057  0.18024  1.0000
  H   H887      1.0  0.40536  0.88539  0.15432  1.0000
  H   H888      1.0  0.40259  0.90234  0.13921  1.0000
  H   H889      1.0  0.38076  0.89809  0.16653  1.0000
  H   H890      1.0  0.32863  0.89642  0.09532  1.0000
  H   H891      1.0  0.29827  0.89386  0.11579  1.0000
  H   H892      1.0  0.30600  0.88411  0.08907  1.0000
  H   H893      1.0  0.30262  0.90806  0.16304  1.0000
  H   H894      1.0  0.32321  0.90845  0.13436  1.0000
  H   H895      1.0  0.33738  0.91095  0.16468  1.0000
  H   H896      1.0  0.28969  0.76143  0.31388  1.0000
  H   H897      1.0  0.06916  0.75272  0.35324  1.0000
  H   H898      1.0  0.35767  0.96004  0.03185  1.0000
  H   H899      1.0  0.01910  0.83023  0.32702  1.0000
  H   H900      1.0  0.48071  0.98566  0.10208  1.0000
  C   C543      1.0  0.04102  0.83090  0.32166  1.0000
  H   H901      1.0  0.46114  0.96798  0.12281  1.0000
  H   H902      1.0  0.17384  0.97514  0.47666  1.0000
  C   C544      1.0  0.19145  0.97850  0.46429  1.0000
  H   H903      1.0  0.50135  0.85772  0.04598  1.0000
  H   H904      1.0  0.36883  0.81268  0.33701  1.0000
  C   C545      1.0  0.38212  0.80575  0.32543  1.0000
  H   H905      1.0  0.47006  0.77116  0.17657  1.0000
  C   C546      1.0  0.50108  0.78545  0.16979  1.0000
  H   H906      1.0  0.11295  0.76037  0.28995  1.0000
  C   C547      1.0  0.02453  0.74988  0.28755  1.0000
  H   H907      1.0  0.19831  0.92446  0.34695  1.0000
  H   H908      1.0  0.03443  0.75515  0.27039  1.0000
  H   H909      1.0  0.48440  0.90552  0.00416  1.0000
  H   H910      1.0  0.05084  0.81206  0.34327  1.0000
  H   H911      1.0  0.04546  0.84172  0.31889  1.0000
  H   H912      1.0  0.06707  0.85529  0.34654  1.0000
  C   C548      1.0  0.48732  0.74991  0.22551  1.0000
  H   H913      1.0  0.21280  0.76099  0.31424  1.0000
  H   H914      1.0  0.07628  0.74342  0.26358  1.0000
  N   N39       1.0  0.49946  0.97661  0.15412  1.0000
  H   H915      1.0  0.46435  0.79148  0.30205  1.0000
  N   N40       1.0  0.15444  0.91398  0.37598  1.0000
  C   C549      1.0  0.13229  0.91481  0.39682  1.0000
  C   C550      1.0  0.18073  0.90937  0.38898  1.0000
  C   C551      1.0  0.14714  0.90354  0.35850  1.0000
  C   C552      1.0  0.15531  0.92787  0.36159  1.0000
  C   C553      1.0  0.10311  0.91872  0.38780  1.0000
  C   C554      1.0  0.19144  0.91945  0.40626  1.0000
  C   C555      1.0  0.17060  0.89651  0.34287  1.0000
  C   C556      1.0  0.17880  0.92997  0.34149  1.0000
  H   H916      1.0  0.13175  0.90495  0.40887  1.0000
  H   H917      1.0  0.13628  0.92239  0.41018  1.0000
  H   H918      1.0  0.19766  0.90708  0.37501  1.0000
  H   H919      1.0  0.17857  0.89956  0.40093  1.0000
  H   H920      1.0  0.13710  0.89504  0.36975  1.0000
  H   H921      1.0  0.13195  0.90813  0.34450  1.0000
  H   H922      1.0  0.13635  0.93057  0.35096  1.0000
  H   H923      1.0  0.15510  0.93602  0.37496  1.0000
  H   H924      1.0  0.10081  0.92941  0.37921  1.0000
  H   H925      1.0  0.09651  0.91170  0.37437  1.0000
  H   H926      1.0  0.08877  0.91810  0.40482  1.0000
  S   S170      1.0  0.41941  0.75604  0.19816  1.0000
  H   H927      1.0  0.42432  0.98786  0.06694  1.0000
  H   H928      1.0  0.01607  0.77079  0.35248  1.0000
  H   H929      1.0  0.33689  0.95341  0.05873  1.0000
  C   C557      1.0  0.44630  0.79762  0.29418  1.0000
  C   C558      1.0  0.50008  0.87722  0.06419  1.0000
  H   H930      1.0  0.30253  0.99223  0.09633  1.0000
  H   H931      1.0  0.48722  0.77466  0.20397  1.0000
  C   C559      1.0  0.08621  0.74466  0.28184  1.0000
  H   H932      1.0  0.22560  0.76507  0.35575  1.0000
  C   C560      1.0  0.37346  0.74422  0.18450  1.0000
  H   H933      1.0  0.27613  0.77593  0.29510  1.0000
  C   C561      1.0  0.39155  0.81326  0.29984  1.0000
  H   H934      1.0  0.03505  0.85594  0.43739  1.0000
  H   H935      1.0  0.05186  0.80787  0.38597  1.0000
  H   H936      1.0  0.48531  0.85628  0.09005  1.0000
  H   H937      1.0  0.41175  0.83987  0.24008  1.0000
  Fe  Fe85      1.0  0.38737  0.98261  0.17135  1.0000
  C   C562      1.0  0.42419  0.82550  0.27202  1.0000
  S   S171      1.0  0.16373  0.75296  0.35867  1.0000
  C   C563      1.0  0.49949  0.79033  0.24113  1.0000
  H   H938      1.0  0.49828  0.90231  0.12039  1.0000
  H   H939      1.0  0.44530  0.82888  0.26980  1.0000
  C   C564      1.0  0.41461  0.98233  0.08390  1.0000
  N   N41       1.0  0.06137  0.82766  0.36727  1.0000
  C   C565      1.0  0.27955  0.76470  0.29554  1.0000
  H   H940      1.0  0.37013  0.79719  0.32121  1.0000
  H   H941      1.0  0.49496  0.87270  0.02494  1.0000
  H   H942      1.0  0.31505  0.97504  0.09247  1.0000
  H   H943      1.0  0.24581  0.77287  0.26149  1.0000
  H   H944      1.0  0.44740  0.96687  0.19837  1.0000
  S   S172      1.0  0.14777  0.87677  0.41757  1.0000
  H   H945      1.0  0.08963  0.84472  0.32644  1.0000
  H   H946      1.0  0.40614  0.84683  0.27026  1.0000
  H   H947      1.0  0.04439  0.82669  0.30267  1.0000
  H   H948      1.0  0.33234  0.98548  0.11242  1.0000
  H   H949      1.0  0.03051  0.84457  0.36201  1.0000
  C   C566      1.0  0.05916  0.82227  0.34132  1.0000
  H   H950      1.0  0.19931  0.76986  0.27419  1.0000
  N   N42       1.0  0.41765  0.82028  0.29952  1.0000
  H   H951      1.0  0.43991  0.82682  0.34881  1.0000
  H   H952      1.0  0.08667  0.82474  0.41704  1.0000
  C   C567      1.0  0.06750  0.81540  0.38612  1.0000
  H   H953      1.0  0.09426  0.76419  0.26120  1.0000
  H   H954      1.0  0.10312  0.85444  0.34915  1.0000
  C   C568      1.0  0.44140  0.81068  0.30828  1.0000
  H   H955      1.0  0.16029  0.86273  0.37224  1.0000
  N   N43       1.0  0.25275  0.75835  0.29457  1.0000
  C   C569      1.0  0.24184  0.76215  0.26814  1.0000
  H   H956      1.0  0.23088  0.77568  0.31057  1.0000
  C   C570      1.0  0.50600  0.85785  0.09647  1.0000
  C   C571      1.0  0.30086  0.76177  0.27375  1.0000
  H   H957      1.0  0.07976  0.82038  0.33203  1.0000
  H   H958      1.0  0.42363  0.81726  0.25901  1.0000
  C   C572      1.0  0.23367  0.76439  0.31466  1.0000
  H   H959      1.0  0.47750  0.87816  0.06684  1.0000
  C   C573      1.0  0.08889  0.74965  0.34353  1.0000
  H   H960      1.0  0.29399  0.76625  0.25470  1.0000
  H   H961      1.0  0.39702  0.98209  0.03591  1.0000
  H   H962      1.0  0.07510  0.80839  0.42586  1.0000
  H   H963      1.0  0.04766  0.75729  0.31588  1.0000
  C   C574      1.0  0.08578  0.84835  0.34584  1.0000
  Fe  Fe86      1.0  0.13110  0.88592  0.45424  1.0000
  H   H964      1.0  0.48168  0.96718  0.20752  1.0000
  C   C575      1.0  0.09299  0.75967  0.28141  1.0000
  H   H965      1.0  0.38476  0.96296  0.06527  1.0000
  C   C576      1.0  0.46892  0.96615  0.19097  1.0000
  H   H966      1.0  0.05065  0.82266  0.42292  1.0000
  H   H967      1.0  0.32829  0.96985  0.04385  1.0000
  C   C577      1.0  0.47283  0.97769  0.16954  1.0000
  C   C578      1.0  0.50186  0.90715  0.01493  1.0000
  H   H968      1.0  0.41835  0.97119  0.08294  1.0000
  H   H969      1.0  0.19497  0.97081  0.44993  1.0000
  H   H970      1.0  0.41241  0.83919  0.35386  1.0000
  H   H971      1.0  0.45090  0.79990  0.27343  1.0000
  C   C579      1.0  0.40509  0.83741  0.26046  1.0000
  H   H972      1.0  0.02173  0.80478  0.27726  1.0000
  C   C580      1.0  0.50285  0.96412  0.13929  1.0000
  H   H973      1.0  0.39400  0.83790  0.31288  1.0000
  H   H974      1.0  0.50589  0.88756  0.05735  1.0000
  C   C581      1.0  0.37733  0.98790  0.04019  1.0000
  H   H975      1.0  0.11887  0.98850  0.43187  1.0000
  S   S173      1.0  0.34434  0.99193  0.17252  1.0000
  C   C582      1.0  0.01047  0.82734  0.38054  1.0000
  H   H976      1.0  0.42881  0.79115  0.29701  1.0000
  H   H977      1.0  0.39224  0.80596  0.28476  1.0000
  C   C583      1.0  0.03583  0.83564  0.37576  1.0000
  H   H978      1.0  0.25262  0.75580  0.25374  1.0000
  H   H979      1.0  0.43945  0.80720  0.32896  1.0000
  H   H980      1.0  0.42957  0.83988  0.30867  1.0000
  C   C584      1.0  0.21107  0.76138  0.26516  1.0000
  H   H981      1.0  0.50507  0.75242  0.23595  1.0000
  H   H982      1.0  0.09656  0.75844  0.33159  1.0000
  H   H983      1.0  0.47321  0.95593  0.18395  1.0000
  H   H984      1.0  0.03909  0.84046  0.39368  1.0000
  C   C585      1.0  0.47710  0.95976  0.12730  1.0000
  C   C586      1.0  0.36433  0.96825  0.06856  1.0000
  H   H985      1.0  0.30663  0.75074  0.27313  1.0000
  H   H986      1.0  0.37728  0.98206  0.10639  1.0000
  H   H987      1.0  0.10359  0.74700  0.35901  1.0000
  H   H988      1.0  0.20662  0.98557  0.40061  1.0000
  H   H989      1.0  0.08671  0.84080  0.38530  1.0000
  C   C587      1.0  0.01716  0.77839  0.33632  1.0000
  H   H990      1.0  0.45496  0.97819  0.15740  1.0000
  H   H991      1.0  0.10466  0.83000  0.36373  1.0000
  H   H992      1.0  0.49001  0.75537  0.14683  1.0000
  C   C588      1.0  0.34580  0.96273  0.04950  1.0000
  H   H993      1.0  0.48804  0.85791  0.13579  1.0000
  C   C589      1.0  0.03048  0.86650  0.44273  1.0000
  H   H994      1.0  0.23507  0.97966  0.47117  1.0000
  H   H995      1.0  0.24654  0.75038  0.34809  1.0000
  H   H996      1.0  0.05005  0.98801  0.34622  1.0000
  H   H997      1.0  0.47046  0.98744  0.17877  1.0000
  H   H998      1.0  0.50230  0.84174  0.12735  1.0000
  H   H999      1.0  0.47016  0.75773  0.22785  1.0000
  H   H1000     1.0  0.48311  0.95529  0.10894  1.0000
  N   N44       1.0  0.36602  0.98346  0.06660  1.0000
  C   C590      1.0  0.49066  0.77234  0.18370  1.0000
  H   H1001     1.0  0.26037  0.76700  0.34630  1.0000
  C   C591      1.0  0.06995  0.81822  0.41445  1.0000
  C   C592      1.0  0.50121  0.88160  0.10904  1.0000
  C   C593      1.0  0.49809  0.80311  0.22716  1.0000
  H   H1002     1.0  0.47506  0.74627  0.18788  1.0000
  C   C594      1.0  0.49440  0.74802  0.19690  1.0000
  H   H1003     1.0  0.23035  0.97801  0.42408  1.0000
  C   C595      1.0  0.32139  0.98542  0.09440  1.0000
  H   H1004     1.0  0.49385  0.90165  0.08707  1.0000
  C   C596      1.0  0.50697  0.86834  0.04159  1.0000
  N   N45       1.0  0.18502  0.99249  0.45104  1.0000
  H   H1005     1.0  0.46804  0.95146  0.13981  1.0000
  C   C597      1.0  0.21593  0.97702  0.48176  1.0000
  C   C598      1.0  0.50546  0.85280  0.12528  1.0000
  H   H1006     1.0  0.48544  0.79399  0.17237  1.0000
  H   H1007     1.0  0.36359  0.98548  0.02520  1.0000
  H   H1008     1.0  0.16710  0.98398  0.41950  1.0000
  H   H1009     1.0  0.32578  0.99092  0.05352  1.0000
  C   C599      1.0  0.50577  0.89688  0.10345  1.0000
  H   H1010     1.0  0.01143  0.81840  0.36906  1.0000
  H   H1011     1.0  0.50434  0.78489  0.14883  1.0000
  C   C600      1.0  0.22132  0.98773  0.41475  1.0000
  H   H1012     1.0  0.50904  0.87851  0.12836  1.0000
  C   C601      1.0  0.47978  0.99307  0.11682  1.0000
  H   H1013     1.0  0.23807  0.99272  0.40353  1.0000
  Fe  Fe87      1.0  0.15095  0.95037  0.64563  1.0000
  S   S174      1.0  0.14953  0.93356  0.67780  1.0000
  S   S175      1.0  0.15880  0.95032  0.60256  1.0000
  Fe  Fe88      1.0  0.12727  0.97178  0.68021  1.0000
  S   S176      1.0  0.12329  0.95661  0.71416  1.0000
  Fe  Fe89      1.0  0.16600  0.94868  0.70249  1.0000
  S   S177      1.0  0.19381  0.94731  0.73720  1.0000
  Fe  Fe90      1.0  0.10738  0.94328  0.68660  1.0000
  S   S178      1.0  0.06880  0.93172  0.69214  1.0000
  S   S179      1.0  0.17016  0.96476  0.66935  1.0000
  S   S180      1.0  0.10847  0.95914  0.65361  1.0000
  C   C602      1.0  0.28403  0.98736  0.85952  1.0000
  H   H1014     1.0  0.44949  0.98355  0.90812  1.0000
  S   S181      1.0  0.16395  0.89737  0.54158  1.0000
  H   H1015     1.0  0.18022  0.97720  0.71961  1.0000
  H   H1016     1.0  0.48458  0.94768  0.91667  1.0000
  H   H1017     1.0  0.48718  0.92399  0.89911  1.0000
  H   H1018     1.0  0.28667  0.96104  0.87808  1.0000
  C   C603      1.0  0.42059  0.93522  0.91410  1.0000
  H   H1019     1.0  0.29161  0.97176  0.95674  1.0000
  Fe  Fe91      1.0  0.35040  0.94627  0.85953  1.0000
  S   S182      1.0  0.36638  0.93264  0.82921  1.0000
  S   S183      1.0  0.33223  0.94255  0.89978  1.0000
  Fe  Fe92      1.0  0.36313  0.97183  0.82690  1.0000
  S   S184      1.0  0.38073  0.96052  0.79384  1.0000
  Fe  Fe93      1.0  0.34399  0.94799  0.80106  1.0000
  S   S185      1.0  0.31993  0.94330  0.76636  1.0000
  Fe  Fe94      1.0  0.40166  0.94623  0.82428  1.0000
  S   S186      1.0  0.44571  0.93691  0.82680  1.0000
  S   S187      1.0  0.32559  0.96044  0.83209  1.0000
  S   S188      1.0  0.38672  0.95864  0.85641  1.0000
  C   C604      1.0  0.47650  0.94533  0.82638  1.0000
  H   H1020     1.0  0.06922  0.97628  0.71638  1.0000
  C   C605      1.0  0.50138  0.93753  0.83030  1.0000
  H   H1021     1.0  0.22761  0.96801  0.70221  1.0000
  H   H1022     1.0  0.45792  0.96557  0.81897  1.0000
  C   C606      1.0  0.34686  0.92931  0.92071  1.0000
  C   C607      1.0  0.35807  0.91712  0.91167  1.0000
  H   H1023     1.0  0.43663  0.95318  0.93069  1.0000
  H   H1024     1.0  0.46141  0.93054  0.87785  1.0000
  H   H1025     1.0  0.36036  0.98004  0.87810  1.0000
  C   C608      1.0  0.34681  0.93097  0.94706  1.0000
  H   H1026     1.0  0.35790  0.91569  0.89141  1.0000
  Fe  Fe95      1.0  0.08480  0.88718  0.49470  1.0000
  H   H1027     1.0  0.33803  0.94032  0.95421  1.0000
  H   H1028     1.0  0.03222  0.92247  0.60962  1.0000
  N   N46       1.0  0.44693  0.92648  0.91732  1.0000
  C   C609      1.0  0.45788  0.92628  0.94383  1.0000
  H   H1029     1.0  0.41669  0.93775  0.89334  1.0000
  C   C610      1.0  0.29812  0.97611  0.91488  1.0000
  C   C611      1.0  0.03560  0.93973  0.68704  1.0000
  C   C612      1.0  0.21385  0.98511  0.73869  1.0000
  C   C613      1.0  0.15375  0.97590  0.54212  1.0000
  H   H1030     1.0  0.12704  0.91857  0.63684  1.0000
  H   H1031     1.0  0.04868  0.95989  0.67732  1.0000
  C   C614      1.0  0.28465  0.94395  0.75907  1.0000
  C   C615      1.0  0.26366  0.94754  0.77672  1.0000
  C   C616      1.0  0.23613  0.94820  0.76979  1.0000
  C   C617      1.0  0.22904  0.94552  0.74501  1.0000
  C   C618      1.0  0.25001  0.94190  0.72736  1.0000
  C   C619      1.0  0.27753  0.94104  0.73443  1.0000
  H   H1032     1.0  0.26865  0.94973  0.79576  1.0000
  H   H1033     1.0  0.22019  0.95091  0.78372  1.0000
  H   H1034     1.0  0.24508  0.93968  0.70832  1.0000
  H   H1035     1.0  0.29350  0.93819  0.72061  1.0000
  C   C620      1.0  0.16105  0.91202  0.55880  1.0000
  C   C621      1.0  0.17047  0.91115  0.58387  1.0000
  C   C622      1.0  0.16895  0.92271  0.59787  1.0000
  C   C623      1.0  0.15856  0.93531  0.58664  1.0000
  C   C624      1.0  0.14903  0.93618  0.56160  1.0000
  C   C625      1.0  0.14992  0.92454  0.54784  1.0000
  H   H1036     1.0  0.17927  0.90150  0.59238  1.0000
  H   H1037     1.0  0.17674  0.92196  0.61698  1.0000
  H   H1038     1.0  0.14096  0.94587  0.55275  1.0000
  H   H1039     1.0  0.14265  0.92532  0.52852  1.0000
  C   C626      1.0  0.08493  0.93334  0.61232  1.0000
  H   H1040     1.0  0.02191  0.90524  0.61519  1.0000
  H   H1041     1.0  0.10542  0.91065  0.66226  1.0000
  H   H1042     1.0  0.27213  0.95378  0.90696  1.0000
  C   C627      1.0  0.03057  0.96583  0.78334  1.0000
  H   H1043     1.0  0.05569  0.90134  0.58464  1.0000
  C   C628      1.0  0.09537  0.89264  0.57485  1.0000
  N   N47       1.0  0.08229  0.90700  0.61332  1.0000
  C   C629      1.0  0.05983  0.90844  0.63372  1.0000
  H   H1044     1.0  0.06498  0.93913  0.60917  1.0000
  C   C630      1.0  0.36933  0.90836  0.95536  1.0000
  H   H1045     1.0  0.05764  0.89851  0.64527  1.0000
  H   H1046     1.0  0.06746  0.88753  0.60649  1.0000
  C   C631      1.0  0.26935  0.96255  0.89220  1.0000
  H   H1047     1.0  0.21153  0.98280  0.68688  1.0000
  H   H1048     1.0  0.08825  0.97890  0.59748  1.0000
  H   H1049     1.0  0.41430  0.91656  0.88047  1.0000
  C   C632      1.0  0.46839  0.93102  0.89757  1.0000
  H   H1050     1.0  0.12476  0.89938  0.61100  1.0000
  C   C633      1.0  0.08733  0.92028  0.59779  1.0000
  C   C634      1.0  0.41747  0.94865  0.92740  1.0000
  H   H1051     1.0  0.01175  0.97235  0.78746  1.0000
  C   C635      1.0  0.43205  0.90957  0.88632  1.0000
  H   H1052     1.0  0.41932  0.98021  0.89171  1.0000
  H   H1053     1.0  0.01541  0.98351  0.74625  1.0000
  C   C636      1.0  0.11976  0.90886  0.64576  1.0000
  H   H1054     1.0  0.37731  0.89712  0.92204  1.0000
  C   C637      1.0  0.36899  0.90661  0.92904  1.0000
  H   H1055     1.0  0.47587  0.98580  0.87089  1.0000
  H   H1056     1.0  0.06447  0.91542  0.64803  1.0000
  H   H1057     1.0  0.43977  0.90933  0.96733  1.0000
  H   H1058     1.0  0.08838  0.93181  0.63311  1.0000
  C   C638      1.0  0.26977  0.98393  0.75616  1.0000
  H   H1059     1.0  0.10465  0.89042  0.63505  1.0000
  H   H1060     1.0  0.21606  0.97496  0.74988  1.0000
  H   H1061     1.0  0.25445  0.98110  0.77152  1.0000
  C   C639      1.0  0.05640  0.98244  0.72975  1.0000
  H   H1062     1.0  0.14465  0.97887  0.60482  1.0000
  H   H1063     1.0  0.10040  0.94025  0.60396  1.0000
  C   C640      1.0  0.24301  0.96061  0.87859  1.0000
  H   H1064     1.0  0.13795  0.90288  0.65375  1.0000
  H   H1065     1.0  0.27754  0.97978  0.84712  1.0000
  H   H1066     1.0  0.16735  0.98370  0.53409  1.0000
  H   H1067     1.0  0.50146  0.92656  0.83340  1.0000
  H   H1068     1.0  0.21483  0.99277  0.75291  1.0000
  H   H1069     1.0  0.26146  0.96843  0.73218  1.0000
  H   H1070     1.0  0.43749  0.98239  0.85057  1.0000
  H   H1071     1.0  0.22550  0.95938  0.89247  1.0000
  H   H1072     1.0  0.30580  0.98506  0.86351  1.0000
  H   H1073     1.0  0.24898  0.96771  0.93876  1.0000
  C   C641      1.0  0.47680  0.95949  0.82226  1.0000
  H   H1074     1.0  0.01572  0.92113  0.69618  1.0000
  H   H1075     1.0  0.18838  0.98234  0.57550  1.0000
  C   C642      1.0  0.35824  0.92059  0.96431  1.0000
  H   H1076     1.0  0.24532  0.97379  0.65775  1.0000
  H   H1077     1.0  0.49381  0.94722  0.88343  1.0000
  H   H1078     1.0  0.05815  0.95241  0.72815  1.0000
  H   H1079     1.0  0.40514  0.95638  0.91520  1.0000
  H   H1080     1.0  0.10193  0.98782  0.62224  1.0000
  C   C643      1.0  0.12874  0.98153  0.55779  1.0000
  H   H1081     1.0  0.47769  0.92003  0.94499  1.0000
  C   C644      1.0  0.26248  0.97963  0.72980  1.0000
  H   H1082     1.0  0.29776  0.95666  0.93949  1.0000
  H   H1083     1.0  0.46058  0.90506  0.91656  1.0000
  H   H1084     1.0  0.42607  0.90801  0.92708  1.0000
  H   H1085     1.0  0.10482  0.90145  0.56444  1.0000
  H   H1086     1.0  0.46265  0.93651  0.94841  1.0000
  H   H1087     1.0  0.11153  0.88535  0.58323  1.0000
  H   H1088     1.0  0.46007  0.95322  0.89193  1.0000
  H   H1089     1.0  0.31436  0.97264  0.90092  1.0000
  H   H1090     1.0  0.44862  0.91032  0.87127  1.0000
  C   C645      1.0  0.44188  0.91196  0.91309  1.0000
  H   H1091     1.0  0.16999  0.98652  0.74630  1.0000
  H   H1092     1.0  0.40339  0.92935  0.92209  1.0000
  C   C646      1.0  0.43920  0.92063  0.96615  1.0000
  H   H1093     1.0  0.07264  0.92225  0.58207  1.0000
  C   C647      1.0  0.07379  0.89703  0.59543  1.0000
  C   C648      1.0  0.03139  0.95377  0.68060  1.0000
  C   C649      1.0  0.05393  0.97343  0.79255  1.0000
  H   H1094     1.0  0.08551  0.88727  0.56041  1.0000
  S   S189      1.0  0.09626  0.90655  0.50878  1.0000
  H   H1095     1.0  0.10782  0.91961  0.58797  1.0000
  H   H1096     1.0  0.12225  0.97269  0.57073  1.0000
  C   C650      1.0  0.03149  0.91346  0.62378  1.0000
  C   C651      1.0  0.10794  0.90078  0.62567  1.0000
  H   H1097     1.0  0.28931  0.97830  0.76185  1.0000
  S   S190      1.0  0.04826  0.87755  0.51322  1.0000
  C   C652      1.0  0.06151  0.94002  0.76397  1.0000
  Fe  Fe96      1.0  0.13872  0.89689  0.50662  1.0000
  C   C653      1.0  0.23082  0.97886  0.69577  1.0000
  H   H1098     1.0  0.42544  0.89905  0.88693  1.0000
  H   H1099     1.0  0.28052  0.98143  0.71668  1.0000
  C   C654      1.0  0.01981  0.88887  0.50705  1.0000
  H   H1100     1.0  0.16574  0.96782  0.55384  1.0000
  N   N48       1.0  0.27034  0.97586  0.90403  1.0000
  C   C655      1.0  0.02977  0.97567  0.73786  1.0000
  S   S191      1.0  0.12681  0.87676  0.49514  1.0000
  H   H1101     1.0  0.05516  0.97130  0.81371  1.0000
  H   H1102     1.0  0.23794  0.96893  0.86357  1.0000
  C   C656      1.0  0.18096  0.98849  0.59133  1.0000
  H   H1103     1.0  0.43160  0.98791  0.80549  1.0000
  S   S192      1.0  0.38405  0.89519  0.97649  1.0000
  H   H1104     1.0  0.30269  0.98665  0.91805  1.0000
  H   H1105     1.0  0.04635  0.93305  0.75900  1.0000
  H   H1106     1.0  0.40537  0.94728  0.94579  1.0000
  H   H1107     1.0  0.05139  0.99246  0.71895  1.0000
  C   C657      1.0  0.09081  0.98904  0.60410  1.0000
  H   H1108     1.0  0.14670  0.97134  0.52519  1.0000
  C   C658      1.0  0.42878  0.98759  0.90262  1.0000
  C   C659      1.0  0.24675  0.98985  0.93931  1.0000
  H   H1109     1.0  0.41781  0.92486  0.96474  1.0000
  C   C660      1.0  0.30302  0.96729  0.94036  1.0000
  C   C661      1.0  0.50169  0.96572  0.82142  1.0000
  H   H1110     1.0  0.32500  0.96690  0.94443  1.0000
  C   C662      1.0  0.47689  0.94565  0.89795  1.0000
  C   C663      1.0  0.18442  0.98629  0.72936  1.0000
  H   H1111     1.0  0.06117  0.94072  0.78500  1.0000
  C   C664      1.0  0.24814  0.97688  0.92467  1.0000
  H   H1112     1.0  0.06852  0.98432  0.74611  1.0000
  H   H1113     1.0  0.22781  0.97685  0.91632  1.0000
  H   H1114     1.0  0.19059  0.98367  0.60903  1.0000
  H   H1115     1.0  0.05032  0.98460  0.78796  1.0000
  H   H1116     1.0  0.07614  0.95937  0.75126  1.0000
  H   H1117     1.0  0.08180  0.93522  0.75834  1.0000
  H   H1118     1.0  0.24600  0.95104  0.86882  1.0000
  N   N49       1.0  0.03197  0.96270  0.75562  1.0000
  N   N50       1.0  0.23666  0.98642  0.71847  1.0000
  H   H1119     1.0  0.27188  0.97298  0.67984  1.0000
  H   H1120     1.0  0.01040  0.95019  0.73267  1.0000
  C   C665      1.0  0.25282  0.97889  0.67385  1.0000
  C   C666      1.0  0.05753  0.95412  0.74889  1.0000
  H   H1121     1.0  0.25712  0.98936  0.66618  1.0000
  C   C667      1.0  0.26603  0.98787  0.88435  1.0000
  H   H1122     1.0  0.07429  0.96993  0.78491  1.0000
  H   H1123     1.0  0.11156  0.98375  0.54458  1.0000
  H   H1124     1.0  0.50175  0.97665  0.81750  1.0000
  H   H1125     1.0  0.02815  0.95652  0.79667  1.0000
  H   H1126     1.0  0.02099  0.97377  0.71941  1.0000
  H   H1127     1.0  0.41625  0.98854  0.92068  1.0000
  C   C668      1.0  0.14978  0.98904  0.59581  1.0000
  H   H1128     1.0  0.04291  0.90410  0.48584  1.0000
  H   H1129     1.0  0.35439  0.98780  0.92165  1.0000
  C   C669      1.0  0.01276  0.93199  0.69116  1.0000
  C   C670      1.0  0.02291  0.90106  0.49184  1.0000
  H   H1130     1.0  0.01791  0.91645  0.64022  1.0000
  C   C671      1.0  0.35606  0.99070  0.88028  1.0000
  H   H1131     1.0  0.21218  0.98319  0.49838  1.0000
  H   H1132     1.0  0.23951  0.98738  0.95950  1.0000
  H   H1133     1.0  0.21908  0.96621  0.48963  1.0000
  H   H1134     1.0  0.24443  0.98932  0.87871  1.0000
  H   H1135     1.0  0.35800  0.92195  0.98457  1.0000
  H   H1136     1.0  0.44659  0.92331  0.98466  1.0000
  H   H1137     1.0  0.70118  0.04278  0.44103  1.0000
  H   H1138     1.0  0.69752  0.00414  0.09116  1.0000
  C   C672      1.0  0.74024  0.00855  0.29559  1.0000
  Fe  Fe97      1.0  0.60197  0.05709  0.01186  1.0000
  S   S193      1.0  0.58728  0.05191  0.05296  1.0000
  H   H1139     1.0  0.68943  0.05935  0.15647  1.0000
  Fe  Fe98      1.0  0.61456  0.00236  0.20910  1.0000
  C   C673      1.0  0.65746  0.99660  0.10252  1.0000
  H   H1140     1.0  0.80732  0.04600  0.37607  1.0000
  Fe  Fe99      1.0  0.67356  0.00443  0.22732  1.0000
  S   S194      1.0  0.69101  0.00355  0.18713  1.0000
  S   S195      1.0  0.69787  0.00633  0.26349  1.0000
  Fe  Fe100     1.0  0.65535  0.01772  0.17459  1.0000
  S   S196      1.0  0.66678  0.03417  0.14394  1.0000
  S   S197      1.0  0.63935  0.02006  0.21520  1.0000
  H   H1141     1.0  0.70172  0.07196  0.22595  1.0000
  Fe  Fe101     1.0  0.84797  0.00999  0.32626  1.0000
  S   S198      1.0  0.82966  0.01601  0.36416  1.0000
  S   S199      1.0  0.82374  0.01005  0.28937  1.0000
  Fe  Fe102     1.0  0.90609  0.00332  0.34854  1.0000
  S   S200      1.0  0.89081  0.00869  0.38770  1.0000
  H   H1142     1.0  0.80442  0.06073  0.39461  1.0000
  Fe  Fe103     1.0  0.86785  0.02661  0.36773  1.0000
  S   S201      1.0  0.86757  0.04692  0.38487  1.0000
  S   S202      1.0  0.88508  0.02219  0.32828  1.0000
  H   H1143     1.0  0.78719  0.06923  0.45244  1.0000
  C   C674      1.0  0.85300  0.05990  0.45607  1.0000
  C   C675      1.0  0.85943  0.05947  0.42961  1.0000
  C   C676      1.0  0.86153  0.04703  0.41839  1.0000
  C   C677      1.0  0.85780  0.03498  0.43393  1.0000
  C   C678      1.0  0.85112  0.03544  0.46028  1.0000
  C   C679      1.0  0.68206  0.06345  0.17475  1.0000
  H   H1144     1.0  0.86217  0.06883  0.41770  1.0000
  H   H1145     1.0  0.85931  0.02533  0.42556  1.0000
  H   H1146     1.0  0.71270  0.04857  0.40944  1.0000
  C   C680      1.0  0.73313  0.00698  0.27026  1.0000
  C   C681      1.0  0.78861  0.00871  0.28285  1.0000
  H   H1147     1.0  0.79734  0.00664  0.24257  1.0000
  H   H1148     1.0  0.75310  0.05433  0.21155  1.0000
  H   H1149     1.0  0.90514  0.06526  0.45644  1.0000
  C   C682      1.0  0.64998  0.01207  0.06429  1.0000
  C   C683      1.0  0.64467  0.03885  0.11859  1.0000
  C   C684      1.0  0.65459  0.04581  0.09589  1.0000
  C   C685      1.0  0.63736  0.04964  0.07534  1.0000
  C   C686      1.0  0.60995  0.04684  0.07772  1.0000
  C   C687      1.0  0.60002  0.03999  0.10051  1.0000
  C   C688      1.0  0.61739  0.03585  0.12078  1.0000
  H   H1150     1.0  0.67567  0.04820  0.09415  1.0000
  H   H1151     1.0  0.64512  0.05500  0.05790  1.0000
  H   H1152     1.0  0.57877  0.03791  0.10254  1.0000
  H   H1153     1.0  0.60950  0.03064  0.13831  1.0000
  C   C689      1.0  0.53869  0.00487  0.21170  1.0000
  C   C690      1.0  0.53616  0.01376  0.18940  1.0000
  H   H1154     1.0  0.55422  0.01753  0.17957  1.0000
  H   H1155     1.0  0.80995  0.03133  0.41074  1.0000
  H   H1156     1.0  0.77266  0.01047  0.32145  1.0000
  C   C691      1.0  0.76769  0.00933  0.30189  1.0000
  H   H1157     1.0  0.73504  0.03635  0.23600  1.0000
  C   C692      1.0  0.92745  0.04046  0.46348  1.0000
  C   C693      1.0  0.98250  0.99941  0.34261  1.0000
  C   C694      1.0  0.98603  0.01303  0.33415  1.0000
  H   H1158     1.0  0.84756  0.02611  0.47204  1.0000
  H   H1159     1.0  0.67348  0.04023  0.24727  1.0000
  H   H1160     1.0  0.64970  0.02044  0.07717  1.0000
  H   H1161     1.0  0.92051  0.06611  0.41486  1.0000
  H   H1162     1.0  0.61327  0.02227  0.04607  1.0000
  C   C695      1.0  0.68515  0.05279  0.19811  1.0000
  H   H1163     1.0  0.67451  0.05761  0.21445  1.0000
  N   N51       1.0  0.64062  0.99926  0.07894  1.0000
  H   H1164     1.0  0.85060  0.06957  0.46442  1.0000
  N   N52       1.0  0.71393  0.04745  0.20401  1.0000
  H   H1165     1.0  0.73260  0.07922  0.21737  1.0000
  N   N53       1.0  0.94326  0.05299  0.46125  1.0000
  H   H1166     1.0  0.52832  0.06222  0.04760  1.0000
  H   H1167     1.0  0.63184  0.00986  0.02690  1.0000
  H   H1168     1.0  0.92017  0.08709  0.46794  1.0000
  C   C696      1.0  0.71873  0.04699  0.42975  1.0000
  H   H1169     1.0  0.96952  0.06326  0.43254  1.0000
  N   N54       1.0  0.77081  0.04125  0.42178  1.0000
  C   C697      1.0  0.72447  0.03918  0.18221  1.0000
  H   H1170     1.0  0.73683  0.06404  0.18630  1.0000
  H   H1171     1.0  0.73831  0.02757  0.42359  1.0000
  H   H1172     1.0  0.69227  0.07280  0.17737  1.0000
  C   C698      1.0  0.51017  0.01789  0.17993  1.0000
  H   H1173     1.0  0.70040  0.03548  0.26857  1.0000
  H   H1174     1.0  0.92430  0.04811  0.41048  1.0000
  H   H1175     1.0  0.78151  0.02346  0.40085  1.0000
  H   H1176     1.0  0.78791  0.06108  0.36492  1.0000
  C   C699      1.0  0.93540  0.05728  0.41254  1.0000
  H   H1177     1.0  0.99652  0.03818  0.46076  1.0000
  H   H1178     1.0  0.90991  0.04194  0.45066  1.0000
  C   C700      1.0  0.61115  0.00213  0.08718  1.0000
  C   C701      1.0  0.78442  0.04892  0.44062  1.0000
  H   H1179     1.0  0.67267  0.04420  0.19498  1.0000
  H   H1180     1.0  0.96837  0.02001  0.33044  1.0000
  C   C702      1.0  0.72394  0.06946  0.22446  1.0000
  H   H1181     1.0  0.80702  0.00935  0.43392  1.0000
  C   C703      1.0  0.71417  0.03798  0.22841  1.0000
  H   H1182     1.0  0.75574  0.06194  0.46272  1.0000
  H   H1183     1.0  0.70859  0.02768  0.22444  1.0000
  H   H1184     1.0  0.72532  0.04559  0.16365  1.0000
  H   H1185     1.0  0.66006  0.06651  0.17257  1.0000
  H   H1186     1.0  0.67147  0.01048  0.05708  1.0000
  H   H1187     1.0  0.73164  0.06622  0.24387  1.0000
  H   H1188     1.0  0.94685  0.05943  0.39401  1.0000
  C   C704      1.0  0.78904  0.02864  0.41693  1.0000
  H   H1189     1.0  0.69599  0.05269  0.25543  1.0000
  H   H1190     1.0  0.72436  0.00909  0.31052  1.0000
  C   C705      1.0  0.75314  0.03184  0.18505  1.0000
  H   H1191     1.0  0.71037  0.03122  0.17943  1.0000
  C   C706      1.0  0.74379  0.03669  0.43278  1.0000
  C   C707      1.0  0.73262  0.05867  0.20558  1.0000
  C   C708      1.0  0.93543  0.07923  0.46099  1.0000
  H   H1192     1.0  0.95438  0.08017  0.47104  1.0000
  H   H1193     1.0  0.75464  0.02480  0.20272  1.0000
  H   H1194     1.0  0.75766  0.04323  0.38266  1.0000
  C   C709      1.0  0.69485  0.04207  0.25095  1.0000
  H   H1195     1.0  0.76921  0.03912  0.18437  1.0000
  C   C710      1.0  0.63370  0.01765  0.04055  1.0000
  H   H1196     1.0  0.77305  0.01308  0.44573  1.0000
  H   H1197     1.0  0.75763  0.02552  0.16862  1.0000
  C   C711      1.0  0.79239  0.01772  0.43987  1.0000
  C   C712      1.0  0.76720  0.04939  0.39617  1.0000
  H   H1198     1.0  0.96885  0.04558  0.42993  1.0000
  S   S203      1.0  0.57093  0.99883  0.22402  1.0000
  C   C713      1.0  0.95573  0.05480  0.43440  1.0000
  H   H1199     1.0  0.76201  0.06898  0.42991  1.0000
  S   S204      1.0  0.62839  0.00126  0.16767  1.0000
  H   H1200     1.0  0.75291  0.05852  0.39765  1.0000
  H   H1201     1.0  0.80597  0.05024  0.43466  1.0000
  S   S205      1.0  0.59420  0.07718  0.98870  1.0000
  H   H1202     1.0  0.53510  0.07908  0.03567  1.0000
  H   H1203     1.0  0.74514  0.03339  0.45367  1.0000
  H   H1204     1.0  0.94006  0.03154  0.45672  1.0000
  H   H1205     1.0  0.52071  0.04617  0.01328  1.0000
  H   H1206     1.0  0.65403  0.00528  0.11479  1.0000
  C   C714      1.0  0.52777  0.06943  0.03023  1.0000
  H   H1207     1.0  0.60886  0.01124  0.09838  1.0000
  C   C715      1.0  0.79340  0.05449  0.38254  1.0000
  S   S206      1.0  0.64329  0.05296  0.99313  1.0000
  H   H1208     1.0  0.72172  0.05691  0.43692  1.0000
  H   H1209     1.0  0.64457  0.02601  0.02996  1.0000
  H   H1210     1.0  0.74913  0.00478  0.23184  1.0000
  H   H1211     1.0  0.97515  0.02934  0.48482  1.0000
  C   C716      1.0  0.92413  0.06511  0.46699  1.0000
  C   C717      1.0  0.77113  0.06297  0.44660  1.0000
  C   C718      1.0  0.84859  0.04789  0.47143  1.0000
  H   H1212     1.0  0.59831  0.00463  0.07023  1.0000
  Fe  Fe104     1.0  0.85417  0.99761  0.38125  1.0000
  C   C719      1.0  0.68848  0.99439  0.09742  1.0000
  H   H1213     1.0  0.80102  0.02166  0.45664  1.0000
  H   H1214     1.0  0.93887  0.08180  0.44009  1.0000
  C   C720      1.0  0.75404  0.00624  0.25127  1.0000
  C   C721      1.0  0.78146  0.00722  0.25749  1.0000
  H   H1215     1.0  0.78594  0.04289  0.45958  1.0000
  C   C722      1.0  0.51486  0.00022  0.22435  1.0000
  H   H1216     1.0  0.54264  0.06567  0.01545  1.0000
  C   C723      1.0  0.98551  0.03881  0.47960  1.0000
  H   H1217     1.0  0.97838  0.06051  0.47729  1.0000
  H   H1218     1.0  0.51653  0.99342  0.24170  1.0000
  C   C724      1.0  0.96565  0.05165  0.48021  1.0000
  H   H1219     1.0  0.57637  0.99459  0.10923  1.0000
  C   C725      1.0  0.97851  0.16430  0.72259  1.0000
  C   C726      1.0  0.53062  0.16023  0.79615  1.0000
  Fe  Fe105     1.0  0.62103  0.04236  0.96512  1.0000
  H   H1220     1.0  0.89997  0.04419  0.49686  1.0000
  S   S207      1.0  0.63579  0.02049  0.96044  1.0000
  Fe  Fe106     1.0  0.63328  0.07200  0.96692  1.0000
  S   S208      1.0  0.66104  0.08906  0.95615  1.0000
  S   S209      1.0  0.61479  0.06093  0.93717  1.0000
  Fe  Fe107     1.0  0.90651  0.07311  0.54507  1.0000
  S   S210      1.0  0.86974  0.08211  0.52413  1.0000
  S   S211      1.0  0.94843  0.07550  0.52752  1.0000
  Fe  Fe108     1.0  0.87346  0.05773  0.58663  1.0000
  S   S212      1.0  0.83392  0.06552  0.56931  1.0000
  S   S213      1.0  0.87705  0.04333  0.62249  1.0000
  Fe  Fe109     1.0  0.85482  0.06117  0.53137  1.0000
  Fe  Fe110     1.0  0.85255  0.08580  0.56397  1.0000
  S   S214      1.0  0.82649  0.10518  0.57141  1.0000
  S   S215      1.0  0.89304  0.05194  0.54945  1.0000
  S   S216      1.0  0.89065  0.07827  0.58420  1.0000
  Fe  Fe111     1.0  0.87272  0.18454  0.69690  1.0000
  S   S217      1.0  0.88411  0.16831  0.72841  1.0000
  S   S218      1.0  0.87802  0.20514  0.71117  1.0000
  Fe  Fe112     1.0  0.86006  0.16303  0.66119  1.0000
  S   S219      1.0  0.87077  0.14574  0.69032  1.0000
  S   S220      1.0  0.84328  0.15983  0.62281  1.0000
  Fe  Fe113     1.0  0.84660  0.15863  0.71818  1.0000
  S   S221      1.0  0.81530  0.15002  0.74767  1.0000
  Fe  Fe114     1.0  0.90694  0.15745  0.69721  1.0000
  S   S222      1.0  0.95022  0.14747  0.69533  1.0000
  S   S223      1.0  0.83401  0.17542  0.68860  1.0000
  S   S224      1.0  0.89741  0.17411  0.66617  1.0000
  Fe  Fe115     1.0  0.65358  0.17890  0.84341  1.0000
  S   S225      1.0  0.63594  0.18511  0.80519  1.0000
  S   S226      1.0  0.66800  0.19503  0.86692  1.0000
  Fe  Fe116     1.0  0.64398  0.14874  0.83963  1.0000
  S   S227      1.0  0.62643  0.15347  0.80045  1.0000
  S   S228      1.0  0.64068  0.12628  0.85205  1.0000
  Fe  Fe117     1.0  0.66154  0.16683  0.79239  1.0000
  S   S229      1.0  0.68893  0.17007  0.75622  1.0000
  Fe  Fe118     1.0  0.60300  0.17111  0.81769  1.0000
  S   S230      1.0  0.55802  0.17879  0.82034  1.0000
  S   S231      1.0  0.68037  0.16105  0.83038  1.0000
  S   S232      1.0  0.61936  0.16593  0.85697  1.0000
  C   C727      1.0  0.78021  0.15570  0.74954  1.0000
  C   C728      1.0  0.76912  0.16644  0.73301  1.0000
  C   C729      1.0  0.74112  0.17061  0.73512  1.0000
  C   C730      1.0  0.72399  0.16433  0.75413  1.0000
  C   C731      1.0  0.73512  0.15368  0.77082  1.0000
  C   C732      1.0  0.76301  0.14933  0.76838  1.0000
  H   H1221     1.0  0.78203  0.17150  0.71852  1.0000
  H   H1222     1.0  0.73273  0.17883  0.72206  1.0000
  H   H1223     1.0  0.72217  0.14867  0.78540  1.0000
  H   H1224     1.0  0.77133  0.14102  0.78128  1.0000
  C   C733      1.0  0.83492  0.12005  0.58508  1.0000
  C   C734      1.0  0.85428  0.12007  0.60404  1.0000
  C   C735      1.0  0.85753  0.13217  0.61599  1.0000
  C   C736      1.0  0.84178  0.14427  0.60857  1.0000
  C   C737      1.0  0.82319  0.14417  0.58920  1.0000
  C   C738      1.0  0.81952  0.13217  0.57790  1.0000
  H   H1225     1.0  0.86611  0.11072  0.60995  1.0000
  H   H1226     1.0  0.87205  0.13212  0.63088  1.0000
  H   H1227     1.0  0.81106  0.15341  0.58319  1.0000
  H   H1228     1.0  0.80450  0.13229  0.56342  1.0000
  C   C739      1.0  0.65435  0.09979  0.92779  1.0000
  C   C740      1.0  0.66435  0.11280  0.92438  1.0000
  C   C741      1.0  0.65998  0.12126  0.90149  1.0000
  C   C742      1.0  0.64637  0.11653  0.88157  1.0000
  C   C743      1.0  0.63667  0.10348  0.88494  1.0000
  C   C744      1.0  0.64012  0.09528  0.90807  1.0000
  H   H1229     1.0  0.67544  0.11636  0.93951  1.0000
  H   H1230     1.0  0.66764  0.13128  0.89906  1.0000
  H   H1231     1.0  0.62620  0.09972  0.86961  1.0000
  H   H1232     1.0  0.63219  0.08537  0.91033  1.0000
  H   H1233     1.0  0.56720  0.12738  0.82295  1.0000
  N   N55       1.0  0.96250  0.20332  0.66306  1.0000
  C   C745      1.0  0.86963  0.01704  0.64107  1.0000
  C   C746      1.0  0.86906  0.02650  0.61941  1.0000
  C   C747      1.0  0.86314  0.02229  0.59560  1.0000
  C   C748      1.0  0.85797  0.00865  0.59349  1.0000
  H   H1234     1.0  0.98783  0.18035  0.63476  1.0000
  H   H1235     1.0  0.87401  0.02026  0.65957  1.0000
  H   H1236     1.0  0.86235  0.02954  0.57884  1.0000
  H   H1237     1.0  0.85323  0.00547  0.57506  1.0000
  H   H1238     1.0  0.57117  0.15052  0.87331  1.0000
  C   C749      1.0  0.64559  0.01748  0.88359  1.0000
  C   C750      1.0  0.63976  0.02283  0.90742  1.0000
  C   C751      1.0  0.63977  0.01411  0.93001  1.0000
  C   C752      1.0  0.64451  0.00000  0.92856  1.0000
  C   C753      1.0  0.53207  0.23407  0.85657  1.0000
  H   H1239     1.0  0.64615  0.02427  0.86618  1.0000
  H   H1240     1.0  0.63569  0.03367  0.90836  1.0000
  S   S233      1.0  0.58015  0.04569  0.98500  1.0000
  H   H1241     1.0  0.51423  0.05522  0.98355  1.0000
  C   C754      1.0  0.97975  0.15473  0.70436  1.0000
  C   C755      1.0  0.72779  0.07285  0.94763  1.0000
  C   C756      1.0  0.99933  0.06489  0.53961  1.0000
  H   H1242     1.0  0.54761  0.04698  0.93631  1.0000
  C   C757      1.0  0.52935  0.17001  0.81397  1.0000
  C   C758      1.0  0.94323  0.04058  0.65331  1.0000
  H   H1243     1.0  0.96408  0.18590  0.69146  1.0000
  H   H1244     1.0  0.75004  0.22061  0.84046  1.0000
  C   C759      1.0  0.67654  0.06110  0.88405  1.0000
  H   H1245     1.0  0.54992  0.15730  0.78674  1.0000
  H   H1246     1.0  0.58351  0.22917  0.78791  1.0000
  H   H1247     1.0  0.55297  0.15363  0.91898  1.0000
  H   H1248     1.0  0.66074  0.05369  0.88795  1.0000
  C   C760      1.0  0.97380  0.06981  0.54906  1.0000
  C   C761      1.0  0.96867  0.06994  0.57555  1.0000
  C   C762      1.0  0.95318  0.19605  0.68814  1.0000
  H   H1249     1.0  0.94906  0.07382  0.58292  1.0000
  C   C763      1.0  0.71849  0.01160  0.81945  1.0000
  C   C764      1.0  0.67221  0.22270  0.86788  1.0000
  C   C765      1.0  0.66843  0.21198  0.85275  1.0000
  C   C766      1.0  0.66578  0.21487  0.82634  1.0000
  C   C767      1.0  0.66688  0.22824  0.81508  1.0000
  H   H1250     1.0  0.67450  0.22055  0.88835  1.0000
  H   H1251     1.0  0.66359  0.20679  0.81436  1.0000
  H   H1252     1.0  0.66500  0.23027  0.79453  1.0000
  H   H1253     1.0  0.73953  0.16221  0.82407  1.0000
  C   C768      1.0  0.89037  0.23148  0.70732  1.0000
  C   C769      1.0  0.87996  0.22133  0.69444  1.0000
  C   C770      1.0  0.87136  0.22443  0.66931  1.0000
  C   C771      1.0  0.74463  0.06324  0.89098  1.0000
  H   H1254     1.0  0.89723  0.22912  0.72668  1.0000
  H   H1255     1.0  0.86328  0.21665  0.65921  1.0000
  C   C772      1.0  0.59406  0.22866  0.84946  1.0000
  C   C773      1.0  0.94735  0.21723  0.66086  1.0000
  H   H1256     1.0  0.55079  0.11639  0.86270  1.0000
  H   H1257     1.0  0.54156  0.10529  0.91482  1.0000
  C   C774      1.0  0.86461  0.00341  0.63892  1.0000
  H   H1258     1.0  0.93133  0.19397  0.68766  1.0000
  C   C775      1.0  0.95613  0.20358  0.71233  1.0000
  H   H1259     1.0  0.57110  0.10044  0.89469  1.0000
  H   H1260     1.0  0.71723  0.08164  0.93659  1.0000
  H   H1261     1.0  0.73911  0.06317  0.87064  1.0000
  H   H1262     1.0  0.95289  0.22346  0.67626  1.0000
  C   C776      1.0  0.94868  0.03482  0.59663  1.0000
  S   S234      1.0  0.83673  0.04818  0.50371  1.0000
  C   C777      1.0  0.57299  0.12030  0.91091  1.0000
  H   H1263     1.0  0.95063  0.04150  0.55590  1.0000
  H   H1264     1.0  0.67632  0.00123  0.79421  1.0000
  H   H1265     1.0  0.72268  0.00902  0.73706  1.0000
  C   C778      1.0  0.52717  0.05045  0.93088  1.0000
  H   H1266     1.0  0.00642  0.14308  0.67934  1.0000
  H   H1267     1.0  0.93916  0.21153  0.71432  1.0000
  H   H1268     1.0  0.95474  0.19623  0.72965  1.0000
  H   H1269     1.0  0.69330  0.06160  0.96042  1.0000
  C   C779      1.0  0.54945  0.23841  0.83233  1.0000
  C   C780      1.0  0.91524  0.03627  0.49044  1.0000
  C   C781      1.0  0.59437  0.21538  0.83614  1.0000
  H   H1270     1.0  0.73053  0.01966  0.82568  1.0000
  H   H1271     1.0  0.86557  0.24027  0.63826  1.0000
  H   H1272     1.0  0.00175  0.08844  0.61856  1.0000
  H   H1273     1.0  0.95564  0.17625  0.62510  1.0000
  C   C782      1.0  0.56612  0.12389  0.86465  1.0000
  C   C783      1.0  0.98920  0.06532  0.59257  1.0000
  H   H1274     1.0  0.98532  0.06567  0.61303  1.0000
  H   H1275     1.0  0.52458  0.20725  0.78023  1.0000
  C   C784      1.0  0.99714  0.09816  0.62722  1.0000
  H   H1276     1.0  0.72754  0.02812  0.93968  1.0000
  H   H1277     1.0  0.00744  0.10032  0.56965  1.0000
  C   C785      1.0  0.85878  0.99916  0.61513  1.0000
  H   H1278     1.0  0.95190  0.01870  0.65744  1.0000
  H   H1279     1.0  0.82702  0.23711  0.70082  1.0000
  C   C786      1.0  0.96341  0.01082  0.61114  1.0000
  H   H1280     1.0  0.58442  0.13948  0.83790  1.0000
  H   H1281     1.0  0.51403  0.21017  0.81216  1.0000
  H   H1282     1.0  0.72857  0.04364  0.89437  1.0000
  H   H1283     1.0  0.73343  0.01502  0.78048  1.0000
  H   H1284     1.0  0.97575  0.20832  0.71232  1.0000
  H   H1285     1.0  0.92509  0.21625  0.66358  1.0000
  H   H1286     1.0  0.91739  0.06444  0.48765  1.0000
  H   H1287     1.0  0.93011  0.04006  0.67117  1.0000
  H   H1288     1.0  0.69766  0.01629  0.81592  1.0000
  C   C787      1.0  0.70605  0.03033  0.94607  1.0000
  H   H1289     1.0  0.67110  0.04435  0.93863  1.0000
  H   H1290     1.0  0.68724  0.03754  0.91104  1.0000
  C   C788      1.0  0.69142  0.04201  0.92909  1.0000
  C   C789      1.0  0.95409  0.19576  0.64124  1.0000
  C   C790      1.0  0.56391  0.10566  0.91192  1.0000
  C   C791      1.0  0.51603  0.14453  0.87899  1.0000
  H   H1291     1.0  0.70474  0.03244  0.96659  1.0000
  N   N56       1.0  0.56152  0.13030  0.88982  1.0000
  C   C792      1.0  0.96583  0.18089  0.64031  1.0000
  C   C793      1.0  0.57707  0.14287  0.88926  1.0000
  H   H1292     1.0  0.66907  0.06772  0.92189  1.0000
  H   H1293     1.0  0.00022  0.20608  0.64086  1.0000
  H   H1294     1.0  0.99751  0.21459  0.66923  1.0000
  C   C794      1.0  0.99278  0.20499  0.66132  1.0000
  H   H1295     1.0  0.96200  0.17441  0.65832  1.0000
  H   H1296     1.0  0.95965  0.02374  0.56223  1.0000
  H   H1297     1.0  0.59566  0.11945  0.90949  1.0000
  H   H1298     1.0  0.54829  0.23034  0.81910  1.0000
  C   C795      1.0  0.94483  0.02658  0.64216  1.0000
  H   H1299     1.0  0.59918  0.14020  0.88536  1.0000
  C   C796      1.0  0.51822  0.06423  0.93104  1.0000
  C   C797      1.0  0.96155  0.03383  0.56932  1.0000
  H   H1300     1.0  0.92624  0.01128  0.58838  1.0000
  H   H1301     1.0  0.54127  0.22487  0.86755  1.0000
  H   H1302     1.0  0.94278  0.23658  0.63760  1.0000
  H   H1303     1.0  0.56757  0.12386  0.93021  1.0000
  H   H1304     1.0  0.86501  0.99625  0.65575  1.0000
  N   N57       1.0  0.57860  0.24102  0.83661  1.0000
  C   C798      1.0  0.68718  0.06524  0.90928  1.0000
  H   H1305     1.0  0.99589  0.02424  0.66218  1.0000
  C   C799      1.0  0.67033  0.23897  0.83009  1.0000
  C   C800      1.0  0.99028  0.02949  0.62062  1.0000
  H   H1306     1.0  0.58626  0.11796  0.86411  1.0000
  H   H1307     1.0  0.97566  0.10128  0.62254  1.0000
  H   H1308     1.0  0.58403  0.14429  0.93034  1.0000
  H   H1309     1.0  0.76719  0.06157  0.89079  1.0000
  H   H1310     1.0  0.94924  0.04563  0.60071  1.0000
  H   H1311     1.0  0.00336  0.06473  0.51914  1.0000
  H   H1312     1.0  0.73957  0.07350  0.89740  1.0000
  H   H1313     1.0  0.96335  0.04351  0.65853  1.0000
  H   H1314     1.0  0.52058  0.12382  0.89457  1.0000
  H   H1315     1.0  0.93088  0.03388  0.50502  1.0000
  H   H1316     1.0  0.75879  0.00602  0.74091  1.0000
  H   H1317     1.0  0.57329  0.09955  0.92859  1.0000
  H   H1318     1.0  0.93347  0.04876  0.64011  1.0000
  S   S235      1.0  0.65942  0.99706  0.85225  1.0000
  C   C801      1.0  0.00582  0.02207  0.64339  1.0000
  C   C802      1.0  0.87275  0.23779  0.65748  1.0000
  H   H1319     1.0  0.69553  0.02086  0.94499  1.0000
  C   C803      1.0  0.64944  0.99462  0.90468  1.0000
  H   H1320     1.0  0.74909  0.07109  0.94022  1.0000
  H   H1321     1.0  0.92662  0.03331  0.59586  1.0000
  H   H1322     1.0  0.74831  0.04653  0.92067  1.0000
  N   N58       1.0  0.70637  0.05480  0.92334  1.0000
  H   H1323     1.0  0.52806  0.15326  0.87248  1.0000
  H   H1324     1.0  0.72885  0.07586  0.96750  1.0000
  C   C804      1.0  0.71252  0.05980  0.94871  1.0000
  H   H1325     1.0  0.52758  0.13529  0.91638  1.0000
  C   C805      1.0  0.57444  0.15043  0.91389  1.0000
  H   H1326     1.0  0.98313  0.03630  0.56803  1.0000
  H   H1327     1.0  0.92346  0.02450  0.63924  1.0000
  H   H1328     1.0  0.72144  0.21360  0.82880  1.0000
  H   H1329     1.0  0.66659  0.07025  0.87337  1.0000
  H   H1330     1.0  0.73970  0.20473  0.85526  1.0000
  N   N59       1.0  0.77853  0.13358  0.66475  1.0000
  C   C806      1.0  0.78866  0.12267  0.64741  1.0000
  C   C807      1.0  0.80183  0.13585  0.68121  1.0000
  C   C808      1.0  0.77149  0.14644  0.64779  1.0000
  C   C809      1.0  0.75381  0.12889  0.68020  1.0000
  C   C810      1.0  0.76946  0.11989  0.62632  1.0000
  C   C811      1.0  0.81358  0.12313  0.69749  1.0000
  C   C812      1.0  0.76298  0.15943  0.66124  1.0000
  C   C813      1.0  0.74687  0.13528  0.70585  1.0000
  H   H1331     1.0  0.80833  0.12516  0.63759  1.0000
  H   H1332     1.0  0.79302  0.11270  0.65869  1.0000
  H   H1333     1.0  0.79638  0.14371  0.69470  1.0000
  H   H1334     1.0  0.81893  0.13994  0.66890  1.0000
  H   H1335     1.0  0.78906  0.14885  0.63444  1.0000
  H   H1336     1.0  0.75432  0.14511  0.63542  1.0000
  H   H1337     1.0  0.73541  0.13056  0.66843  1.0000
  H   H1338     1.0  0.75647  0.11769  0.68541  1.0000
  H   H1339     1.0  0.76846  0.12833  0.61079  1.0000
  H   H1340     1.0  0.77790  0.11069  0.61704  1.0000
  H   H1341     1.0  0.74874  0.11791  0.63413  1.0000
  H   H1342     1.0  0.79751  0.11732  0.70783  1.0000
  H   H1343     1.0  0.82672  0.11636  0.68547  1.0000
  H   H1344     1.0  0.82673  0.12635  0.71219  1.0000
  H   H1345     1.0  0.74297  0.15873  0.67165  1.0000
  H   H1346     1.0  0.76043  0.16812  0.64631  1.0000
  H   H1347     1.0  0.77865  0.16213  0.67399  1.0000
  H   H1348     1.0  0.72440  0.13623  0.70919  1.0000
  H   H1349     1.0  0.75377  0.14553  0.70673  1.0000
  H   H1350     1.0  0.75481  0.12848  0.72234  1.0000
  N   N60       1.0  0.75425  0.18966  0.81185  1.0000
  C   C814      1.0  0.77243  0.18509  0.78982  1.0000
  C   C815      1.0  0.72497  0.18959  0.80468  1.0000
  C   C816      1.0  0.75843  0.18018  0.83586  1.0000
  C   C817      1.0  0.76107  0.20372  0.81711  1.0000
  C   C818      1.0  0.80327  0.18369  0.79438  1.0000
  C   C819      1.0  0.71606  0.19955  0.78163  1.0000
  C   C820      1.0  0.75834  0.16480  0.83260  1.0000
  C   C821      1.0  0.74180  0.21089  0.83658  1.0000
  H   H1351     1.0  0.76660  0.17523  0.78415  1.0000
  H   H1352     1.0  0.76983  0.19230  0.77237  1.0000
  H   H1353     1.0  0.71078  0.19165  0.82132  1.0000
  H   H1354     1.0  0.72055  0.17933  0.79966  1.0000
  H   H1355     1.0  0.77788  0.18176  0.84477  1.0000
  H   H1356     1.0  0.74223  0.18241  0.85079  1.0000
  H   H1357     1.0  0.78182  0.20338  0.82476  1.0000
  H   H1358     1.0  0.76184  0.21058  0.79904  1.0000
  H   H1359     1.0  0.80862  0.17689  0.81168  1.0000
  H   H1360     1.0  0.81405  0.17911  0.77770  1.0000
  H   H1361     1.0  0.81140  0.19376  0.79551  1.0000
  H   H1362     1.0  0.69404  0.19873  0.77896  1.0000
  H   H1363     1.0  0.71860  0.21032  0.78466  1.0000
  H   H1364     1.0  0.72663  0.19685  0.76343  1.0000
  H   H1365     1.0  0.75944  0.15902  0.85181  1.0000
  H   H1366     1.0  0.77617  0.16098  0.82090  1.0000
  C   C822      1.0  0.73222  0.05137  0.90784  1.0000
  C   C823      1.0  0.95179  0.22606  0.63535  1.0000
  C   C824      1.0  0.73232  0.00610  0.79500  1.0000
  C   C825      1.0  0.56611  0.13355  0.83974  1.0000
  N   N61       1.0  0.96181  0.02542  0.61763  1.0000
  S   S236      1.0  0.53861  0.07576  0.94266  1.0000
  Fe  Fe119     1.0  0.57617  0.06534  0.96020  1.0000
  H   H1367     1.0  0.95910  0.16737  0.73164  1.0000
  H   H1368     1.0  0.68999  0.01092  0.76748  1.0000
  H   H1369     1.0  0.97823  0.00920  0.59480  1.0000
  C   C826      1.0  0.00246  0.16981  0.72929  1.0000
  H   H1370     1.0  0.60591  0.20713  0.84794  1.0000
  C   C827      1.0  0.65043  0.00337  0.88216  1.0000
  H   H1371     1.0  0.95700  0.05186  0.50021  1.0000
  C   C828      1.0  0.93625  0.00533  0.60478  1.0000
  H   H1372     1.0  0.97131  0.00387  0.62748  1.0000
  H   H1373     1.0  0.69604  0.07516  0.90471  1.0000
  H   H1374     1.0  0.96015  0.20097  0.62234  1.0000
  H   H1375     1.0  0.93146  0.19572  0.64140  1.0000
  H   H1376     1.0  0.75391  0.00279  0.79905  1.0000
  H   H1377     1.0  0.57372  0.21194  0.83444  1.0000
  C   C829      1.0  0.58378  0.24038  0.78668  1.0000
  H   H1378     1.0  0.69301  0.05681  0.87138  1.0000
  C   C830      1.0  0.73965  0.00104  0.73897  1.0000
  H   H1379     1.0  0.72535  0.05201  0.96030  1.0000
  H   H1380     1.0  0.92186  0.00484  0.62170  1.0000
  H   H1381     1.0  0.71746  0.00362  0.83571  1.0000
  C   C831      1.0  0.53152  0.13313  0.89594  1.0000
  H   H1382     1.0  0.58550  0.15984  0.91053  1.0000
  H   H1383     1.0  0.97365  0.22674  0.62986  1.0000
  C   C832      1.0  0.67300  0.23621  0.85661  1.0000
  H   H1384     1.0  0.54768  0.14059  0.83804  1.0000
  C   C833      1.0  0.00523  0.15059  0.69323  1.0000
  H   H1385     1.0  0.99010  0.04058  0.62261  1.0000
  H   H1386     1.0  0.94100  0.22231  0.61953  1.0000
  H   H1387     1.0  0.00128  0.17721  0.74339  1.0000
  H   H1388     1.0  0.60522  0.21626  0.81715  1.0000
  C   C834      1.0  0.69013  0.00035  0.77684  1.0000
  H   H1389     1.0  0.00454  0.11568  0.60070  1.0000
  H   H1390     1.0  0.51582  0.03033  0.92523  1.0000
  H   H1391     1.0  0.94024  0.99472  0.59941  1.0000
  H   H1392     1.0  0.90425  0.02693  0.48959  1.0000
  H   H1393     1.0  0.99825  0.09637  0.64843  1.0000
  H   H1394     1.0  0.00114  0.03926  0.49410  1.0000
  H   H1395     1.0  0.00751  0.18325  0.67059  1.0000
  H   H1396     1.0  0.51191  0.23148  0.85066  1.0000
  H   H1397     1.0  0.58617  0.22646  0.86956  1.0000
  H   H1398     1.0  0.79955  0.23911  0.67968  1.0000
  N   N62       1.0  0.71842  0.99492  0.78435  1.0000
  H   H1399     1.0  0.61577  0.23058  0.85119  1.0000
  H   H1400     1.0  0.74098  0.99608  0.72066  1.0000
  H   H1401     1.0  0.65434  0.99588  0.75719  1.0000
  H   H1402     1.0  0.00333  0.02775  0.60314  1.0000
  H   H1403     1.0  0.64460  0.99322  0.94599  1.0000
  H   H1404     1.0  0.51080  0.99870  0.88621  1.0000
  H   H1405     1.0  0.52790  0.24248  0.86921  1.0000
  C   C835      1.0  0.50926  0.04105  0.92450  1.0000
  H   H1406     1.0  0.00856  0.01092  0.64216  1.0000
  Fe  Fe120     1.0  0.67854  0.45305  0.19672  1.0000
  S   S237      1.0  0.69145  0.44830  0.15619  1.0000
  S   S238      1.0  0.70470  0.45209  0.23278  1.0000
  Fe  Fe121     1.0  0.61738  0.45916  0.18207  1.0000
  S   S239      1.0  0.62686  0.45535  0.14108  1.0000
  S   S240      1.0  0.57391  0.46572  0.19618  1.0000
  Fe  Fe122     1.0  0.65320  0.43722  0.15630  1.0000
  S   S241      1.0  0.64429  0.41759  0.13996  1.0000
  Fe  Fe123     1.0  0.66384  0.46684  0.14420  1.0000
  S   S242      1.0  0.64200  0.44034  0.19773  1.0000
  S   S243      1.0  0.65264  0.47230  0.18426  1.0000
  H   H1407     1.0  0.56010  0.48988  0.13299  1.0000
  H   H1408     1.0  0.65955  0.45837  0.08345  1.0000
  C   C836      1.0  0.99313  0.44853  0.32699  1.0000
  S   S244      1.0  0.68742  0.40397  0.02781  1.0000
  S   S245      1.0  0.67402  0.48057  0.10881  1.0000
  C   C837      1.0  0.70858  0.44907  0.05500  1.0000
  Fe  Fe124     1.0  0.91394  0.46066  0.31646  1.0000
  S   S246      1.0  0.90322  0.45499  0.35777  1.0000
  S   S247      1.0  0.95572  0.46897  0.30686  1.0000
  Fe  Fe125     1.0  0.85551  0.45584  0.29960  1.0000
  S   S248      1.0  0.84142  0.44980  0.34027  1.0000
  S   S249      1.0  0.82952  0.45467  0.26412  1.0000
  Fe  Fe126     1.0  0.86379  0.46727  0.35098  1.0000
  Fe  Fe127     1.0  0.88199  0.43806  0.34403  1.0000
  S   S250      1.0  0.88712  0.41769  0.36702  1.0000
  S   S251      1.0  0.87542  0.47442  0.31018  1.0000
  S   S252      1.0  0.89538  0.44263  0.30265  1.0000
  C   C838      1.0  0.87016  0.42289  0.45257  1.0000
  C   C839      1.0  0.88300  0.41070  0.44487  1.0000
  C   C840      1.0  0.88739  0.40894  0.41853  1.0000
  C   C841      1.0  0.87971  0.41950  0.39990  1.0000
  C   C842      1.0  0.86722  0.43172  0.40771  1.0000
  C   C843      1.0  0.86218  0.43334  0.43391  1.0000
  H   H1409     1.0  0.88899  0.40255  0.45917  1.0000
  H   H1410     1.0  0.89704  0.39946  0.41261  1.0000
  H   H1411     1.0  0.86114  0.43994  0.39359  1.0000
  H   H1412     1.0  0.85209  0.44277  0.43969  1.0000
  C   C844      1.0  0.73951  0.45348  0.24063  1.0000
  C   C845      1.0  0.76135  0.45247  0.22259  1.0000
  C   C846      1.0  0.78849  0.45302  0.23012  1.0000
  C   C847      1.0  0.79445  0.45474  0.25570  1.0000
  C   C848      1.0  0.77258  0.45594  0.27367  1.0000
  C   C849      1.0  0.74548  0.45518  0.26624  1.0000
  H   H1413     1.0  0.75736  0.45113  0.20286  1.0000
  H   H1414     1.0  0.80504  0.45210  0.21591  1.0000
  H   H1415     1.0  0.77646  0.45752  0.29331  1.0000
  H   H1416     1.0  0.72892  0.45605  0.28043  1.0000
  C   C850      1.0  0.65602  0.41434  0.10845  1.0000
  C   C851      1.0  0.63815  0.40976  0.09149  1.0000
  C   C852      1.0  0.64736  0.40657  0.06666  1.0000
  C   C853      1.0  0.67472  0.40762  0.05887  1.0000
  C   C854      1.0  0.69261  0.41201  0.07599  1.0000
  C   C855      1.0  0.68332  0.41544  0.10059  1.0000
  H   H1417     1.0  0.61712  0.40865  0.09758  1.0000
  H   H1418     1.0  0.63344  0.40311  0.05371  1.0000
  H   H1419     1.0  0.71388  0.41264  0.07026  1.0000
  H   H1420     1.0  0.69740  0.41866  0.11369  1.0000
  H   H1421     1.0  0.71865  0.46642  0.07595  1.0000
  C   C856      1.0  0.79474  0.42508  0.31290  1.0000
  H   H1422     1.0  0.97330  0.39695  0.36808  1.0000
  H   H1423     1.0  0.94948  0.45183  0.41264  1.0000
  C   C857      1.0  0.54219  0.46036  0.18719  1.0000
  C   C858      1.0  0.54030  0.45244  0.16657  1.0000
  H   H1424     1.0  0.51953  0.46970  0.21804  1.0000
  H   H1425     1.0  0.55818  0.45023  0.15449  1.0000
  H   H1426     1.0  0.94493  0.40597  0.38240  1.0000
  C   C859      1.0  0.98877  0.46176  0.31526  1.0000
  H   H1427     1.0  0.94378  0.43933  0.43962  1.0000
  C   C860      1.0  0.69150  0.44668  0.00105  1.0000
  H   H1428     1.0  0.97612  0.44226  0.33071  1.0000
  H   H1429     1.0  0.53053  0.38480  0.04435  1.0000
  C   C861      1.0  0.67383  0.44458  0.02600  1.0000
  C   C862      1.0  0.54008  0.41104  0.01582  1.0000
  H   H1430     1.0  0.91750  0.44458  0.41761  1.0000
  N   N63       1.0  0.97765  0.42435  0.40587  1.0000
  N   N64       1.0  0.81377  0.41490  0.29985  1.0000
  H   H1431     1.0  0.51395  0.37334  0.02691  1.0000
  C   C863      1.0  0.98114  0.41736  0.43258  1.0000
  H   H1432     1.0  0.83789  0.38674  0.32919  1.0000
  C   C864      1.0  0.81013  0.41738  0.27121  1.0000
  H   H1433     1.0  0.78450  0.41450  0.35055  1.0000
  H   H1434     1.0  0.94173  0.48366  0.40978  1.0000
  H   H1435     1.0  0.52169  0.42026  0.23631  1.0000
  H   H1436     1.0  0.00477  0.48412  0.35245  1.0000
  H   H1437     1.0  0.88711  0.46179  0.46736  1.0000
  C   C865      1.0  0.95688  0.40978  0.44507  1.0000
  C   C866      1.0  0.84269  0.41771  0.30451  1.0000
  H   H1438     1.0  0.86711  0.41232  0.27014  1.0000
  C   C867      1.0  0.78101  0.41674  0.26192  1.0000
  C   C868      1.0  0.86506  0.40886  0.29089  1.0000
  H   H1439     1.0  0.81432  0.39360  0.29332  1.0000
  H   H1440     1.0  0.64035  0.46769  0.01680  1.0000
  H   H1441     1.0  0.82600  0.40099  0.34701  1.0000
  H   H1442     1.0  0.65243  0.44625  0.02018  1.0000
  H   H1443     1.0  0.55288  0.41987  0.01364  1.0000
  H   H1444     1.0  0.93960  0.48005  0.35853  1.0000
  C   C869      1.0  0.58251  0.49029  0.13081  1.0000
  H   H1445     1.0  0.94433  0.41625  0.45809  1.0000
  H   H1446     1.0  0.52945  0.40780  0.05576  1.0000
  N   N65       1.0  0.56934  0.41401  0.20408  1.0000
  C   C870      1.0  0.55565  0.41393  0.17879  1.0000
  H   H1447     1.0  0.94729  0.43514  0.38146  1.0000
  C   C871      1.0  0.59840  0.40817  0.20062  1.0000
  C   C872      1.0  0.56828  0.42859  0.21068  1.0000
  C   C873      1.0  0.57199  0.41925  0.15450  1.0000
  H   H1448     1.0  0.73889  0.45095  0.08318  1.0000
  C   C874      1.0  0.61357  0.40277  0.22503  1.0000
  C   C875      1.0  0.64998  0.47428  0.02914  1.0000
  H   H1449     1.0  0.55069  0.40343  0.17548  1.0000
  C   C876      1.0  0.55390  0.40514  0.22374  1.0000
  H   H1450     1.0  0.57300  0.42339  0.25284  1.0000
  C   C877      1.0  0.93275  0.48925  0.36861  1.0000
  H   H1451     1.0  0.59935  0.39939  0.18855  1.0000
  H   H1452     1.0  0.61110  0.41581  0.18990  1.0000
  H   H1453     1.0  0.58089  0.43473  0.19656  1.0000
  H   H1454     1.0  0.54745  0.43366  0.20863  1.0000
  H   H1455     1.0  0.58221  0.42858  0.15707  1.0000
  H   H1456     1.0  0.58758  0.41132  0.14848  1.0000
  H   H1457     1.0  0.55806  0.42166  0.13837  1.0000
  H   H1458     1.0  0.88144  0.47904  0.45368  1.0000
  H   H1459     1.0  0.60535  0.39327  0.23408  1.0000
  C   C878      1.0  0.71787  0.45520  0.07902  1.0000
  C   C879      1.0  0.94927  0.43083  0.40180  1.0000
  H   H1460     1.0  0.53575  0.42010  0.17891  1.0000
  H   H1461     1.0  0.98510  0.42499  0.44613  1.0000
  S   S253      1.0  0.57458  0.37367  0.99138  1.0000
  C   C880      1.0  0.87273  0.47099  0.46711  1.0000
  H   H1462     1.0  0.59119  0.48369  0.14724  1.0000
  C   C881      1.0  0.99452  0.48307  0.37175  1.0000
  H   H1463     1.0  0.56622  0.44078  0.24334  1.0000
  C   C882      1.0  0.51915  0.41282  0.03848  1.0000
  N   N66       1.0  0.67964  0.45306  0.04744  1.0000
  C   C883      1.0  0.67753  0.46810  0.03916  1.0000
  H   H1464     1.0  0.79985  0.43563  0.30620  1.0000
  H   H1465     1.0  0.88496  0.41006  0.29928  1.0000
  H   H1466     1.0  0.96491  0.40085  0.45770  1.0000
  H   H1467     1.0  0.85340  0.46871  0.45884  1.0000
  H   H1468     1.0  0.63525  0.40013  0.21947  1.0000
  H   H1469     1.0  0.81412  0.42436  0.35059  1.0000
  H   H1470     1.0  0.77330  0.42437  0.30784  1.0000
  H   H1471     1.0  0.82314  0.40984  0.26068  1.0000
  H   H1472     1.0  0.55454  0.40198  0.02003  1.0000
  H   H1473     1.0  0.59957  0.43299  0.23678  1.0000
  H   H1474     1.0  0.78485  0.39982  0.31069  1.0000
  H   H1475     1.0  0.78192  0.41671  0.24065  1.0000
  H   H1476     1.0  0.62070  0.45491  0.05342  1.0000
  S   S254      1.0  0.61752  0.40568  0.99323  1.0000
  H   H1477     1.0  0.67632  0.43356  0.03273  1.0000
  C   C884      1.0  0.99692  0.43559  0.40163  1.0000
  H   H1478     1.0  0.51451  0.44043  0.14678  1.0000
  H   H1479     1.0  0.63116  0.43687  0.05757  1.0000
  H   H1480     1.0  0.68138  0.47402  0.05553  1.0000
  H   H1481     1.0  0.86150  0.39789  0.29322  1.0000
  C   C885      1.0  0.57755  0.43133  0.23738  1.0000
  S   S255      1.0  0.84897  0.47854  0.38506  1.0000
  H   H1482     1.0  0.94364  0.40579  0.43156  1.0000
  C   C886      1.0  0.79391  0.42388  0.34249  1.0000
  C   C887      1.0  0.98484  0.41457  0.38561  1.0000
  H   H1483     1.0  0.70504  0.45258  0.09646  1.0000
  H   H1484     1.0  0.61356  0.41035  0.23927  1.0000
  H   H1485     1.0  0.71192  0.43779  0.05860  1.0000
  H   H1486     1.0  0.53128  0.41047  0.99702  1.0000
  H   H1487     1.0  0.84711  0.41675  0.32516  1.0000
  H   H1488     1.0  0.66934  0.44089  0.08271  1.0000
  H   H1489     1.0  0.51653  0.42387  0.04143  1.0000
  H   H1490     1.0  0.77145  0.40742  0.26994  1.0000
  H   H1491     1.0  0.84608  0.42852  0.29809  1.0000
  Fe  Fe128     1.0  0.66117  0.39769  0.99699  1.0000
  H   H1492     1.0  0.96926  0.39526  0.40209  1.0000
  H   H1493     1.0  0.76775  0.42593  0.26616  1.0000
  H   H1494     1.0  0.81705  0.42748  0.26372  1.0000
  C   C888      1.0  0.63154  0.44681  0.06583  1.0000
  C   C889      1.0  0.66095  0.44993  0.07066  1.0000
  C   C890      1.0  0.93983  0.44227  0.41912  1.0000
  H   H1495     1.0  0.56351  0.40395  0.24261  1.0000
  H   H1496     1.0  0.80506  0.38744  0.34435  1.0000
  C   C891      1.0  0.82005  0.39385  0.33358  1.0000
  H   H1497     1.0  0.78083  0.43262  0.34928  1.0000
  C   C892      1.0  0.80731  0.40046  0.30846  1.0000
  H   H1498     1.0  0.55441  0.39458  0.21777  1.0000
  H   H1499     1.0  0.65335  0.48373  0.01657  1.0000
  H   H1500     1.0  0.69393  0.47095  0.02479  1.0000
  H   H1501     1.0  0.72338  0.45209  0.03922  1.0000
  C   C893      1.0  0.96669  0.40263  0.38495  1.0000
  C   C894      1.0  0.52379  0.41004  0.22895  1.0000
  H   H1502     1.0  0.61993  0.44585  0.08455  1.0000
  H   H1503     1.0  0.99940  0.40996  0.43290  1.0000
  C   C895      1.0  0.51543  0.44700  0.16211  1.0000
  H   H1504     1.0  0.98471  0.42017  0.36610  1.0000
  H   H1505     1.0  0.71317  0.44324  0.00389  1.0000
  H   H1506     1.0  0.93382  0.42330  0.40456  1.0000
  H   H1507     1.0  0.99342  0.44163  0.38288  1.0000
  H   H1508     1.0  0.99316  0.44295  0.41649  1.0000
  H   H1509     1.0  0.98155  0.47434  0.37318  1.0000
  H   H1510     1.0  0.63573  0.47688  0.04535  1.0000
  C   C896      1.0  0.51843  0.46352  0.20213  1.0000
  H   H1511     1.0  0.58987  0.48562  0.11315  1.0000
  S   S256      1.0  0.65458  0.37622  0.98811  1.0000
  H   H1512     1.0  0.68956  0.45737  0.99248  1.0000
  H   H1513     1.0  0.96941  0.49210  0.32898  1.0000
  H   H1514     1.0  0.91720  0.47432  0.39752  1.0000
  C   C897      1.0  0.92465  0.48468  0.39669  1.0000
  H   H1515     1.0  0.00834  0.47979  0.30053  1.0000
  H   H1516     1.0  0.68436  0.44027  0.98669  1.0000
  H   H1517     1.0  0.90793  0.49162  0.40410  1.0000
  H   H1518     1.0  0.51471  0.40289  0.24398  1.0000
  H   H1519     1.0  0.00580  0.40971  0.38786  1.0000
  H   H1520     1.0  0.51148  0.41013  0.21171  1.0000
  H   H1521     1.0  0.91320  0.49269  0.35948  1.0000
  C   C898      1.0  0.51033  0.38194  0.03921  1.0000
  S   S257      1.0  0.86304  0.42540  0.48519  1.0000
  C   C899      1.0  0.62041  0.32579  0.68762  1.0000
  C   C900      1.0  0.94175  0.28581  0.78352  1.0000
  S   S258      1.0  0.69207  0.47457  0.89069  1.0000
  H   H1522     1.0  0.60904  0.30136  0.71557  1.0000
  H   H1523     1.0  0.77300  0.45892  0.66196  1.0000
  S   S259      1.0  0.85407  0.47891  0.63620  1.0000
  Fe  Fe129     1.0  0.89644  0.28143  0.67950  1.0000
  S   S260      1.0  0.90432  0.27734  0.72131  1.0000
  S   S261      1.0  0.88212  0.26500  0.65660  1.0000
  Fe  Fe130     1.0  0.91250  0.31078  0.67869  1.0000
  S   S262      1.0  0.92091  0.30839  0.72094  1.0000
  S   S263      1.0  0.92793  0.32982  0.65706  1.0000
  Fe  Fe131     1.0  0.94239  0.28829  0.71253  1.0000
  S   S264      1.0  0.98210  0.27809  0.72814  1.0000
  Fe  Fe132     1.0  0.88186  0.29769  0.72552  1.0000
  S   S265      1.0  0.85298  0.29773  0.76100  1.0000
  S   S266      1.0  0.93591  0.29107  0.67026  1.0000
  S   S267      1.0  0.87190  0.30145  0.68379  1.0000
  Fe  Fe133     1.0  0.63297  0.30273  0.81571  1.0000
  S   S268      1.0  0.64065  0.28891  0.85121  1.0000
  S   S269      1.0  0.59011  0.31194  0.80752  1.0000
  Fe  Fe134     1.0  0.69497  0.30242  0.80020  1.0000
  S   S270      1.0  0.70642  0.28868  0.83518  1.0000
  S   S271      1.0  0.72333  0.30891  0.76613  1.0000
  Fe  Fe135     1.0  0.67089  0.27687  0.82688  1.0000
  S   S272      1.0  0.67075  0.25548  0.81421  1.0000
  Fe  Fe136     1.0  0.67501  0.30220  0.85617  1.0000
  S   S273      1.0  0.67774  0.31029  0.89535  1.0000
  S   S274      1.0  0.66091  0.29013  0.79086  1.0000
  S   S275      1.0  0.66582  0.31663  0.82160  1.0000
  Fe  Fe137     1.0  0.62941  0.41087  0.95182  1.0000
  S   S276      1.0  0.67358  0.40428  0.95594  1.0000
  S   S277      1.0  0.61116  0.42976  0.92955  1.0000
  H   H1524     1.0  0.53237  0.31860  0.81219  1.0000
  Fe  Fe138     1.0  0.66301  0.38351  0.94670  1.0000
  S   S278      1.0  0.68441  0.37297  0.91360  1.0000
  S   S279      1.0  0.61984  0.39080  0.93922  1.0000
  Fe  Fe139     1.0  0.91764  0.41944  0.56191  1.0000
  S   S280      1.0  0.87431  0.41507  0.55720  1.0000
  S   S281      1.0  0.93413  0.43676  0.58024  1.0000
  Fe  Fe140     1.0  0.93967  0.39650  0.52993  1.0000
  S   S282      1.0  0.89819  0.39057  0.52169  1.0000
  S   S283      1.0  0.97811  0.38659  0.51305  1.0000
  Fe  Fe141     1.0  0.88727  0.41305  0.51582  1.0000
  Fe  Fe142     1.0  0.88930  0.39290  0.56377  1.0000
  S   S284      1.0  0.86547  0.37692  0.58690  1.0000
  S   S285      1.0  0.92966  0.41879  0.52025  1.0000
  S   S286      1.0  0.93165  0.39754  0.57223  1.0000
  C   C901      1.0  0.55645  0.35981  0.91298  1.0000
  H   H1525     1.0  0.54583  0.26975  0.79741  1.0000
  C   C902      1.0  0.67929  0.32781  0.89997  1.0000
  C   C903      1.0  0.68361  0.33759  0.87942  1.0000
  C   C904      1.0  0.68518  0.35135  0.88393  1.0000
  C   C905      1.0  0.68184  0.35555  0.90893  1.0000
  C   C906      1.0  0.67709  0.34583  0.92946  1.0000
  C   C907      1.0  0.67604  0.33201  0.92499  1.0000
  H   H1526     1.0  0.68639  0.33450  0.86012  1.0000
  H   H1527     1.0  0.68909  0.35876  0.86794  1.0000
  H   H1528     1.0  0.67476  0.34889  0.94883  1.0000
  H   H1529     1.0  0.67283  0.32452  0.94103  1.0000
  H   H1530     1.0  0.67583  0.24441  0.86835  1.0000
  H   H1531     1.0  0.90031  0.25226  0.70562  1.0000
  C   C908      1.0  0.90895  0.34327  0.63986  1.0000
  C   C909      1.0  0.88186  0.34236  0.63380  1.0000
  C   C910      1.0  0.86852  0.35288  0.61793  1.0000
  C   C911      1.0  0.88222  0.36427  0.60791  1.0000
  C   C912      1.0  0.90910  0.36526  0.61445  1.0000
  C   C913      1.0  0.92234  0.35484  0.63040  1.0000
  H   H1532     1.0  0.87137  0.33349  0.64093  1.0000
  H   H1533     1.0  0.84764  0.35209  0.61306  1.0000
  H   H1534     1.0  0.91973  0.37404  0.60723  1.0000
  H   H1535     1.0  0.94324  0.35566  0.63517  1.0000
  C   C914      1.0  0.81701  0.30114  0.76196  1.0000
  C   C915      1.0  0.80285  0.30645  0.74028  1.0000
  C   C916      1.0  0.77423  0.30883  0.74191  1.0000
  C   C917      1.0  0.75941  0.30583  0.76513  1.0000
  C   C918      1.0  0.77358  0.30040  0.78673  1.0000
  C   C919      1.0  0.80221  0.29817  0.78517  1.0000
  H   H1536     1.0  0.81397  0.30890  0.72235  1.0000
  H   H1537     1.0  0.76352  0.31306  0.72509  1.0000
  H   H1538     1.0  0.76251  0.29805  0.80473  1.0000
  H   H1539     1.0  0.81291  0.29407  0.80208  1.0000
  C   C920      1.0  0.87637  0.46723  0.62066  1.0000
  C   C921      1.0  0.86585  0.45654  0.60929  1.0000
  C   C922      1.0  0.88336  0.44709  0.59683  1.0000
  C   C923      1.0  0.91146  0.44834  0.59566  1.0000
  C   C924      1.0  0.92193  0.45908  0.60686  1.0000
  C   C925      1.0  0.90445  0.46849  0.61939  1.0000
  H   H1540     1.0  0.84413  0.45551  0.61030  1.0000
  H   H1541     1.0  0.87513  0.43879  0.58839  1.0000
  H   H1542     1.0  0.94365  0.46009  0.60606  1.0000
  H   H1543     1.0  0.91274  0.47665  0.62826  1.0000
  C   C926      1.0  0.66875  0.46272  0.90258  1.0000
  C   C927      1.0  0.64281  0.46310  0.89267  1.0000
  C   C928      1.0  0.62504  0.45309  0.90146  1.0000
  C   C929      1.0  0.63313  0.44266  0.92014  1.0000
  C   C930      1.0  0.65883  0.44245  0.93045  1.0000
  C   C931      1.0  0.67663  0.45244  0.92165  1.0000
  H   H1544     1.0  0.63661  0.47098  0.87792  1.0000
  H   H1545     1.0  0.60515  0.45332  0.89346  1.0000
  H   H1546     1.0  0.66506  0.43453  0.94506  1.0000
  H   H1547     1.0  0.69666  0.45213  0.92939  1.0000
  H   H1548     1.0  0.98481  0.29212  0.83103  1.0000
  C   C932      1.0  0.78766  0.26840  0.74463  1.0000
  H   H1549     1.0  0.88416  0.44943  0.53912  1.0000
  C   C933      1.0  0.92253  0.33289  0.57309  1.0000
  H   H1550     1.0  0.84279  0.26708  0.70156  1.0000
  H   H1551     1.0  0.98805  0.35210  0.59329  1.0000
  H   H1552     1.0  0.55773  0.36808  0.92592  1.0000
  H   H1553     1.0  0.62060  0.33654  0.95154  1.0000
  H   H1554     1.0  0.81190  0.44204  0.52071  1.0000
  C   C934      1.0  0.56571  0.28790  0.80311  1.0000
  C   C935      1.0  0.56205  0.30176  0.80697  1.0000
  C   C936      1.0  0.82818  0.25262  0.74277  1.0000
  H   H1555     1.0  0.58609  0.28313  0.80098  1.0000
  H   H1556     1.0  0.65001  0.33786  0.70180  1.0000
  C   C937      1.0  0.79400  0.25233  0.71086  1.0000
  H   H1557     1.0  0.94445  0.31614  0.77701  1.0000
  C   C938      1.0  0.90729  0.30286  0.79762  1.0000
  H   H1558     1.0  0.84319  0.44040  0.53673  1.0000
  H   H1559     1.0  0.91113  0.35518  0.53774  1.0000
  H   H1560     1.0  0.61655  0.33626  0.87202  1.0000
  H   H1561     1.0  0.97440  0.37759  0.56720  1.0000
  H   H1562     1.0  0.77188  0.48875  0.72718  1.0000
  C   C939      1.0  0.88272  0.24803  0.67071  1.0000
  H   H1563     1.0  0.56846  0.39931  0.96051  1.0000
  H   H1564     1.0  0.93767  0.30143  0.84046  1.0000
  H   H1565     1.0  0.90977  0.33365  0.55595  1.0000
  H   H1566     1.0  0.89690  0.31771  0.59184  1.0000
  H   H1567     1.0  0.65573  0.30435  0.70745  1.0000
  H   H1568     1.0  0.78319  0.44448  0.68310  1.0000
  N   N67       1.0  0.86223  0.46556  0.51568  1.0000
  H   H1569     1.0  0.98024  0.30180  0.75967  1.0000
  H   H1570     1.0  0.61769  0.33876  0.71810  1.0000
  H   H1571     1.0  0.84220  0.45302  0.49134  1.0000
  H   H1572     1.0  0.77733  0.25786  0.69980  1.0000
  C   C940      1.0  0.61317  0.30071  0.73622  1.0000
  N   N68       1.0  0.93654  0.29738  0.80051  1.0000
  H   H1573     1.0  0.75825  0.45697  0.69436  1.0000
  C   C941      1.0  0.52406  0.37461  0.97169  1.0000
  C   C942      1.0  0.82687  0.44790  0.52947  1.0000
  N   N69       1.0  0.64430  0.32120  0.73085  1.0000
  C   C943      1.0  0.65848  0.32872  0.74964  1.0000
  C   C944      1.0  0.66501  0.31081  0.72041  1.0000
  C   C945      1.0  0.62126  0.31421  0.74541  1.0000
  C   C946      1.0  0.64021  0.33891  0.76481  1.0000
  C   C947      1.0  0.68976  0.31649  0.70503  1.0000
  H   H1574     1.0  0.66882  0.32135  0.76409  1.0000
  H   H1575     1.0  0.67480  0.33468  0.73988  1.0000
  H   H1576     1.0  0.67310  0.30363  0.73643  1.0000
  H   H1577     1.0  0.62650  0.31144  0.76573  1.0000
  H   H1578     1.0  0.60247  0.32122  0.74641  1.0000
  H   H1579     1.0  0.62344  0.33405  0.77615  1.0000
  H   H1580     1.0  0.00390  0.40362  0.58729  1.0000
  H   H1581     1.0  0.93122  0.26561  0.77655  1.0000
  H   H1582     1.0  0.68371  0.32314  0.68772  1.0000
  H   H1583     1.0  0.70263  0.32191  0.71693  1.0000
  H   H1584     1.0  0.88290  0.48891  0.53642  1.0000
  H   H1585     1.0  0.90323  0.30560  0.77696  1.0000
  H   H1586     1.0  0.76666  0.47245  0.75972  1.0000
  H   H1587     1.0  0.81598  0.45276  0.54569  1.0000
  H   H1588     1.0  0.87697  0.31901  0.80672  1.0000
  C   C948      1.0  0.82380  0.27191  0.71027  1.0000
  H   H1589     1.0  0.78229  0.26116  0.76138  1.0000
  H   H1590     1.0  0.76262  0.28152  0.71662  1.0000
  H   H1591     1.0  0.57469  0.35026  0.95767  1.0000
  H   H1592     1.0  0.86735  0.48551  0.56747  1.0000
  H   H1593     1.0  0.00748  0.34074  0.57290  1.0000
  H   H1594     1.0  0.82836  0.26405  0.77740  1.0000
  N   N70       1.0  0.80808  0.26156  0.72657  1.0000
  H   H1595     1.0  0.99476  0.29676  0.79032  1.0000
  H   H1596     1.0  0.92490  0.26916  0.80920  1.0000
  H   H1597     1.0  0.60147  0.32280  0.94217  1.0000
  H   H1598     1.0  0.91082  0.32419  0.80666  1.0000
  H   H1599     1.0  0.70304  0.30781  0.69829  1.0000
  C   C949      1.0  0.59288  0.24578  0.81148  1.0000
  C   C950      1.0  0.86752  0.47629  0.49396  1.0000
  C   C951      1.0  0.89813  0.31552  0.81201  1.0000
  H   H1600     1.0  0.74744  0.26601  0.72941  1.0000
  C   C952      1.0  0.92375  0.27372  0.78911  1.0000
  H   H1601     1.0  0.99883  0.41068  0.63460  1.0000
  C   C953      1.0  0.51626  0.28642  0.80374  1.0000
  H   H1602     1.0  0.92820  0.45394  0.53022  1.0000
  C   C954      1.0  0.80875  0.28064  0.68858  1.0000
  H   H1603     1.0  0.92928  0.31706  0.60558  1.0000
  C   C955      1.0  0.91892  0.31864  0.58706  1.0000
  H   H1604     1.0  0.91271  0.34046  0.58574  1.0000
  H   H1605     1.0  0.51237  0.36284  0.91120  1.0000
  C   C956      1.0  0.84273  0.25974  0.76278  1.0000
  H   H1606     1.0  0.56481  0.26135  0.84648  1.0000
  H   H1607     1.0  0.84983  0.46467  0.55612  1.0000
  C   C957      1.0  0.52910  0.40000  0.94436  1.0000
  H   H1608     1.0  0.53111  0.40987  0.93397  1.0000
  H   H1609     1.0  0.61685  0.26128  0.84136  1.0000
  H   H1610     1.0  0.53678  0.44329  0.92224  1.0000
  H   H1611     1.0  0.95795  0.31501  0.80800  1.0000
  C   C958      1.0  0.54791  0.38126  0.97291  1.0000
  H   H1612     1.0  0.63180  0.34769  0.75217  1.0000
  H   H1613     1.0  0.89294  0.29506  0.80454  1.0000
  C   C959      1.0  0.60058  0.33212  0.95257  1.0000
  H   H1614     1.0  0.95591  0.33570  0.60680  1.0000
  C   C960      1.0  0.81236  0.24479  0.69127  1.0000
  H   H1615     1.0  0.92432  0.28579  0.83571  1.0000
  C   C961      1.0  0.60977  0.36600  0.88914  1.0000
  H   H1616     1.0  0.62428  0.34975  0.91585  1.0000
  H   H1617     1.0  0.91652  0.47082  0.51948  1.0000
  C   C962      1.0  0.57938  0.33913  0.89666  1.0000
  H   H1618     1.0  0.56436  0.33150  0.90277  1.0000
  H   H1619     1.0  0.99628  0.30573  0.71089  1.0000
  H   H1620     1.0  0.83488  0.48295  0.68915  1.0000
  H   H1621     1.0  0.63101  0.36909  0.88758  1.0000
  C   C963      1.0  0.00289  0.38287  0.53615  1.0000
  H   H1622     1.0  0.82329  0.25193  0.67764  1.0000
  N   N71       1.0  0.95142  0.33618  0.56565  1.0000
  C   C964      1.0  0.53543  0.30788  0.80931  1.0000
  H   H1623     1.0  0.56906  0.24917  0.87352  1.0000
  H   H1624     1.0  0.61911  0.24963  0.87010  1.0000
  H   H1625     1.0  0.81736  0.46273  0.67637  1.0000
  N   N72       1.0  0.68681  0.41003  0.86757  1.0000
  C   C965      1.0  0.68630  0.39753  0.85299  1.0000
  C   C966      1.0  0.66132  0.41063  0.88469  1.0000
  C   C967      1.0  0.71134  0.40806  0.88411  1.0000
  C   C968      1.0  0.68854  0.42237  0.84842  1.0000
  C   C969      1.0  0.71229  0.39367  0.83683  1.0000
  C   C970      1.0  0.63425  0.41129  0.87080  1.0000
  C   C971      1.0  0.71605  0.41965  0.90079  1.0000
  C   C972      1.0  0.67827  0.43636  0.85779  1.0000
  H   H1626     1.0  0.68214  0.38842  0.86629  1.0000
  H   H1627     1.0  0.66941  0.39873  0.83939  1.0000
  H   H1628     1.0  0.66005  0.41934  0.89663  1.0000
  H   H1629     1.0  0.66150  0.40153  0.89892  1.0000
  H   H1630     1.0  0.71042  0.39852  0.89717  1.0000
  H   H1631     1.0  0.73047  0.40681  0.87220  1.0000
  H   H1632     1.0  0.70989  0.42319  0.84084  1.0000
  H   H1633     1.0  0.67632  0.42121  0.83146  1.0000
  H   H1634     1.0  0.71958  0.40246  0.82448  1.0000
  H   H1635     1.0  0.72877  0.38895  0.84923  1.0000
  H   H1636     1.0  0.70778  0.38582  0.82402  1.0000
  H   H1637     1.0  0.61715  0.41378  0.88458  1.0000
  H   H1638     1.0  0.63326  0.41927  0.85452  1.0000
  H   H1639     1.0  0.63063  0.40128  0.86411  1.0000
  H   H1640     1.0  0.72176  0.42894  0.88888  1.0000
  H   H1641     1.0  0.73348  0.41636  0.91320  1.0000
  H   H1642     1.0  0.69849  0.42208  0.91390  1.0000
  H   H1643     1.0  0.69140  0.44430  0.84891  1.0000
  H   H1644     1.0  0.67858  0.43698  0.87866  1.0000
  H   H1645     1.0  0.65747  0.43956  0.85118  1.0000
  N   N73       1.0  0.79363  0.47749  0.69802  1.0000
  H   H1646     1.0  0.53867  0.24773  0.82276  1.0000
  C   C973      1.0  0.80076  0.46301  0.69164  1.0000
  C   C974      1.0  0.81919  0.48345  0.70513  1.0000
  C   C975      1.0  0.77158  0.47877  0.71890  1.0000
  C   C976      1.0  0.76022  0.27422  0.73369  1.0000
  C   C977      1.0  0.77717  0.45558  0.68233  1.0000
  C   C978      1.0  0.83262  0.47703  0.72981  1.0000
  C   C979      1.0  0.77200  0.46757  0.74163  1.0000
  H   H1647     1.0  0.97236  0.27588  0.82512  1.0000
  C   C980      1.0  0.98304  0.41193  0.62010  1.0000
  H   H1648     1.0  0.80940  0.45651  0.70804  1.0000
  H   H1649     1.0  0.00901  0.37491  0.60047  1.0000
  H   H1650     1.0  0.79959  0.48464  0.65777  1.0000
  H   H1651     1.0  0.60219  0.32102  0.88380  1.0000
  C   C981      1.0  0.96829  0.33332  0.58924  1.0000
  H   H1652     1.0  0.75116  0.47885  0.71056  1.0000
  C   C982      1.0  0.99537  0.37912  0.56178  1.0000
  C   C983      1.0  0.60657  0.33119  0.88940  1.0000
  C   C984      1.0  0.51264  0.30022  0.80800  1.0000
  C   C985      1.0  0.78386  0.48544  0.67369  1.0000
  C   C986      1.0  0.99023  0.32966  0.53256  1.0000
  C   C987      1.0  0.57725  0.34244  0.94346  1.0000
  H   H1653     1.0  0.81974  0.47917  0.74714  1.0000
  H   H1654     1.0  0.85186  0.48189  0.73187  1.0000
  H   H1655     1.0  0.83836  0.46601  0.72942  1.0000
  C   C988      1.0  0.98267  0.30494  0.77918  1.0000
  H   H1656     1.0  0.79168  0.46165  0.74461  1.0000
  H   H1657     1.0  0.55865  0.33670  0.94576  1.0000
  H   H1658     1.0  0.85693  0.25211  0.77320  1.0000
  C   C989      1.0  0.00821  0.43633  0.60199  1.0000
  H   H1659     1.0  0.60140  0.32101  0.69403  1.0000
  H   H1660     1.0  0.61465  0.33434  0.67314  1.0000
  H   H1661     1.0  0.89756  0.31311  0.83314  1.0000
  H   H1662     1.0  0.96334  0.31632  0.55286  1.0000
  C   C990      1.0  0.55041  0.39394  0.95919  1.0000
  H   H1663     1.0  0.59648  0.32877  0.97315  1.0000
  H   H1664     1.0  0.62907  0.29233  0.74058  1.0000
  N   N74       1.0  0.58021  0.34927  0.91657  1.0000
  H   H1665     1.0  0.57214  0.34447  0.87826  1.0000
  C   C991      1.0  0.54290  0.28033  0.80118  1.0000
  H   H1666     1.0  0.59630  0.37553  0.88926  1.0000
  H   H1667     1.0  0.79659  0.27693  0.75287  1.0000
  H   H1668     1.0  0.59430  0.29773  0.74707  1.0000
  C   C992      1.0  0.63353  0.33151  0.71007  1.0000
  H   H1669     1.0  0.63455  0.31852  0.67767  1.0000
  H   H1670     1.0  0.65283  0.34310  0.77884  1.0000
  H   H1671     1.0  0.97639  0.41561  0.58038  1.0000
  C   C993      1.0  0.93324  0.35555  0.53292  1.0000
  C   C994      1.0  0.96188  0.32718  0.54502  1.0000
  H   H1672     1.0  0.94720  0.32732  0.52944  1.0000
  H   H1673     1.0  0.88499  0.48216  0.49740  1.0000
  H   H1674     1.0  0.94258  0.35739  0.57218  1.0000
  C   C995      1.0  0.60589  0.25751  0.85924  1.0000
  C   C996      1.0  0.89199  0.24469  0.69545  1.0000
  H   H1675     1.0  0.92575  0.31033  0.57485  1.0000
  S   S287      1.0  0.89331  0.49165  0.69250  1.0000
  H   H1676     1.0  0.75590  0.46050  0.73985  1.0000
  H   H1677     1.0  0.74851  0.27986  0.74856  1.0000
  C   C997      1.0  0.95054  0.35111  0.55643  1.0000
  H   H1678     1.0  0.80011  0.29047  0.69528  1.0000
  C   C998      1.0  0.95454  0.30883  0.79181  1.0000
  H   H1679     1.0  0.79259  0.27560  0.68010  1.0000
  H   H1680     1.0  0.78375  0.24451  0.72375  1.0000
  H   H1681     1.0  0.84992  0.48410  0.49246  1.0000
  H   H1682     1.0  0.62123  0.32927  0.90482  1.0000
  C   C999      1.0  0.94032  0.29267  0.82842  1.0000
  H   H1683     1.0  0.88528  0.44713  0.50587  1.0000
  H   H1684     1.0  0.60253  0.26623  0.87130  1.0000
  H   H1685     1.0  0.96314  0.28141  0.78417  1.0000
  C   C1000     1.0  0.85468  0.47234  0.54001  1.0000
  H   H1686     1.0  0.96793  0.28215  0.85601  1.0000
  H   H1687     1.0  0.82353  0.28290  0.67233  1.0000
  S   S288      1.0  0.66646  0.48981  0.82242  1.0000
  H   H1688     1.0  0.55684  0.36490  0.89312  1.0000
  C   C1001     1.0  0.88588  0.45501  0.51969  1.0000
  C   C1002     1.0  0.83770  0.45854  0.50885  1.0000
  H   H1689     1.0  0.85525  0.26780  0.75362  1.0000
  C   C1003     1.0  0.96808  0.28530  0.83506  1.0000
  H   H1690     1.0  0.83156  0.27932  0.72243  1.0000
  H   H1691     1.0  0.82037  0.46614  0.50398  1.0000
  C   C1004     1.0  0.60581  0.35677  0.91423  1.0000
  H   H1692     1.0  0.97481  0.32227  0.59243  1.0000
  H   H1693     1.0  0.97107  0.35458  0.55138  1.0000
  H   H1694     1.0  0.93903  0.28967  0.76311  1.0000
  H   H1695     1.0  0.60636  0.36071  0.87191  1.0000
  H   H1696     1.0  0.76550  0.48119  0.66697  1.0000
  H   H1697     1.0  0.60656  0.36323  0.93055  1.0000
  H   H1698     1.0  0.90226  0.27655  0.78425  1.0000
  H   H1699     1.0  0.00561  0.47749  0.74352  1.0000
  H   H1700     1.0  0.51123  0.45575  0.87013  1.0000
  C   C1005     1.0  0.57801  0.25235  0.85421  1.0000
  C   C1006     1.0  0.91488  0.46005  0.51623  1.0000
  H   H1701     1.0  0.53658  0.48451  0.81668  1.0000
  H   H1702     1.0  0.99839  0.41151  0.54179  1.0000
  H   H1703     1.0  0.59021  0.25708  0.80773  1.0000
  H   H1704     1.0  0.00577  0.33699  0.60698  1.0000
  H   H1705     1.0  0.52305  0.35165  0.93795  1.0000
  H   H1706     1.0  0.93659  0.36632  0.52656  1.0000
  H   H1707     1.0  0.99481  0.31401  0.77675  1.0000
  H   H1708     1.0  0.93925  0.34960  0.51634  1.0000
  C   C1007     1.0  0.87633  0.48059  0.55040  1.0000
  H   H1709     1.0  0.97148  0.40265  0.62248  1.0000
  H   H1710     1.0  0.99034  0.43564  0.55576  1.0000
  H   H1711     1.0  0.84469  0.24789  0.73054  1.0000
  C   C1008     1.0  0.52780  0.35451  0.91732  1.0000
  H   H1712     1.0  0.52507  0.34585  0.90587  1.0000
  H   H1713     1.0  0.96833  0.42063  0.62424  1.0000
  Fe  Fe143     1.0  0.61185  0.38495  0.98099  1.0000
  H   H1714     1.0  0.89399  0.47385  0.55738  1.0000
  H   H1715     1.0  0.52220  0.36471  0.98200  1.0000
  H   H1716     1.0  0.99161  0.32589  0.51314  1.0000
  C   C1009     1.0  0.51589  0.44835  0.92393  1.0000
  H   H1717     1.0  0.00658  0.32416  0.54420  1.0000
  H   H1718     1.0  0.99418  0.34054  0.52902  1.0000
  C   C1010     1.0  0.99471  0.41370  0.59219  1.0000
  C   C1011     1.0  0.99387  0.34128  0.59022  1.0000
  H   H1719     1.0  0.83589  0.47929  0.53743  1.0000
  H   H1720     1.0  0.92394  0.45799  0.49701  1.0000
  Fe  Fe144     1.0  0.67530  0.49191  0.86353  1.0000
  H   H1721     1.0  0.98667  0.44045  0.59982  1.0000
  H   H1722     1.0  0.61529  0.24348  0.81235  1.0000
  H   H1723     1.0  0.81806  0.24397  0.75340  1.0000
  H   H1724     1.0  0.51585  0.45848  0.91297  1.0000
  H   H1725     1.0  0.51162  0.44974  0.94460  1.0000
  H   H1726     1.0  0.56335  0.24507  0.78144  1.0000
  H   H1727     1.0  0.59823  0.24337  0.77059  1.0000
  Fe  Fe145     1.0  0.61186  0.55735  0.04692  1.0000
  S   S289      1.0  0.57402  0.54618  0.04787  1.0000
  Fe  Fe146     1.0  0.66308  0.55489  0.07764  1.0000
  S   S290      1.0  0.68150  0.57211  0.05371  1.0000
  S   S291      1.0  0.67920  0.54396  0.11411  1.0000
  Fe  Fe147     1.0  0.63961  0.58294  0.05635  1.0000
  S   S292      1.0  0.62456  0.60345  0.07075  1.0000
  S   S293      1.0  0.62245  0.56618  0.08245  1.0000
  S   S294      1.0  0.65091  0.54453  0.04419  1.0000
  Fe  Fe148     1.0  0.92945  0.54667  0.45480  1.0000
  H   H1728     1.0  0.67118  0.72412  0.21558  1.0000
  H   H1729     1.0  0.54700  0.66096  0.11899  1.0000
  Fe  Fe149     1.0  0.88436  0.54715  0.41790  1.0000
  S   S295      1.0  0.85592  0.56079  0.44059  1.0000
  S   S296      1.0  0.87570  0.54006  0.37963  1.0000
  Fe  Fe150     1.0  0.89254  0.57257  0.44403  1.0000
  S   S297      1.0  0.88823  0.59562  0.44305  1.0000
  C   C1012     1.0  0.70927  0.70348  0.21833  1.0000
  S   S298      1.0  0.92010  0.55985  0.41870  1.0000
  S   S299      1.0  0.89601  0.53302  0.45221  1.0000
  Fe  Fe151     1.0  0.62295  0.65573  0.20245  1.0000
  S   S300      1.0  0.62704  0.66554  0.16230  1.0000
  S   S301      1.0  0.58516  0.64396  0.21157  1.0000
  Fe  Fe152     1.0  0.68006  0.66404  0.21596  1.0000
  S   S302      1.0  0.68732  0.67436  0.17638  1.0000
  S   S303      1.0  0.70833  0.66416  0.24971  1.0000
  Fe  Fe153     1.0  0.64367  0.68283  0.18031  1.0000
  S   S304      1.0  0.62316  0.70412  0.17290  1.0000
  Fe  Fe154     1.0  0.66971  0.65590  0.16239  1.0000
  S   S305      1.0  0.68897  0.64377  0.13030  1.0000
  S   S306      1.0  0.63704  0.67350  0.22067  1.0000
  S   S307      1.0  0.66516  0.64509  0.20182  1.0000
  Fe  Fe155     1.0  0.91858  0.67761  0.30813  1.0000
  S   S308      1.0  0.90602  0.66908  0.34784  1.0000
  S   S309      1.0  0.96053  0.68629  0.30341  1.0000
  Fe  Fe156     1.0  0.86036  0.67540  0.28796  1.0000
  S   S310      1.0  0.84479  0.66698  0.32652  1.0000
  S   S311      1.0  0.83277  0.67831  0.25338  1.0000
  Fe  Fe157     1.0  0.86806  0.68301  0.34193  1.0000
  S   S312      1.0  0.84933  0.69535  0.37338  1.0000
  Fe  Fe158     1.0  0.88434  0.65397  0.32826  1.0000
  S   S313      1.0  0.88609  0.63085  0.33490  1.0000
  S   S314      1.0  0.88125  0.69237  0.30334  1.0000
  S   S315      1.0  0.89922  0.66163  0.28854  1.0000
  H   H1730     1.0  0.96191  0.51850  0.40490  1.0000
  H   H1731     1.0  0.76852  0.73858  0.27734  1.0000
  H   H1732     1.0  0.97574  0.65778  0.29427  1.0000
  C   C1013     1.0  0.85132  0.71300  0.37530  1.0000
  C   C1014     1.0  0.86149  0.72173  0.35505  1.0000
  H   H1733     1.0  0.53424  0.51052  0.13301  1.0000
  H   H1734     1.0  0.58406  0.68965  0.14251  1.0000
  C   C1015     1.0  0.84234  0.73232  0.40086  1.0000
  C   C1016     1.0  0.84168  0.71841  0.39806  1.0000
  H   H1735     1.0  0.86873  0.71760  0.33733  1.0000
  H   H1736     1.0  0.62152  0.53737  0.11383  1.0000
  H   H1737     1.0  0.85545  0.74043  0.27034  1.0000
  H   H1738     1.0  0.83366  0.71178  0.41374  1.0000
  C   C1017     1.0  0.64123  0.71890  0.17200  1.0000
  C   C1018     1.0  0.66823  0.71901  0.16257  1.0000
  C   C1019     1.0  0.68173  0.73111  0.16131  1.0000
  C   C1020     1.0  0.62790  0.73092  0.18023  1.0000
  H   H1739     1.0  0.67851  0.70987  0.15576  1.0000
  H   H1740     1.0  0.56465  0.67050  0.22707  1.0000
  C   C1021     1.0  0.65199  0.70472  0.24784  1.0000
  C   C1022     1.0  0.74316  0.66780  0.25002  1.0000
  C   C1023     1.0  0.75874  0.67094  0.22751  1.0000
  C   C1024     1.0  0.78604  0.67416  0.22888  1.0000
  C   C1025     1.0  0.79821  0.67423  0.25271  1.0000
  C   C1026     1.0  0.78260  0.67109  0.27520  1.0000
  C   C1027     1.0  0.75534  0.66785  0.27383  1.0000
  H   H1741     1.0  0.74975  0.67094  0.20903  1.0000
  H   H1742     1.0  0.79786  0.67657  0.21133  1.0000
  H   H1743     1.0  0.79147  0.67126  0.29369  1.0000
  H   H1744     1.0  0.74349  0.66551  0.29139  1.0000
  C   C1028     1.0  0.88757  0.60537  0.41294  1.0000
  C   C1029     1.0  0.88852  0.59911  0.38996  1.0000
  C   C1030     1.0  0.88800  0.60709  0.36627  1.0000
  C   C1031     1.0  0.88657  0.62138  0.36529  1.0000
  C   C1032     1.0  0.88548  0.62767  0.38826  1.0000
  C   C1033     1.0  0.88596  0.61967  0.41200  1.0000
  H   H1745     1.0  0.88967  0.58812  0.39041  1.0000
  H   H1746     1.0  0.88883  0.60215  0.34860  1.0000
  H   H1747     1.0  0.88435  0.63866  0.38773  1.0000
  H   H1748     1.0  0.88522  0.62460  0.42968  1.0000
  C   C1034     1.0  0.86510  0.52346  0.38095  1.0000
  C   C1035     1.0  0.85870  0.51636  0.40450  1.0000
  C   C1036     1.0  0.85277  0.50268  0.40544  1.0000
  H   H1749     1.0  0.53172  0.57529  0.10767  1.0000
  C   C1037     1.0  0.85934  0.50320  0.35922  1.0000
  C   C1038     1.0  0.86473  0.51697  0.35824  1.0000
  H   H1750     1.0  0.85817  0.52140  0.42198  1.0000
  H   H1751     1.0  0.70248  0.73119  0.15364  1.0000
  H   H1752     1.0  0.51793  0.54118  0.05109  1.0000
  H   H1753     1.0  0.86939  0.52249  0.33995  1.0000
  C   C1039     1.0  0.67079  0.63258  0.11397  1.0000
  C   C1040     1.0  0.64294  0.63125  0.11898  1.0000
  C   C1041     1.0  0.62916  0.62227  0.10561  1.0000
  C   C1042     1.0  0.64312  0.61428  0.08756  1.0000
  C   C1043     1.0  0.67107  0.61542  0.08287  1.0000
  C   C1044     1.0  0.68473  0.62465  0.09578  1.0000
  H   H1754     1.0  0.63197  0.63725  0.13294  1.0000
  H   H1755     1.0  0.60754  0.62152  0.10929  1.0000
  H   H1756     1.0  0.68201  0.60946  0.06881  1.0000
  H   H1757     1.0  0.70624  0.62563  0.09173  1.0000
  C   C1045     1.0  0.68002  0.52618  0.11328  1.0000
  C   C1046     1.0  0.67505  0.51780  0.13585  1.0000
  C   C1047     1.0  0.00178  0.57104  0.47663  1.0000
  H   H1758     1.0  0.60578  0.52802  0.00820  1.0000
  C   C1048     1.0  0.68315  0.50629  0.08901  1.0000
  C   C1049     1.0  0.68441  0.52035  0.08994  1.0000
  H   H1759     1.0  0.67188  0.52224  0.15401  1.0000
  C   C1050     1.0  0.61412  0.50226  0.07541  1.0000
  H   H1760     1.0  0.96263  0.56503  0.46743  1.0000
  H   H1761     1.0  0.68920  0.52666  0.07261  1.0000
  H   H1762     1.0  0.60479  0.52388  0.07468  1.0000
  H   H1763     1.0  0.56475  0.68950  0.18992  1.0000
  H   H1764     1.0  0.54769  0.60583  0.05785  1.0000
  H   H1765     1.0  0.93097  0.73100  0.28816  1.0000
  H   H1766     1.0  0.52045  0.61387  0.09709  1.0000
  C   C1051     1.0  0.67353  0.50370  0.13490  1.0000
  C   C1052     1.0  0.52957  0.64544  0.20688  1.0000
  C   C1053     1.0  0.55202  0.65220  0.21346  1.0000
  H   H1767     1.0  0.69179  0.70248  0.20611  1.0000
  C   C1054     1.0  0.96001  0.50178  0.33570  1.0000
  H   H1768     1.0  0.53283  0.63525  0.20079  1.0000
  H   H1769     1.0  0.55749  0.59020  0.07712  1.0000
  H   H1770     1.0  0.64048  0.69742  0.26067  1.0000
  C   C1055     1.0  0.54560  0.55605  0.03611  1.0000
  H   H1771     1.0  0.94924  0.52236  0.36018  1.0000
  S   S316      1.0  0.62550  0.57483  0.02034  1.0000
  H   H1772     1.0  0.00817  0.64010  0.34123  1.0000
  H   H1773     1.0  0.55299  0.65012  0.14695  1.0000
  H   H1774     1.0  0.51442  0.68878  0.17612  1.0000
  C   C1056     1.0  0.93336  0.73219  0.32922  1.0000
  H   H1775     1.0  0.58022  0.65963  0.13269  1.0000
  N   N75       1.0  0.67781  0.58411  0.14985  1.0000
  C   C1057     1.0  0.67837  0.59902  0.15368  1.0000
  C   C1058     1.0  0.65584  0.58259  0.13142  1.0000
  C   C1059     1.0  0.70458  0.57843  0.13866  1.0000
  C   C1060     1.0  0.67239  0.57643  0.17554  1.0000
  C   C1061     1.0  0.70198  0.60299  0.16915  1.0000
  C   C1062     1.0  0.62632  0.58550  0.14167  1.0000
  C   C1063     1.0  0.71493  0.58608  0.11348  1.0000
  C   C1064     1.0  0.66946  0.56099  0.17528  1.0000
  H   H1776     1.0  0.67894  0.60521  0.13495  1.0000
  H   H1777     1.0  0.65932  0.60286  0.16372  1.0000
  H   H1778     1.0  0.65761  0.57230  0.12429  1.0000
  H   H1779     1.0  0.65833  0.58957  0.11374  1.0000
  H   H1780     1.0  0.72091  0.57795  0.15278  1.0000
  H   H1781     1.0  0.70321  0.56766  0.13441  1.0000
  H   H1782     1.0  0.68940  0.57721  0.18844  1.0000
  H   H1783     1.0  0.65438  0.58109  0.18609  1.0000
  H   H1784     1.0  0.72222  0.60033  0.16008  1.0000
  H   H1785     1.0  0.70024  0.61425  0.16976  1.0000
  H   H1786     1.0  0.70099  0.59849  0.18933  1.0000
  H   H1787     1.0  0.62070  0.57794  0.15762  1.0000
  H   H1788     1.0  0.62260  0.59597  0.14767  1.0000
  H   H1789     1.0  0.61228  0.58473  0.12593  1.0000
  H   H1790     1.0  0.70070  0.58589  0.09777  1.0000
  H   H1791     1.0  0.73454  0.58089  0.10706  1.0000
  H   H1792     1.0  0.71883  0.59677  0.11590  1.0000
  H   H1793     1.0  0.68969  0.55520  0.17453  1.0000
  H   H1794     1.0  0.65764  0.55843  0.15916  1.0000
  H   H1795     1.0  0.65776  0.55729  0.19285  1.0000
  H   H1796     1.0  0.56798  0.57253  0.01834  1.0000
  C   C1065     1.0  0.54823  0.56857  0.02175  1.0000
  H   H1797     1.0  0.55684  0.51955  0.07848  1.0000
  H   H1798     1.0  0.60697  0.73093  0.18742  1.0000
  N   N76       1.0  0.81303  0.63122  0.28212  1.0000
  C   C1066     1.0  0.83553  0.64084  0.27867  1.0000
  C   C1067     1.0  0.79712  0.63415  0.30661  1.0000
  C   C1068     1.0  0.79500  0.63409  0.25932  1.0000
  C   C1069     1.0  0.82620  0.61690  0.28324  1.0000
  C   C1070     1.0  0.85162  0.64124  0.25255  1.0000
  C   C1071     1.0  0.81297  0.63152  0.33152  1.0000
  C   C1072     1.0  0.76531  0.63015  0.26292  1.0000
  C   C1073     1.0  0.80744  0.60517  0.28946  1.0000
  H   H1799     1.0  0.82736  0.65145  0.28125  1.0000
  H   H1800     1.0  0.85090  0.63836  0.29358  1.0000
  H   H1801     1.0  0.77901  0.62816  0.30978  1.0000
  H   H1802     1.0  0.78870  0.64497  0.30536  1.0000
  H   H1803     1.0  0.79328  0.64519  0.25307  1.0000
  H   H1804     1.0  0.80420  0.62906  0.24242  1.0000
  H   H1805     1.0  0.83662  0.61491  0.26450  1.0000
  H   H1806     1.0  0.84321  0.61543  0.29681  1.0000
  H   H1807     1.0  0.83858  0.64480  0.23620  1.0000
  H   H1808     1.0  0.86726  0.64873  0.25249  1.0000
  H   H1809     1.0  0.86263  0.63131  0.24924  1.0000
  H   H1810     1.0  0.82214  0.62091  0.33443  1.0000
  H   H1811     1.0  0.82891  0.63874  0.33213  1.0000
  H   H1812     1.0  0.79876  0.63320  0.34823  1.0000
  H   H1813     1.0  0.75315  0.63695  0.27564  1.0000
  H   H1814     1.0  0.76367  0.61941  0.27030  1.0000
  H   H1815     1.0  0.75559  0.63166  0.24402  1.0000
  H   H1816     1.0  0.79880  0.60224  0.27170  1.0000
  H   H1817     1.0  0.79084  0.60736  0.30373  1.0000
  H   H1818     1.0  0.81953  0.59619  0.29851  1.0000
  C   C1074     1.0  0.93622  0.50619  0.31779  1.0000
  C   C1075     1.0  0.51329  0.57265  0.09847  1.0000
  C   C1076     1.0  0.60662  0.53447  0.12952  1.0000
  H   H1819     1.0  0.51945  0.54265  0.98641  1.0000
  H   H1820     1.0  0.91798  0.51497  0.36662  1.0000
  H   H1821     1.0  0.56346  0.70627  0.17299  1.0000
  H   H1822     1.0  0.68859  0.69412  0.26206  1.0000
  H   H1823     1.0  0.63028  0.50424  0.06031  1.0000
  H   H1824     1.0  0.99502  0.58172  0.47671  1.0000
  H   H1825     1.0  0.57406  0.53689  0.10304  1.0000
  Fe  Fe159     1.0  0.87123  0.54786  0.47539  1.0000
  H   H1826     1.0  0.84797  0.49718  0.42371  1.0000
  H   H1827     1.0  0.51638  0.73360  0.15601  1.0000
  H   H1828     1.0  0.65840  0.74186  0.23985  1.0000
  H   H1829     1.0  0.72960  0.69617  0.27955  1.0000
  C   C1077     1.0  0.67739  0.49796  0.11140  1.0000
  C   C1078     1.0  0.59123  0.50489  0.13199  1.0000
  H   H1830     1.0  0.99803  0.55574  0.41836  1.0000
  C   C1079     1.0  0.54920  0.67138  0.15495  1.0000
  C   C1080     1.0  0.64166  0.74291  0.17968  1.0000
  C   C1081     1.0  0.52106  0.67164  0.22280  1.0000
  H   H1831     1.0  0.92507  0.51590  0.32247  1.0000
  H   H1832     1.0  0.53997  0.70250  0.19914  1.0000
  H   H1833     1.0  0.75853  0.70611  0.27706  1.0000
  H   H1834     1.0  0.94455  0.50778  0.29773  1.0000
  H   H1835     1.0  0.56042  0.69286  0.08859  1.0000
  H   H1836     1.0  0.53255  0.66759  0.16800  1.0000
  H   H1837     1.0  0.56623  0.60617  0.08623  1.0000
  S   S317      1.0  0.97009  0.53599  0.46352  1.0000
  H   H1838     1.0  0.83484  0.73629  0.41870  1.0000
  C   C1082     1.0  0.55794  0.66012  0.13705  1.0000
  C   C1083     1.0  0.52516  0.57592  0.01139  1.0000
  C   C1084     1.0  0.52006  0.55091  0.04019  1.0000
  H   H1839     1.0  0.66935  0.49732  0.15229  1.0000
  H   H1840     1.0  0.75174  0.69670  0.25097  1.0000
  H   H1841     1.0  0.79592  0.72802  0.34215  1.0000
  H   H1842     1.0  0.53106  0.74222  0.12796  1.0000
  H   H1843     1.0  0.65218  0.70139  0.22818  1.0000
  H   H1844     1.0  0.64056  0.71484  0.24810  1.0000
  N   N77       1.0  0.94946  0.72765  0.35271  1.0000
  H   H1845     1.0  0.93260  0.50880  0.41346  1.0000
  H   H1846     1.0  0.91225  0.72904  0.33183  1.0000
  C   C1085     1.0  0.95498  0.71239  0.35572  1.0000
  H   H1847     1.0  0.55957  0.50225  0.09049  1.0000
  C   C1086     1.0  0.68792  0.72574  0.22815  1.0000
  C   C1087     1.0  0.80001  0.72311  0.32409  1.0000
  C   C1088     1.0  0.92964  0.70411  0.35687  1.0000
  H   H1848     1.0  0.71529  0.69288  0.22611  1.0000
  H   H1849     1.0  0.52763  0.59778  0.11398  1.0000
  H   H1850     1.0  0.81714  0.72607  0.28602  1.0000
  H   H1851     1.0  0.94106  0.72680  0.39413  1.0000
  C   C1089     1.0  0.93972  0.51374  0.37151  1.0000
  H   H1852     1.0  0.56513  0.52968  0.13440  1.0000
  H   H1853     1.0  0.67122  0.73137  0.26649  1.0000
  H   H1854     1.0  0.97513  0.49582  0.39915  1.0000
  H   H1855     1.0  0.99427  0.54904  0.35391  1.0000
  H   H1856     1.0  0.00518  0.62756  0.36719  1.0000
  C   C1090     1.0  0.00386  0.54098  0.36754  1.0000
  H   H1857     1.0  0.73874  0.72183  0.24222  1.0000
  H   H1858     1.0  0.62747  0.51681  0.09848  1.0000
  C   C1091     1.0  0.58117  0.52922  0.11874  1.0000
  H   H1859     1.0  0.91838  0.70576  0.33888  1.0000
  H   H1860     1.0  0.91565  0.70619  0.37351  1.0000
  C   C1092     1.0  0.56606  0.69199  0.13028  1.0000
  H   H1861     1.0  0.52638  0.68008  0.10674  1.0000
  C   C1093     1.0  0.94501  0.72711  0.30361  1.0000
  H   H1862     1.0  0.99271  0.50479  0.37379  1.0000
  C   C1094     1.0  0.54760  0.66531  0.22154  1.0000
  C   C1095     1.0  0.53241  0.51500  0.11290  1.0000
  C   C1096     1.0  0.55101  0.69820  0.18237  1.0000
  N   N78       1.0  0.95259  0.50017  0.36410  1.0000
  H   H1863     1.0  0.68649  0.50188  0.07084  1.0000
  H   H1864     1.0  0.70262  0.73114  0.21492  1.0000
  H   H1865     1.0  0.58158  0.50836  0.15019  1.0000
  C   C1097     1.0  0.60810  0.51520  0.08960  1.0000
  C   C1098     1.0  0.74189  0.70277  0.26606  1.0000
  H   H1866     1.0  0.67898  0.70918  0.27675  1.0000
  H   H1867     1.0  0.60063  0.54385  0.13922  1.0000
  H   H1868     1.0  0.54780  0.74182  0.15764  1.0000
  H   H1869     1.0  0.83584  0.73271  0.30958  1.0000
  N   N79       1.0  0.54144  0.68549  0.14277  1.0000
  H   H1870     1.0  0.56281  0.53036  0.99197  1.0000
  H   H1871     1.0  0.93640  0.69310  0.35923  1.0000
  H   H1872     1.0  0.51864  0.56281  0.09005  1.0000
  H   H1873     1.0  0.96901  0.70879  0.34002  1.0000
  H   H1874     1.0  0.73626  0.70092  0.18489  1.0000
  N   N80       1.0  0.58482  0.51514  0.10938  1.0000
  C   C1099     1.0  0.51938  0.68551  0.12372  1.0000
  H   H1875     1.0  0.56633  0.67158  0.16795  1.0000
  C   C1100     1.0  0.85246  0.74112  0.38089  1.0000
  C   C1101     1.0  0.54999  0.60105  0.07771  1.0000
  H   H1876     1.0  0.84632  0.58153  0.47977  1.0000
  H   H1877     1.0  0.99205  0.54145  0.38592  1.0000
  C   C1102     1.0  0.73281  0.70816  0.19998  1.0000
  C   C1103     1.0  0.52356  0.60280  0.09447  1.0000
  C   C1104     1.0  0.97633  0.73400  0.34973  1.0000
  C   C1105     1.0  0.99416  0.66285  0.29603  1.0000
  C   C1106     1.0  0.67712  0.73612  0.24730  1.0000
  H   H1878     1.0  0.72809  0.71836  0.18994  1.0000
  H   H1879     1.0  0.78089  0.71975  0.31722  1.0000
  H   H1880     1.0  0.61656  0.52693  0.14380  1.0000
  C   C1107     1.0  0.99238  0.67659  0.30079  1.0000
  C   C1108     1.0  0.93309  0.73207  0.37602  1.0000
  H   H1881     1.0  0.81321  0.71366  0.32893  1.0000
  H   H1882     1.0  0.57849  0.67724  0.10145  1.0000
  H   H1883     1.0  0.71808  0.72148  0.27076  1.0000
  S   S318      1.0  0.90577  0.56052  0.48066  1.0000
  H   H1884     1.0  0.92177  0.49812  0.31779  1.0000
  H   H1885     1.0  0.85961  0.49815  0.34172  1.0000
  H   H1886     1.0  0.56248  0.70331  0.12858  1.0000
  C   C1109     1.0  0.86184  0.73584  0.35777  1.0000
  H   H1887     1.0  0.96506  0.73100  0.29789  1.0000
  H   H1888     1.0  0.51367  0.69614  0.11569  1.0000
  H   H1889     1.0  0.79567  0.58459  0.47249  1.0000
  C   C1110     1.0  0.55903  0.51272  0.09659  1.0000
  H   H1890     1.0  0.94635  0.71585  0.30394  1.0000
  C   C1111     1.0  0.99230  0.54782  0.47102  1.0000
  C   C1112     1.0  0.72484  0.71537  0.25445  1.0000
  H   H1891     1.0  0.96586  0.70915  0.37369  1.0000
  C   C1113     1.0  0.98343  0.56158  0.47151  1.0000
  C   C1114     1.0  0.68096  0.70497  0.25768  1.0000
  C   C1115     1.0  0.57511  0.68831  0.10299  1.0000
  H   H1892     1.0  0.91198  0.72892  0.37597  1.0000
  C   C1116     1.0  0.94091  0.51678  0.39984  1.0000
  H   H1893     1.0  0.75226  0.70801  0.20984  1.0000
  Fe  Fe160     1.0  0.66594  0.56250  0.01989  1.0000
  N   N81       1.0  0.70079  0.71241  0.23971  1.0000
  H   H1894     1.0  0.59486  0.69272  0.09760  1.0000
  C   C1117     1.0  0.97863  0.49652  0.37802  1.0000
  H   H1895     1.0  0.92832  0.52639  0.40264  1.0000
  C   C1118     1.0  0.81484  0.73211  0.30311  1.0000
  H   H1896     1.0  0.86946  0.74259  0.34217  1.0000
  H   H1897     1.0  0.84135  0.60471  0.47772  1.0000
  H   H1898     1.0  0.52606  0.52604  0.11288  1.0000
  H   H1899     1.0  0.76125  0.74098  0.30987  1.0000
  C   C1119     1.0  0.61985  0.52755  0.99106  1.0000
  C   C1120     1.0  0.99535  0.73104  0.37257  1.0000
  H   H1900     1.0  0.59634  0.49939  0.06554  1.0000
  H   H1901     1.0  0.51785  0.68175  0.22930  1.0000
  H   H1902     1.0  0.61350  0.50395  0.13533  1.0000
  H   H1903     1.0  0.51948  0.70375  0.15566  1.0000
  C   C1121     1.0  0.53014  0.69408  0.16389  1.0000
  H   H1904     1.0  0.64060  0.52880  0.99752  1.0000
  H   H1905     1.0  0.00776  0.73987  0.37366  1.0000
  H   H1906     1.0  0.52710  0.58562  0.00034  1.0000
  H   H1907     1.0  0.97568  0.50931  0.33154  1.0000
  H   H1908     1.0  0.51942  0.58290  0.06081  1.0000
  C   C1122     1.0  0.85367  0.49600  0.38288  1.0000
  H   H1909     1.0  0.51570  0.51022  0.10432  1.0000
  H   H1910     1.0  0.00078  0.53115  0.35974  1.0000
  H   H1911     1.0  0.80943  0.56730  0.47397  1.0000
  C   C1123     1.0  0.66864  0.74304  0.17017  1.0000
  H   H1912     1.0  0.98832  0.73031  0.33288  1.0000
  H   H1913     1.0  0.80584  0.60493  0.48374  1.0000
  H   H1914     1.0  0.56742  0.54773  0.99185  1.0000
  H   H1915     1.0  0.98438  0.72975  0.39143  1.0000
  H   H1916     1.0  0.00338  0.56549  0.38768  1.0000
  C   C1124     1.0  0.52756  0.74262  0.14902  1.0000
  H   H1917     1.0  0.62259  0.49368  0.08844  1.0000
  Fe  Fe161     1.0  0.65965  0.52216  0.85962  1.0000
  S   S319      1.0  0.64941  0.52227  0.81798  1.0000
  S   S320      1.0  0.65221  0.54231  0.87765  1.0000
  H   H1918     1.0  0.85780  0.58251  0.53937  1.0000
  S   S321      1.0  0.71657  0.51356  0.77704  1.0000
  H   H1919     1.0  0.60781  0.52866  0.91032  1.0000
  H   H1920     1.0  0.00666  0.54315  0.55514  1.0000
  Fe  Fe162     1.0  0.68864  0.50895  0.81332  1.0000
  H   H1921     1.0  0.57387  0.56577  0.96587  1.0000
  H   H1922     1.0  0.81481  0.56961  0.54287  1.0000
  H   H1923     1.0  0.79334  0.52039  0.71424  1.0000
  H   H1924     1.0  0.61365  0.54884  0.97924  1.0000
  S   S322      1.0  0.84540  0.53957  0.50912  1.0000
  Fe  Fe163     1.0  0.88421  0.52525  0.64922  1.0000
  S   S323      1.0  0.90324  0.52401  0.68785  1.0000
  S   S324      1.0  0.88430  0.54426  0.62167  1.0000
  Fe  Fe164     1.0  0.86834  0.51098  0.70178  1.0000
  S   S325      1.0  0.84384  0.51089  0.74083  1.0000
  H   H1925     1.0  0.54689  0.53688  0.78419  1.0000
  H   H1926     1.0  0.56409  0.54963  0.92620  1.0000
  S   S326      1.0  0.84808  0.51388  0.66387  1.0000
  H   H1927     1.0  0.67271  0.55186  0.80195  1.0000
  C   C1125     1.0  0.85649  0.54091  0.54029  1.0000
  C   C1126     1.0  0.87065  0.55195  0.54581  1.0000
  C   C1127     1.0  0.87822  0.55311  0.57103  1.0000
  C   C1128     1.0  0.87293  0.54290  0.59065  1.0000
  C   C1129     1.0  0.85928  0.53171  0.58506  1.0000
  C   C1130     1.0  0.85062  0.53086  0.56004  1.0000
  H   H1928     1.0  0.87567  0.55962  0.53074  1.0000
  H   H1929     1.0  0.88878  0.56179  0.57529  1.0000
  H   H1930     1.0  0.85505  0.52380  0.60010  1.0000
  H   H1931     1.0  0.83961  0.52231  0.55594  1.0000
  C   C1131     1.0  0.75210  0.51223  0.76738  1.0000
  C   C1132     1.0  0.83164  0.57994  0.49641  1.0000
  C   C1133     1.0  0.78776  0.51648  0.73358  1.0000
  C   C1134     1.0  0.80825  0.51141  0.75032  1.0000
  H   H1932     1.0  0.89830  0.59366  0.52411  1.0000
  C   C1135     1.0  0.75405  0.54480  0.80118  1.0000
  C   C1136     1.0  0.66274  0.54556  0.90830  1.0000
  C   C1137     1.0  0.67939  0.53612  0.92319  1.0000
  C   C1138     1.0  0.68790  0.53939  0.94713  1.0000
  C   C1139     1.0  0.67915  0.55191  0.95675  1.0000
  C   C1140     1.0  0.66218  0.56123  0.94198  1.0000
  C   C1141     1.0  0.65427  0.55811  0.91779  1.0000
  H   H1933     1.0  0.68615  0.52642  0.91609  1.0000
  H   H1934     1.0  0.58178  0.51681  0.96176  1.0000
  H   H1935     1.0  0.65598  0.57105  0.94882  1.0000
  H   H1936     1.0  0.64165  0.56554  0.90629  1.0000
  H   H1937     1.0  0.81589  0.50299  0.78901  1.0000
  S   S327      1.0  0.69984  0.51013  0.85428  1.0000
  H   H1938     1.0  0.56928  0.52336  0.77365  1.0000
  H   H1939     1.0  0.70410  0.57466  0.84024  1.0000
  C   C1142     1.0  0.54724  0.51566  0.83512  1.0000
  H   H1940     1.0  0.56351  0.52204  0.83794  1.0000
  H   H1941     1.0  0.71453  0.53572  0.87438  1.0000
  H   H1942     1.0  0.97006  0.51144  0.61333  1.0000
  H   H1943     1.0  0.98609  0.51742  0.70769  1.0000
  H   H1944     1.0  0.77171  0.53790  0.84898  1.0000
  C   C1143     1.0  0.95589  0.51908  0.57545  1.0000
  C   C1144     1.0  0.92936  0.51658  0.52599  1.0000
  H   H1945     1.0  0.74713  0.55256  0.78564  1.0000
  H   H1946     1.0  0.79379  0.54566  0.78149  1.0000
  H   H1947     1.0  0.60259  0.51137  0.92055  1.0000
  N   N82       1.0  0.58540  0.53868  0.95833  1.0000
  C   C1145     1.0  0.93035  0.52990  0.53913  1.0000
  H   H1948     1.0  0.74574  0.52796  0.88602  1.0000
  H   H1949     1.0  0.92865  0.53821  0.52334  1.0000
  H   H1950     1.0  0.76095  0.56192  0.84167  1.0000
  H   H1951     1.0  0.93275  0.54447  0.57997  1.0000
  H   H1952     1.0  0.69593  0.54488  0.83947  1.0000
  H   H1953     1.0  0.92975  0.55828  0.53763  1.0000
  H   H1954     1.0  0.62670  0.51974  0.93648  1.0000
  C   C1146     1.0  0.94889  0.55732  0.54814  1.0000
  H   H1955     1.0  0.70681  0.56000  0.86338  1.0000
  H   H1956     1.0  0.93131  0.50737  0.53970  1.0000
  H   H1957     1.0  0.52427  0.51520  0.78399  1.0000
  S   S328      1.0  0.97197  0.49801  0.67147  1.0000
  C   C1147     1.0  0.73671  0.53677  0.87373  1.0000
  C   C1148     1.0  0.58262  0.56474  0.94624  1.0000
  H   H1958     1.0  0.96829  0.54559  0.57933  1.0000
  C   C1149     1.0  0.88105  0.59420  0.51104  1.0000
  C   C1150     1.0  0.77561  0.50074  0.67542  1.0000
  C   C1151     1.0  0.00462  0.51342  0.69826  1.0000
  N   N83       1.0  0.95493  0.53092  0.55484  1.0000
  H   H1959     1.0  0.94827  0.56634  0.55943  1.0000
  H   H1960     1.0  0.76707  0.50363  0.80376  1.0000
  H   H1961     1.0  0.79337  0.50662  0.67768  1.0000
  H   H1962     1.0  0.96659  0.55804  0.53435  1.0000
  C   C1152     1.0  0.80499  0.57897  0.55040  1.0000
  H   H1963     1.0  0.52832  0.53602  0.95623  1.0000
  H   H1964     1.0  0.98302  0.52005  0.52935  1.0000
  H   H1965     1.0  0.95364  0.52816  0.61250  1.0000
  C   C1153     1.0  0.55098  0.53017  0.76834  1.0000
  H   H1966     1.0  0.84046  0.57070  0.50757  1.0000
  N   N84       1.0  0.73818  0.54691  0.82613  1.0000
  C   C1154     1.0  0.53407  0.54328  0.96959  1.0000
  H   H1967     1.0  0.69766  0.56411  0.80113  1.0000
  H   H1968     1.0  0.85211  0.60024  0.54084  1.0000
  H   H1969     1.0  0.79490  0.53594  0.81169  1.0000
  H   H1970     1.0  0.81528  0.49440  0.70802  1.0000
  C   C1155     1.0  0.74097  0.56124  0.83295  1.0000
  H   H1971     1.0  0.98804  0.52548  0.59950  1.0000
  H   H1972     1.0  0.97692  0.53758  0.51988  1.0000
  C   C1156     1.0  0.71852  0.56739  0.85121  1.0000
  C   C1157     1.0  0.58251  0.55020  0.93749  1.0000
  H   H1973     1.0  0.55640  0.53628  0.75028  1.0000
  C   C1158     1.0  0.85444  0.59224  0.52708  1.0000
  H   H1974     1.0  0.78364  0.57664  0.55561  1.0000
  H   H1975     1.0  0.70149  0.53224  0.95819  1.0000
  C   C1159     1.0  0.55352  0.50266  0.82688  1.0000
  H   H1976     1.0  0.81536  0.58073  0.56809  1.0000
  H   H1977     1.0  0.74114  0.54605  0.88276  1.0000
  H   H1978     1.0  0.62920  0.53911  0.95526  1.0000
  H   H1979     1.0  0.56985  0.57195  0.93345  1.0000
  S   S329      1.0  0.90833  0.50689  0.63621  1.0000
  C   C1160     1.0  0.97983  0.53021  0.53703  1.0000
  S   S330      1.0  0.63608  0.50401  0.87232  1.0000
  H   H1980     1.0  0.51525  0.53096  0.84379  1.0000
  H   H1981     1.0  0.70820  0.53337  0.81737  1.0000
  Fe  Fe165     1.0  0.92623  0.50489  0.67535  1.0000
  H   H1982     1.0  0.51921  0.54235  0.72823  1.0000
  C   C1161     1.0  0.74986  0.53655  0.84645  1.0000
  H   H1983     1.0  0.96721  0.50991  0.56821  1.0000
  H   H1984     1.0  0.62046  0.51735  0.98376  1.0000
  C   C1162     1.0  0.58329  0.52542  0.94663  1.0000
  H   H1985     1.0  0.94502  0.51586  0.51014  1.0000
  C   C1163     1.0  0.77258  0.50718  0.78418  1.0000
  C   C1164     1.0  0.61253  0.53912  0.97020  1.0000
  H   H1986     1.0  0.93498  0.51590  0.58083  1.0000
  Fe  Fe166     1.0  0.62821  0.50325  0.83055  1.0000
  C   C1165     1.0  0.76001  0.51688  0.74204  1.0000
  C   C1166     1.0  0.56323  0.53992  0.97899  1.0000
  H   H1987     1.0  0.90926  0.51669  0.51711  1.0000
  H   H1988     1.0  0.76006  0.50258  0.69096  1.0000
  H   H1989     1.0  0.88081  0.60425  0.49972  1.0000
  H   H1990     1.0  0.74454  0.52099  0.72889  1.0000
  C   C1167     1.0  0.69493  0.55316  0.80024  1.0000
  C   C1168     1.0  0.52713  0.52127  0.76533  1.0000
  C   C1169     1.0  0.80035  0.50684  0.77572  1.0000
  C   C1170     1.0  0.96781  0.52134  0.60143  1.0000
  C   C1171     1.0  0.00315  0.50434  0.67944  1.0000
  H   H1991     1.0  0.74113  0.56838  0.81519  1.0000
  C   C1172     1.0  0.78523  0.54532  0.80156  1.0000
  C   C1173     1.0  0.95124  0.54430  0.56688  1.0000
  H   H1992     1.0  0.75026  0.53479  0.79439  1.0000
  H   H1993     1.0  0.53468  0.51376  0.75154  1.0000
  H   H1994     1.0  0.91144  0.53100  0.55141  1.0000
  H   H1995     1.0  0.74910  0.52605  0.84041  1.0000
  H   H1996     1.0  0.72809  0.57354  0.86460  1.0000
  H   H1997     1.0  0.70213  0.54997  0.78110  1.0000
  C   C1174     1.0  0.70915  0.54409  0.82197  1.0000
  H   H1998     1.0  0.59952  0.54935  0.92286  1.0000
  H   H1999     1.0  0.60362  0.56811  0.94543  1.0000
  H   H2000     1.0  0.79119  0.55447  0.81005  1.0000
  H   H2001     1.0  0.78541  0.59298  0.52087  1.0000
  H   H2002     1.0  0.80402  0.60054  0.54257  1.0000
  H   H2003     1.0  0.56418  0.52572  0.93602  1.0000
  N   N85       1.0  0.82916  0.59215  0.51199  1.0000
  Fe  Fe167     1.0  0.87426  0.49526  0.65420  1.0000
  H   H2004     1.0  0.88548  0.58607  0.49797  1.0000
  H   H2005     1.0  0.84470  0.61971  0.51462  1.0000
  C   C1175     1.0  0.53198  0.49456  0.82316  1.0000
  C   C1176     1.0  0.80508  0.59168  0.53078  1.0000
  C   C1177     1.0  0.60662  0.52128  0.92753  1.0000
  H   H2006     1.0  0.80790  0.62015  0.51904  1.0000
  H   H2007     1.0  0.76655  0.50500  0.65708  1.0000
  H   H2008     1.0  0.79001  0.57291  0.50080  1.0000
  C   C1178     1.0  0.82540  0.61851  0.50532  1.0000
  C   C1179     1.0  0.00694  0.53282  0.54841  1.0000
  S   S331      1.0  0.58743  0.49679  0.81785  1.0000
  C   C1180     1.0  0.82541  0.60474  0.49356  1.0000
  H   H2009     1.0  0.53131  0.55385  0.96045  1.0000
  C   C1181     1.0  0.51980  0.52070  0.83838  1.0000
  H   H2010     1.0  0.82334  0.62684  0.48961  1.0000
  S   S332      1.0  0.69247  0.55643  0.98540  1.0000
  H   H2011     1.0  0.51442  0.52653  0.71756  1.0000
  C   C1182     1.0  0.80496  0.57618  0.48544  1.0000
  Fe  Fe168     1.0  0.64792  0.80570  0.18403  1.0000
  S   S333      1.0  0.63897  0.80652  0.22651  1.0000
  S   S334      1.0  0.63276  0.82175  0.15288  1.0000
  Fe  Fe169     1.0  0.66806  0.77556  0.19054  1.0000
  S   S335      1.0  0.66038  0.77416  0.23319  1.0000
  S   S336      1.0  0.68688  0.75774  0.16987  1.0000
  Fe  Fe170     1.0  0.62081  0.78647  0.22468  1.0000
  S   S337      1.0  0.58076  0.77953  0.24288  1.0000
  Fe  Fe171     1.0  0.67958  0.79419  0.23132  1.0000
  S   S338      1.0  0.70842  0.79775  0.26289  1.0000
  S   S339      1.0  0.62739  0.78624  0.18215  1.0000
  S   S340      1.0  0.68969  0.79492  0.18879  1.0000
  Fe  Fe172     1.0  0.86893  0.77480  0.35810  1.0000
  S   S341      1.0  0.88735  0.76951  0.32029  1.0000
  Fe  Fe173     1.0  0.87864  0.80515  0.34744  1.0000
  S   S342      1.0  0.89812  0.80152  0.30844  1.0000
  S   S343      1.0  0.87306  0.82767  0.35504  1.0000
  Fe  Fe174     1.0  0.86312  0.78844  0.30449  1.0000
  S   S344      1.0  0.83806  0.78831  0.26877  1.0000
  Fe  Fe175     1.0  0.92017  0.78300  0.32859  1.0000
  S   S345      1.0  0.96398  0.77352  0.32939  1.0000
  S   S346      1.0  0.84275  0.79296  0.34213  1.0000
  S   S347      1.0  0.90258  0.78738  0.36768  1.0000
  Fe  Fe176     1.0  0.66100  0.91408  0.03446  1.0000
  S   S348      1.0  0.61678  0.92072  0.03932  1.0000
  S   S349      1.0  0.68462  0.92701  0.00479  1.0000
  Fe  Fe177     1.0  0.65828  0.89186  0.07958  1.0000
  S   S350      1.0  0.61373  0.89690  0.08727  1.0000
  S   S351      1.0  0.68215  0.87675  0.10707  1.0000
  Fe  Fe178     1.0  0.61128  0.89834  0.04447  1.0000
  S   S352      1.0  0.57781  0.88970  0.02496  1.0000
  Fe  Fe179     1.0  0.62372  0.91878  0.08154  1.0000
  S   S353      1.0  0.60341  0.93382  0.10790  1.0000
  S   S354      1.0  0.65522  0.89163  0.03672  1.0000
  S   S355      1.0  0.66861  0.91376  0.07658  1.0000
  S   S356      1.0  0.84289  0.92128  0.40872  1.0000
  S   S357      1.0  0.89842  0.89506  0.43825  1.0000
  H   H2012     1.0  0.70098  0.78473  0.11032  1.0000
  S   S358      1.0  0.68081  0.96965  0.16171  1.0000
  C   C1183     1.0  0.68110  0.83093  0.07924  1.0000
  H   H2013     1.0  0.72850  0.82780  0.10379  1.0000
  S   S359      1.0  0.83798  0.98501  0.41579  1.0000
  H   H2014     1.0  0.65700  0.81718  0.10191  1.0000
  C   C1184     1.0  0.88054  0.84866  0.42947  1.0000
  C   C1185     1.0  0.52622  0.89902  0.01190  1.0000
  H   H2015     1.0  0.85201  0.75548  0.24882  1.0000
  H   H2016     1.0  0.66550  0.93458  0.17724  1.0000
  C   C1186     1.0  0.84139  0.93905  0.41063  1.0000
  C   C1187     1.0  0.83880  0.94789  0.38822  1.0000
  C   C1188     1.0  0.83768  0.96208  0.38950  1.0000
  C   C1189     1.0  0.83876  0.96743  0.41325  1.0000
  C   C1190     1.0  0.84076  0.95862  0.43564  1.0000
  C   C1191     1.0  0.84242  0.94450  0.43427  1.0000
  H   H2017     1.0  0.83774  0.94379  0.36984  1.0000
  H   H2018     1.0  0.83569  0.96887  0.37215  1.0000
  H   H2019     1.0  0.84152  0.96273  0.45405  1.0000
  H   H2020     1.0  0.84402  0.93793  0.45163  1.0000
  C   C1192     1.0  0.62468  0.94446  0.12159  1.0000
  C   C1193     1.0  0.61368  0.95321  0.13969  1.0000
  C   C1194     1.0  0.63058  0.96131  0.15175  1.0000
  C   C1195     1.0  0.65862  0.96048  0.14595  1.0000
  C   C1196     1.0  0.66952  0.95185  0.12767  1.0000
  C   C1197     1.0  0.65257  0.94398  0.11534  1.0000
  H   H2021     1.0  0.59219  0.95347  0.14482  1.0000
  H   H2022     1.0  0.62211  0.96788  0.16604  1.0000
  H   H2023     1.0  0.69118  0.95128  0.12298  1.0000
  H   H2024     1.0  0.66119  0.93755  0.10104  1.0000
  C   C1198     1.0  0.87634  0.83540  0.38404  1.0000
  C   C1199     1.0  0.87221  0.84967  0.38379  1.0000
  C   C1200     1.0  0.87434  0.85628  0.40634  1.0000
  H   H2025     1.0  0.63182  0.92899  0.17368  1.0000
  C   C1201     1.0  0.88487  0.83441  0.42967  1.0000
  C   C1202     1.0  0.88280  0.82780  0.40711  1.0000
  H   H2026     1.0  0.86723  0.85565  0.36606  1.0000
  H   H2027     1.0  0.64297  0.93189  0.20452  1.0000
  H   H2028     1.0  0.88967  0.82842  0.44745  1.0000
  H   H2029     1.0  0.88598  0.81682  0.40763  1.0000
  C   C1203     1.0  0.64596  0.83749  0.14211  1.0000
  C   C1204     1.0  0.63231  0.84590  0.12293  1.0000
  C   C1205     1.0  0.64289  0.85810  0.11246  1.0000
  C   C1206     1.0  0.66738  0.86194  0.12096  1.0000
  C   C1207     1.0  0.68089  0.85364  0.14041  1.0000
  C   C1208     1.0  0.67014  0.84148  0.15108  1.0000
  H   H2030     1.0  0.61366  0.84284  0.11583  1.0000
  H   H2031     1.0  0.63244  0.86436  0.09738  1.0000
  H   H2032     1.0  0.69986  0.85655  0.14706  1.0000
  H   H2033     1.0  0.68072  0.83510  0.16593  1.0000
  C   C1209     1.0  0.74445  0.79486  0.26397  1.0000
  C   C1210     1.0  0.75692  0.79562  0.28742  1.0000
  C   C1211     1.0  0.78543  0.79355  0.28927  1.0000
  C   C1212     1.0  0.80195  0.79087  0.26755  1.0000
  C   C1213     1.0  0.78950  0.79012  0.24409  1.0000
  C   C1214     1.0  0.76093  0.79203  0.24231  1.0000
  H   H2034     1.0  0.74438  0.79777  0.30431  1.0000
  H   H2035     1.0  0.79455  0.79406  0.30751  1.0000
  H   H2036     1.0  0.80202  0.78804  0.22715  1.0000
  H   H2037     1.0  0.75166  0.79145  0.22413  1.0000
  H   H2038     1.0  0.70119  0.90266  0.11989  1.0000
  Fe  Fe180     1.0  0.85925  0.90793  0.44272  1.0000
  H   H2039     1.0  0.00259  0.91847  0.47122  1.0000
  H   H2040     1.0  0.72504  0.89689  0.14442  1.0000
  C   C1215     1.0  0.54684  0.91106  0.04339  1.0000
  C   C1216     1.0  0.54849  0.90078  0.02658  1.0000
  H   H2041     1.0  0.95270  0.87874  0.46852  1.0000
  H   H2042     1.0  0.56375  0.91232  0.05512  1.0000
  H   H2043     1.0  0.64146  0.79637  0.11024  1.0000
  C   C1217     1.0  0.99365  0.78244  0.32248  1.0000
  H   H2044     1.0  0.97167  0.95761  0.34344  1.0000
  H   H2045     1.0  0.71698  0.89669  0.19299  1.0000
  C   C1218     1.0  0.97370  0.95038  0.36094  1.0000
  C   C1219     1.0  0.74526  0.93759  0.45847  1.0000
  H   H2046     1.0  0.97749  0.79534  0.29056  1.0000
  H   H2047     1.0  0.95827  0.83636  0.41982  1.0000
  C   C1220     1.0  0.54926  0.78893  0.23681  1.0000
  C   C1221     1.0  0.54786  0.80161  0.22252  1.0000
  H   H2048     1.0  0.80385  0.92657  0.45412  1.0000
  H   H2049     1.0  0.56641  0.80599  0.21517  1.0000
  H   H2050     1.0  0.69348  0.88777  0.21441  1.0000
  H   H2051     1.0  0.68846  0.81403  0.13457  1.0000
  H   H2052     1.0  0.93943  0.84443  0.44478  1.0000
  H   H2053     1.0  0.55578  0.97089  0.14507  1.0000
  C   C1222     1.0  0.93669  0.92926  0.41141  1.0000
  H   H2054     1.0  0.95040  0.75141  0.38255  1.0000
  C   C1223     1.0  0.00001  0.90922  0.48357  1.0000
  C   C1224     1.0  0.51075  0.75602  0.15414  1.0000
  C   C1225     1.0  0.00589  0.99049  0.34707  1.0000
  C   C1226     1.0  0.75579  0.75926  0.28503  1.0000
  S   S360      1.0  0.94605  0.91467  0.47682  1.0000
  H   H2055     1.0  0.79095  0.94910  0.46381  1.0000
  H   H2056     1.0  0.51943  0.76419  0.14119  1.0000
  H   H2057     1.0  0.80683  0.76190  0.26443  1.0000
  H   H2058     1.0  0.80808  0.74512  0.25464  1.0000
  H   H2059     1.0  0.80414  0.74823  0.35573  1.0000
  H   H2060     1.0  0.76167  0.76359  0.26545  1.0000
  C   C1227     1.0  0.81427  0.75118  0.27008  1.0000
  H   H2061     1.0  0.94345  0.85335  0.41326  1.0000
  H   H2062     1.0  0.80473  0.76678  0.30677  1.0000
  H   H2063     1.0  0.51965  0.78831  0.17851  1.0000
  H   H2064     1.0  0.95508  0.87491  0.41219  1.0000
  N   N86       1.0  0.51311  0.87237  0.08925  1.0000
  H   H2065     1.0  0.52147  0.92722  0.05922  1.0000
  H   H2066     1.0  0.70841  0.95096  0.45363  1.0000
  C   C1228     1.0  0.95376  0.84629  0.42807  1.0000
  H   H2067     1.0  0.79088  0.90544  0.43864  1.0000
  H   H2068     1.0  0.60564  0.91114  0.98825  1.0000
  H   H2069     1.0  0.63140  0.75204  0.18655  1.0000
  C   C1229     1.0  0.98042  0.85152  0.43635  1.0000
  H   H2070     1.0  0.53343  0.76552  0.21101  1.0000
  C   C1230     1.0  0.95372  0.86828  0.46224  1.0000
  H   H2071     1.0  0.52012  0.85056  0.08633  1.0000
  H   H2072     1.0  0.73303  0.92939  0.45315  1.0000
  H   H2073     1.0  0.62702  0.98874  0.04785  1.0000
  H   H2074     1.0  0.72868  0.81514  0.07238  1.0000
  C   C1231     1.0  0.55801  0.76747  0.17587  1.0000
  C   C1232     1.0  0.52239  0.80876  0.21811  1.0000
  S   S361      1.0  0.83740  0.89142  0.46562  1.0000
  H   H2075     1.0  0.51032  0.95510  0.15211  1.0000
  H   H2076     1.0  0.92143  0.75346  0.36214  1.0000
  C   C1233     1.0  0.84566  0.75094  0.26818  1.0000
  H   H2077     1.0  0.52589  0.77364  0.25751  1.0000
  C   C1234     1.0  0.91148  0.95195  0.33885  1.0000
  C   C1235     1.0  0.79237  0.75496  0.34142  1.0000
  H   H2078     1.0  0.99760  0.89301  0.43028  1.0000
  S   S362      1.0  0.87162  0.91709  0.47729  1.0000
  C   C1236     1.0  0.52204  0.97581  0.17293  1.0000
  H   H2079     1.0  0.95791  0.96702  0.38121  1.0000
  H   H2080     1.0  0.66270  0.83683  0.07149  1.0000
  C   C1237     1.0  0.53599  0.76030  0.19306  1.0000
  H   H2081     1.0  0.85369  0.75721  0.28220  1.0000
  H   H2082     1.0  0.97360  0.74520  0.34491  1.0000
  C   C1238     1.0  0.54347  0.87306  0.08524  1.0000
  H   H2083     1.0  0.79608  0.91423  0.47934  1.0000
  H   H2084     1.0  0.56772  0.77460  0.18726  1.0000
  H   H2085     1.0  0.71443  0.87909  0.19069  1.0000
  H   H2086     1.0  0.93216  0.94892  0.33139  1.0000
  H   H2087     1.0  0.51883  0.96534  0.12366  1.0000
  H   H2088     1.0  0.56523  0.85794  0.11187  1.0000
  H   H2089     1.0  0.89403  0.95449  0.41458  1.0000
  H   H2090     1.0  0.78965  0.76525  0.34859  1.0000
  H   H2091     1.0  0.69810  0.99040  0.11567  1.0000
  C   C1239     1.0  0.64583  0.97312  0.07434  1.0000
  H   H2092     1.0  0.96707  0.95265  0.40161  1.0000
  H   H2093     1.0  0.00168  0.87831  0.46554  1.0000
  H   H2094     1.0  0.57469  0.75995  0.17027  1.0000
  C   C1240     1.0  0.77177  0.74553  0.29238  1.0000
  H   H2095     1.0  0.52753  0.89109  0.99882  1.0000
  H   H2096     1.0  0.72820  0.91281  0.12582  1.0000
  N   N87       1.0  0.67151  0.90622  0.16708  1.0000
  C   C1241     1.0  0.64983  0.90689  0.14751  1.0000
  C   C1242     1.0  0.69531  0.91356  0.15501  1.0000
  C   C1243     1.0  0.66127  0.91300  0.19070  1.0000
  C   C1244     1.0  0.67954  0.89146  0.17491  1.0000
  C   C1245     1.0  0.62221  0.90159  0.15718  1.0000
  C   C1246     1.0  0.71326  0.90591  0.13523  1.0000
  C   C1247     1.0  0.64978  0.92794  0.18588  1.0000
  C   C1248     1.0  0.70231  0.88872  0.19445  1.0000
  H   H2097     1.0  0.64564  0.91747  0.13878  1.0000
  H   H2098     1.0  0.65696  0.90095  0.13112  1.0000
  H   H2099     1.0  0.70893  0.91636  0.16975  1.0000
  H   H2100     1.0  0.68815  0.92351  0.14492  1.0000
  H   H2101     1.0  0.64544  0.90716  0.20162  1.0000
  H   H2102     1.0  0.67791  0.91304  0.20438  1.0000
  H   H2103     1.0  0.66181  0.88629  0.18394  1.0000
  H   H2104     1.0  0.68518  0.88564  0.15796  1.0000
  H   H2105     1.0  0.62389  0.89044  0.16239  1.0000
  H   H2106     1.0  0.61276  0.90702  0.17333  1.0000
  H   H2107     1.0  0.60775  0.90351  0.14138  1.0000
  H   H2108     1.0  0.82977  0.75500  0.31933  1.0000
  H   H2109     1.0  0.52154  0.81868  0.20745  1.0000
  C   C1249     1.0  0.52497  0.78341  0.24632  1.0000
  H   H2110     1.0  0.55429  0.98810  0.15500  1.0000
  C   C1250     1.0  0.91128  0.97389  0.40995  1.0000
  C   C1251     1.0  0.97515  0.87563  0.42070  1.0000
  C   C1252     1.0  0.95631  0.95581  0.38355  1.0000
  H   H2111     1.0  0.55162  0.86606  0.07076  1.0000
  N   N88       1.0  0.76710  0.93210  0.47677  1.0000
  H   H2112     1.0  0.75482  0.94191  0.44006  1.0000
  C   C1253     1.0  0.97718  0.89085  0.42436  1.0000
  H   H2113     1.0  0.77449  0.83292  0.24244  1.0000
  H   H2114     1.0  0.65615  0.78050  0.12426  1.0000
  C   C1254     1.0  0.91134  0.95954  0.36336  1.0000
  H   H2115     1.0  0.80839  0.84617  0.25999  1.0000
  H   H2116     1.0  0.77714  0.84703  0.27753  1.0000
  C   C1255     1.0  0.65991  0.79141  0.11952  1.0000
  H   H2117     1.0  0.66242  0.79579  0.13788  1.0000
  H   H2118     1.0  0.69719  0.83163  0.06380  1.0000
  H   H2119     1.0  0.79409  0.86480  0.29528  1.0000
  H   H2120     1.0  0.92637  0.93179  0.42986  1.0000
  H   H2121     1.0  0.51817  0.98382  0.18647  1.0000
  Fe  Fe181     1.0  0.87784  0.87916  0.46400  1.0000
  C   C1256     1.0  0.93055  0.74751  0.37898  1.0000
  C   C1257     1.0  0.56093  0.86915  0.10884  1.0000
  C   C1258     1.0  0.79544  0.84004  0.27383  1.0000
  C   C1259     1.0  0.78544  0.82846  0.25966  1.0000
  H   H2122     1.0  0.77083  0.82249  0.27179  1.0000
  H   H2123     1.0  0.88942  0.96141  0.36891  1.0000
  H   H2124     1.0  0.74833  0.81562  0.12465  1.0000
  H   H2125     1.0  0.91673  0.74954  0.39583  1.0000
  H   H2126     1.0  0.54892  0.88318  0.07630  1.0000
  H   H2127     1.0  0.66720  0.96863  0.07371  1.0000
  H   H2128     1.0  0.91869  0.96976  0.35754  1.0000
  H   H2129     1.0  0.90122  0.93573  0.38968  1.0000
  H   H2130     1.0  0.99193  0.83377  0.37462  1.0000
  H   H2131     1.0  0.95879  0.93054  0.41186  1.0000
  C   C1260     1.0  0.80452  0.86011  0.31258  1.0000
  H   H2132     1.0  0.83603  0.84449  0.32359  1.0000
  H   H2133     1.0  0.78928  0.85769  0.32823  1.0000
  H   H2134     1.0  0.72358  0.82724  0.13760  1.0000
  H   H2135     1.0  0.90155  0.95887  0.32350  1.0000
  H   H2136     1.0  0.80252  0.82157  0.25272  1.0000
  H   H2137     1.0  0.84720  0.83415  0.25793  1.0000
  H   H2138     1.0  0.96914  0.94010  0.35658  1.0000
  C   C1261     1.0  0.82357  0.84757  0.30655  1.0000
  H   H2139     1.0  0.77051  0.83818  0.31894  1.0000
  S   S363      1.0  0.88368  0.85645  0.45842  1.0000
  C   C1262     1.0  0.70610  0.81017  0.12255  1.0000
  H   H2140     1.0  0.71512  0.80096  0.13389  1.0000
  H   H2141     1.0  0.52872  0.86845  0.03516  1.0000
  C   C1263     1.0  0.99532  0.79226  0.30159  1.0000
  H   H2142     1.0  0.73685  0.78409  0.08133  1.0000
  H   H2143     1.0  0.75018  0.79495  0.10305  1.0000
  S   S364      1.0  0.85206  0.75856  0.38601  1.0000
  N   N89       1.0  0.80975  0.83567  0.29845  1.0000
  H   H2144     1.0  0.81694  0.86793  0.31921  1.0000
  H   H2145     1.0  0.93438  0.91827  0.41006  1.0000
  H   H2146     1.0  0.60766  0.98720  0.12136  1.0000
  C   C1264     1.0  0.85380  0.82694  0.27422  1.0000
  H   H2147     1.0  0.93097  0.97863  0.40728  1.0000
  H   H2148     1.0  0.73373  0.75770  0.28489  1.0000
  H   H2149     1.0  0.55075  0.77356  0.15848  1.0000
  C   C1265     1.0  0.67395  0.81622  0.08725  1.0000
  H   H2150     1.0  0.93438  0.86815  0.45219  1.0000
  C   C1266     1.0  0.78881  0.83084  0.31850  1.0000
  H   H2151     1.0  0.83852  0.85118  0.29133  1.0000
  H   H2152     1.0  0.87150  0.83090  0.28279  1.0000
  H   H2153     1.0  0.86064  0.81729  0.26569  1.0000
  C   C1267     1.0  0.68555  0.79241  0.10163  1.0000
  C   C1268     1.0  0.72779  0.82076  0.12138  1.0000
  H   H2154     1.0  0.99543  0.94931  0.36607  1.0000
  H   H2155     1.0  0.75811  0.76678  0.29910  1.0000
  C   C1269     1.0  0.83110  0.82416  0.29499  1.0000
  H   H2156     1.0  0.78106  0.82115  0.31360  1.0000
  N   N90       1.0  0.69667  0.80631  0.09729  1.0000
  H   H2157     1.0  0.52757  0.89874  0.10009  1.0000
  C   C1270     1.0  0.64396  0.98786  0.06141  1.0000
  C   C1271     1.0  0.55111  0.97728  0.16127  1.0000
  C   C1272     1.0  0.71935  0.80534  0.07701  1.0000
  Fe  Fe182     1.0  0.90901  0.90319  0.47487  1.0000
  H   H2158     1.0  0.87099  0.86724  0.40586  1.0000
  H   H2159     1.0  0.71115  0.80305  0.05848  1.0000
  H   H2160     1.0  0.68061  0.78866  0.08304  1.0000
  C   C1273     1.0  0.91457  0.95822  0.41009  1.0000
  H   H2161     1.0  0.76036  0.79625  0.06966  1.0000
  H   H2162     1.0  0.56608  0.97406  0.17632  1.0000
  H   H2163     1.0  0.84185  0.82134  0.31309  1.0000
  H   H2164     1.0  0.82196  0.81460  0.29151  1.0000
  H   H2165     1.0  0.68643  0.83614  0.09597  1.0000
  H   H2166     1.0  0.80443  0.83753  0.35411  1.0000
  N   N91       1.0  0.92683  0.95263  0.38583  1.0000
  H   H2167     1.0  0.73382  0.95847  0.46937  1.0000
  H   H2168     1.0  0.66501  0.81239  0.07034  1.0000
  H   H2169     1.0  0.63430  0.96659  0.06319  1.0000
  C   C1274     1.0  0.79842  0.82819  0.34631  1.0000
  H   H2170     1.0  0.96148  0.89472  0.43825  1.0000
  C   C1275     1.0  0.92334  0.93753  0.38827  1.0000
  H   H2171     1.0  0.93129  0.93262  0.37096  1.0000
  H   H2172     1.0  0.78135  0.82445  0.35895  1.0000
  H   H2173     1.0  0.77074  0.91999  0.42625  1.0000
  H   H2174     1.0  0.81540  0.82021  0.34815  1.0000
  H   H2175     1.0  0.52148  0.98900  0.12495  1.0000
  H   H2176     1.0  0.99056  0.87294  0.40540  1.0000
  H   H2177     1.0  0.90204  0.97663  0.42874  1.0000
  C   C1276     1.0  0.52282  0.91943  0.04586  1.0000
  H   H2178     1.0  0.92695  0.95454  0.42694  1.0000
  N   N92       1.0  0.80183  0.74620  0.29586  1.0000
  H   H2179     1.0  0.00687  0.75677  0.29343  1.0000
  C   C1277     1.0  0.77514  0.91342  0.44416  1.0000
  H   H2180     1.0  0.89932  0.94291  0.34198  1.0000
  C   C1278     1.0  0.74289  0.79451  0.08345  1.0000
  C   C1279     1.0  0.78652  0.92166  0.46448  1.0000
  H   H2181     1.0  0.55200  0.87314  0.12665  1.0000
  S   S365      1.0  0.87048  0.99071  0.34350  1.0000
  H   H2182     1.0  0.75678  0.90823  0.45109  1.0000
  H   H2183     1.0  0.52459  0.85411  0.13465  1.0000
  H   H2184     1.0  0.00354  0.97993  0.35354  1.0000
  H   H2185     1.0  0.89720  0.97853  0.39517  1.0000
  H   H2186     1.0  0.77160  0.75159  0.34119  1.0000
  Fe  Fe183     1.0  0.66282  0.98720  0.18311  1.0000
  H   H2187     1.0  0.58061  0.87389  0.10561  1.0000
  H   H2188     1.0  0.59476  0.98191  0.09199  1.0000
  N   N93       1.0  0.97819  0.86584  0.44446  1.0000
  H   H2189     1.0  0.00535  0.86086  0.47597  1.0000
  H   H2190     1.0  0.54525  0.74992  0.19913  1.0000
  H   H2191     1.0  0.63751  0.97194  0.09425  1.0000
  C   C1280     1.0  0.78301  0.94391  0.48217  1.0000
  H   H2192     1.0  0.52281  0.96598  0.18517  1.0000
  C   C1281     1.0  0.59723  0.99064  0.10337  1.0000
  H   H2193     1.0  0.93124  0.74351  0.32614  1.0000
  S   S366      1.0  0.64753  0.98684  0.22422  1.0000
  C   C1282     1.0  0.72447  0.94873  0.46797  1.0000
  H   H2194     1.0  0.65142  0.98766  0.11514  1.0000
  H   H2195     1.0  0.99538  0.85058  0.41990  1.0000
  H   H2196     1.0  0.69393  0.98688  0.08321  1.0000
  H   H2197     1.0  0.97366  0.89694  0.40575  1.0000
  H   H2198     1.0  0.98878  0.84407  0.45178  1.0000
  H   H2199     1.0  0.53871  0.92924  0.98709  1.0000
  C   C1283     1.0  0.80779  0.75602  0.31503  1.0000
  H   H2200     1.0  0.66292  0.98876  0.04910  1.0000
  C   C1284     1.0  0.00330  0.86805  0.45838  1.0000
  H   H2201     1.0  0.00792  0.82366  0.40114  1.0000
  S   S367      1.0  0.94960  0.99284  0.34703  1.0000
  H   H2202     1.0  0.69254  0.74350  0.24962  1.0000
  H   H2203     1.0  0.96220  0.84837  0.48535  1.0000
  Fe  Fe184     1.0  0.60297  0.96056  0.82807  1.0000
  S   S368      1.0  0.61770  0.96341  0.86713  1.0000
  S   S369      1.0  0.55736  0.96650  0.82235  1.0000
  Fe  Fe185     1.0  0.66346  0.95532  0.80565  1.0000
  S   S370      1.0  0.68108  0.95764  0.84377  1.0000
  S   S371      1.0  0.68918  0.95270  0.76788  1.0000
  Fe  Fe186     1.0  0.64699  0.94531  0.86080  1.0000
  S   S372      1.0  0.64990  0.92671  0.88949  1.0000
  Fe  Fe187     1.0  0.64999  0.97550  0.84644  1.0000
  S   S373      1.0  0.63082  0.94173  0.82248  1.0000
  S   S374      1.0  0.63387  0.97385  0.80761  1.0000
  Fe  Fe188     1.0  0.90643  0.95498  0.68095  1.0000
  S   S375      1.0  0.89720  0.95226  0.64030  1.0000
  S   S376      1.0  0.94917  0.96127  0.68809  1.0000
  Fe  Fe189     1.0  0.84495  0.95339  0.69899  1.0000
  S   S377      1.0  0.83234  0.95062  0.65900  1.0000
  S   S378      1.0  0.81698  0.95335  0.73579  1.0000
  Fe  Fe190     1.0  0.86989  0.93635  0.65665  1.0000
  S   S379      1.0  0.87320  0.91598  0.63976  1.0000
  Fe  Fe191     1.0  0.86084  0.96686  0.64599  1.0000
  S   S380      1.0  0.88135  0.93787  0.69749  1.0000
  S   S381      1.0  0.87116  0.97072  0.68591  1.0000
  H   H2204     1.0  0.87330  0.96686  0.56955  1.0000
  H   H2205     1.0  0.56674  0.91917  0.92973  1.0000
  H   H2206     1.0  0.93597  0.94396  0.55805  1.0000
  C   C1285     1.0  0.91794  0.94922  0.56719  1.0000
  H   H2207     1.0  0.74821  0.89901  0.73639  1.0000
  C   C1286     1.0  0.99372  0.88520  0.51514  1.0000
  H   H2208     1.0  0.73766  0.96831  0.83077  1.0000
  H   H2209     1.0  0.86720  0.93492  0.53824  1.0000
  S   S382      1.0  0.82464  0.90753  0.53235  1.0000
  C   C1287     1.0  0.53347  0.93241  0.96687  1.0000
  C   C1288     1.0  0.85981  0.91408  0.60968  1.0000
  C   C1289     1.0  0.83673  0.92199  0.60093  1.0000
  C   C1290     1.0  0.82584  0.91972  0.57739  1.0000
  C   C1291     1.0  0.83855  0.90995  0.56199  1.0000
  C   C1292     1.0  0.86186  0.90222  0.57056  1.0000
  C   C1293     1.0  0.87214  0.90412  0.59453  1.0000
  H   H2210     1.0  0.82694  0.92962  0.61255  1.0000
  H   H2211     1.0  0.80761  0.92562  0.57102  1.0000
  H   H2212     1.0  0.87164  0.89456  0.55900  1.0000
  H   H2213     1.0  0.88987  0.89790  0.60125  1.0000
  C   C1294     1.0  0.72485  0.95273  0.75942  1.0000
  C   C1295     1.0  0.73334  0.95453  0.73328  1.0000
  C   C1296     1.0  0.76123  0.95491  0.72565  1.0000
  C   C1297     1.0  0.78124  0.95328  0.74406  1.0000
  C   C1298     1.0  0.77276  0.95141  0.77017  1.0000
  C   C1299     1.0  0.74486  0.95113  0.77780  1.0000
  H   H2214     1.0  0.71814  0.95581  0.71881  1.0000
  H   H2215     1.0  0.76718  0.95662  0.70555  1.0000
  H   H2216     1.0  0.78792  0.95007  0.78467  1.0000
  H   H2217     1.0  0.73886  0.94950  0.79793  1.0000
  C   C1300     1.0  0.66112  0.92692  0.92098  1.0000
  C   C1301     1.0  0.67046  0.93861  0.92974  1.0000
  H   H2218     1.0  0.86784  0.95086  0.58667  1.0000
  H   H2219     1.0  0.00174  0.97098  0.67554  1.0000
  H   H2220     1.0  0.59772  0.92448  0.91586  1.0000
  C   C1302     1.0  0.65949  0.91514  0.93796  1.0000
  H   H2221     1.0  0.67186  0.94772  0.91677  1.0000
  H   H2222     1.0  0.90042  0.91578  0.53423  1.0000
  H   H2223     1.0  0.58210  0.95621  0.91849  1.0000
  H   H2224     1.0  0.65238  0.90605  0.93127  1.0000
  H   H2225     1.0  0.70824  0.97423  0.79525  1.0000
  C   C1303     1.0  0.52664  0.95793  0.82482  1.0000
  H   H2226     1.0  0.92771  0.92497  0.54257  1.0000
  H   H2227     1.0  0.54527  0.93762  0.83216  1.0000
  H   H2228     1.0  0.60188  0.90894  0.95538  1.0000
  C   C1304     1.0  0.52629  0.94378  0.82963  1.0000
  C   C1305     1.0  0.66650  0.91512  0.96372  1.0000
  C   C1306     1.0  0.56197  0.93488  0.89901  1.0000
  H   H2229     1.0  0.91260  0.96772  0.58818  1.0000
  H   H2230     1.0  0.78799  0.90929  0.66248  1.0000
  H   H2231     1.0  0.81685  0.92433  0.75726  1.0000
  C   C1307     1.0  0.98184  0.95241  0.68468  1.0000
  H   H2232     1.0  0.85453  0.88728  0.67463  1.0000
  H   H2233     1.0  0.96869  0.93225  0.69411  1.0000
  C   C1308     1.0  0.67588  0.99181  0.75899  1.0000
  H   H2234     1.0  0.61335  0.94604  0.92103  1.0000
  H   H2235     1.0  0.91486  0.94305  0.58591  1.0000
  H   H2236     1.0  0.82892  0.89678  0.65639  1.0000
  C   C1309     1.0  0.90754  0.92619  0.53385  1.0000
  C   C1310     1.0  0.59488  0.94961  0.93235  1.0000
  C   C1311     1.0  0.84124  0.95690  0.55541  1.0000
  H   H2237     1.0  0.81989  0.88360  0.68115  1.0000
  H   H2238     1.0  0.81396  0.92074  0.66294  1.0000
  H   H2239     1.0  0.83303  0.94677  0.55602  1.0000
  C   C1312     1.0  0.81667  0.91555  0.74543  1.0000
  C   C1313     1.0  0.71585  0.98293  0.80409  1.0000
  H   H2240     1.0  0.78293  0.93810  0.68080  1.0000
  H   H2241     1.0  0.76857  0.93203  0.65389  1.0000
  H   H2242     1.0  0.82390  0.92777  0.70977  1.0000
  C   C1314     1.0  0.92647  0.96324  0.57331  1.0000
  H   H2243     1.0  0.55543  0.94972  0.97000  1.0000
  H   H2244     1.0  0.93460  0.96535  0.51125  1.0000
  C   C1315     1.0  0.59658  0.93026  0.96522  1.0000
  H   H2245     1.0  0.77181  0.92163  0.51473  1.0000
  C   C1316     1.0  0.97396  0.90515  0.49030  1.0000
  H   H2246     1.0  0.75578  0.91592  0.72830  1.0000
  H   H2247     1.0  0.84774  0.90964  0.69070  1.0000
  H   H2248     1.0  0.79308  0.89318  0.72682  1.0000
  H   H2249     1.0  0.78973  0.92781  0.72058  1.0000
  H   H2250     1.0  0.83759  0.91055  0.74550  1.0000
  C   C1317     1.0  0.80826  0.92091  0.71809  1.0000
  C   C1318     1.0  0.92347  0.95604  0.51074  1.0000
  C   C1319     1.0  0.75597  0.90596  0.72027  1.0000
  C   C1320     1.0  0.67578  0.92680  0.97253  1.0000
  H   H2251     1.0  0.82685  0.96317  0.56736  1.0000
  H   H2252     1.0  0.61521  0.96743  0.94022  1.0000
  H   H2253     1.0  0.88289  0.92966  0.56785  1.0000
  C   C1321     1.0  0.83333  0.89198  0.67590  1.0000
  H   H2254     1.0  0.75564  0.92685  0.68534  1.0000
  C   C1322     1.0  0.74210  0.97747  0.81780  1.0000
  C   C1323     1.0  0.89563  0.95756  0.52565  1.0000
  H   H2255     1.0  0.65334  0.98375  0.90375  1.0000
  H   H2256     1.0  0.97734  0.97073  0.73692  1.0000
  C   C1324     1.0  0.98602  0.93827  0.68989  1.0000
  H   H2257     1.0  0.74126  0.90671  0.70466  1.0000
  C   C1325     1.0  0.78433  0.90017  0.71087  1.0000
  H   H2258     1.0  0.75604  0.98622  0.76740  1.0000
  H   H2259     1.0  0.80201  0.90864  0.75516  1.0000
  H   H2260     1.0  0.75879  0.97424  0.80429  1.0000
  C   C1326     1.0  0.86963  0.95613  0.56691  1.0000
  H   H2261     1.0  0.90936  0.92997  0.51330  1.0000
  H   H2262     1.0  0.83828  0.89667  0.71439  1.0000
  H   H2263     1.0  0.72706  0.98118  0.75419  1.0000
  N   N94       1.0  0.57987  0.93761  0.94394  1.0000
  H   H2264     1.0  0.87977  0.95496  0.51277  1.0000
  C   C1327     1.0  0.57715  0.92842  0.92281  1.0000
  Fe  Fe192     1.0  0.85286  0.89990  0.50037  1.0000
  C   C1328     1.0  0.55261  0.94300  0.95454  1.0000
  C   C1329     1.0  0.79593  0.91686  0.67419  1.0000
  H   H2265     1.0  0.95053  0.89030  0.51225  1.0000
  H   H2266     1.0  0.54115  0.93910  0.90403  1.0000
  C   C1330     1.0  0.60443  0.95919  0.95136  1.0000
  H   H2267     1.0  0.68539  0.94753  0.96208  1.0000
  C   C1331     1.0  0.88634  0.93512  0.54858  1.0000
  H   H2268     1.0  0.96187  0.86308  0.50311  1.0000
  H   H2269     1.0  0.92748  0.97056  0.55603  1.0000
  H   H2270     1.0  0.94702  0.96193  0.58145  1.0000
  C   C1332     1.0  0.83167  0.90246  0.69624  1.0000
  C   C1333     1.0  0.97958  0.96233  0.75242  1.0000
  H   H2271     1.0  0.55996  0.92688  0.88574  1.0000
  N   N95       1.0  0.80433  0.91021  0.70009  1.0000
  H   H2272     1.0  0.78036  0.89314  0.69624  1.0000
  C   C1334     1.0  0.77445  0.92907  0.67399  1.0000
  H   H2273     1.0  0.61861  0.93103  0.96059  1.0000
  H   H2274     1.0  0.99137  0.87586  0.52724  1.0000
  H   H2275     1.0  0.93075  0.85718  0.49292  1.0000
  C   C1335     1.0  0.97070  0.89331  0.50658  1.0000
  H   H2276     1.0  0.61926  0.95394  0.96494  1.0000
  H   H2277     1.0  0.70024  0.98532  0.81934  1.0000
  C   C1336     1.0  0.00471  0.96005  0.67959  1.0000
  H   H2278     1.0  0.89152  0.96866  0.52786  1.0000
  H   H2279     1.0  0.57226  0.91245  0.97620  1.0000
  S   S383      1.0  0.89177  0.88641  0.50092  1.0000
  H   H2280     1.0  0.84109  0.96193  0.53560  1.0000
  H   H2281     1.0  0.74410  0.93412  0.51274  1.0000
  N   N96       1.0  0.89293  0.94953  0.55149  1.0000
  H   H2282     1.0  0.67563  0.98106  0.76681  1.0000
  H   H2283     1.0  0.54131  0.94992  0.94006  1.0000
  H   H2284     1.0  0.93703  0.94704  0.51697  1.0000
  H   H2285     1.0  0.57358  0.94279  0.88793  1.0000
  H   H2286     1.0  0.96406  0.95516  0.74911  1.0000
  C   C1337     1.0  0.67805  0.93849  0.95539  1.0000
  H   H2287     1.0  0.59265  0.93519  0.98350  1.0000
  H   H2288     1.0  0.58721  0.96422  0.96213  1.0000
  S   S384      1.0  0.85259  0.98208  0.61185  1.0000
  C   C1338     1.0  0.80727  0.94038  0.49983  1.0000
  H   H2289     1.0  0.97431  0.96626  0.77133  1.0000
  C   C1339     1.0  0.73529  0.99016  0.76164  1.0000
  C   C1340     1.0  0.59347  0.91487  0.97135  1.0000
  C   C1341     1.0  0.75531  0.92607  0.50199  1.0000
  H   H2290     1.0  0.00701  0.94568  0.76610  1.0000
  H   H2291     1.0  0.68549  0.99229  0.73937  1.0000
  H   H2292     1.0  0.53325  0.92329  0.95616  1.0000
  H   H2293     1.0  0.72881  0.91122  0.52017  1.0000
  H   H2294     1.0  0.66490  0.90603  0.97671  1.0000
  H   H2295     1.0  0.91990  0.95521  0.49013  1.0000
  H   H2296     1.0  0.51217  0.93698  0.96679  1.0000
  H   H2297     1.0  0.82100  0.93180  0.49366  1.0000
  C   C1342     1.0  0.73624  0.91462  0.50042  1.0000
  H   H2298     1.0  0.80028  0.93798  0.52010  1.0000
  H   H2299     1.0  0.74926  0.98492  0.83009  1.0000
  H   H2300     1.0  0.74717  0.90560  0.49254  1.0000
  H   H2301     1.0  0.76986  0.95178  0.49169  1.0000
  H   H2302     1.0  0.71802  0.91805  0.48926  1.0000
  C   C1343     1.0  0.95238  0.85868  0.48725  1.0000
  H   H2303     1.0  0.81956  0.94936  0.49940  1.0000
  H   H2304     1.0  0.71404  0.94543  0.48645  1.0000
  C   C1344     1.0  0.00803  0.95458  0.75153  1.0000
