data_image0
_chemical_formula_structural       SFeS2FeS2Fe2S3CFeS2FeS2FeSFeS3HCHC2HC6H4C6H6CH2C5H4C6H5CH2N2C2H4CHCH3CHNHC2H7CHNH2CH3CH3CHCH4CH3NSH2CH3CHCHC2HCHCH3CH2CH2C2H2CHCHCH5CH2NH2CH3CH2CH2C4H2CHCHCHCNC2HCHCH3CH6CH10C2H4CH9CH2SFeS2FeS2FeSFeS3HFeS2FeS2FeSFeS2CH2C2SHC2HC7H4C6H4C6H4C3HCHCHC2H5C2H6CHCH5CHCHN2CHCSCH9CH2C3H7C2HNC2H2CH7NH2CH2C2H3CHCH4C2HC2HSHCHCH5NHCH5CH3CH3C2HNCHCH3C2H3C2H5CH2CHC2H8C2H5SFeS2FeS2FeHFeSCSFeHSFeHSFeCHS3HCH3CH6CHC4H4C7H3C6H4CHC2H2NH3CHC3H5CH7NC2NC3H9C2H2CHCHCH3CH2CH2CHCHCH4S2H2CH3CH3CSH4C2FeHCHCHSH3CH3CH3CHSCH2CH5CFeHCHC2H5SCSHFeSFeNH2SFeS2FeS2FeSFeS4C6H4C6H5CNHCH2C2H4C6H4CHC3FeCH3NHCH2SH5CHCHCH4CH3C4HSCHCH2CH4FeH3SCH3CH3NC7H6C2NCH3C2H2CH2CHC2HCH2NHCH2C2HCH3CH4CH5C2H5SH3CHCHCHC3HSCH7CH2CH6SH2SFeS2FeSFeSC2HSFeS4FeS2FeSFeSFeS4C6H4C6H2CH3C6H4C6H4FeHC3H2CSH2CHCHCHCHCHNC7H17NCNSH5CH2NH9CH5CHC2H7CHC3H5CH3CH12NH4FeH2CNC4H2CH3CH2CH4CH2CH3CSH3C3HCHSHCH3C2H3C3H2SC2H3C2HCH4CH2CH2C2H3CSH2CH2SFeSFeS2FeSFeS5HFeS2HFeS2FeS2FeSCS2HC6H5SC7H4C6H3FeC6H5C3H6CH3CH5SCHC2HCH3CH9C2H4NC4NC3H2SH5CH2CHCH6NC3HCHCH2SH3Fe2H2CHCH9CHCH4CH2SH3NH3C2NCH4CNHCH2FeHCHCHCH4CH11FeSCNC4HCHC2HCFeSHFeS2FeSFeS2FeS2FeS2FeSFeS3CFeS2HS2CH2C6H4C6H5CHCSC6H4C6H4CNH5NC8H11CHCH4CH2CH4C2H3CH2CSNH2CH2FeH4NC8H20FeH3N2HC2H2CH2SCH2C2H4CH2CH2CH2S2H3CHC2H3CHCH2CHCH6CH2FeS2FeS2Fe2S3FeSFeS2FeSFeS3FeS4H7NC3H2C6H5C6H4C6H4C6H8SH2FeH2CH5CH3CSCH3C2NCHCH3C2H2CHCHCHCH2NC2HCH9C2H2C2H3C2HCH2NC4HC3H3C2H4CH2SH4CH3CHCH3C2H2CH2CHCH2NH2C3H2CH3FeSFeH11C2H4CH3CH2CHC2H4SH9CHCH3C2H2FeHSFeS2FeS3HFeS2FeS2FeSFeS3FeS2CFeSH2S2H4CH2C6HFeHCHCH4FeHC3H2NC6H3CH4C7H5CHCSC2HC2HFeH4NC8H13CH6CH3C2HNCH7CSHCH3CHCH3CH5CH2CH3C3H3CHCH5SFeCH3CHCHCHCH9C2HCHCHCH7NSFeS2FeS2FeSFeS3FeS2FeH2FeHS2CH2SHFeS2CHCHFeS3C3H11CH5CSCHCFeHC6H4C2HC6H5CH2CH2CHCH5CH4CHCH2CSHCH4C2H2C3HC2HCH5CH2CFeCH3CH2C2HNH3FeH3C3NH3CH3N2C8H9CH3C2H10C2HCH2CH3FeS2FeHFeS3H2C2SCSFeSFeSFeS2CFeS2FeS2FeSFeS4C6H4C2HCHC8H4CH5C2H3CHC2HCH2C3H4CH3C2H4CSHCH4C2FeNH2CH2NH2C2NH3NC8H9CH11CH2CFeC2HC2H3C2H2CHSHCH2CSCH4C4HC5HNH5C2H4FeHSCHCH3NCH3CH3CH13CH9C2H3CHCH2CH3FeS2FeSCFeS2HFeS2FeS2FeSFeS4CSHSFeSFeSFeSCHCH2C6H4C6H4CSC3HC3H2C2HCH3CSH2C2HC4HNH12C3H2FeCH2CNC8H20NC7H17CH4NH2CH5SHCH5C2HC2HCH2C2H2CH4CHCH2CH5CH
_chemical_formula_sum              "S256 Fe128 C896 H1536 N64"
_cell_length_a       50.9043
_cell_length_b       50.9748
_cell_length_c       28.2405
_cell_angle_alpha    89.723
_cell_angle_beta     89.7535
_cell_angle_gamma    87.9493

_space_group_name_H-M_alt    "P 1"
_space_group_IT_number       1

loop_
  _space_group_symop_operation_xyz
  'x, y, z'

loop_
  _atom_site_type_symbol
  _atom_site_label
  _atom_site_symmetry_multiplicity
  _atom_site_fract_x
  _atom_site_fract_y
  _atom_site_fract_z
  _atom_site_occupancy
  S   S1        1.0  0.03250  0.35469  0.35864  1.0000
  Fe  Fe1       1.0  0.13509  0.07580  0.33309  1.0000
  S   S2        1.0  0.10558  0.08803  0.38987  1.0000
  S   S3        1.0  0.13013  0.03575  0.29685  1.0000
  Fe  Fe2       1.0  0.16362  0.12718  0.34302  1.0000
  S   S4        1.0  0.13604  0.14327  0.39859  1.0000
  S   S5        1.0  0.19653  0.15268  0.31824  1.0000
  Fe  Fe3       1.0  0.13972  0.10336  0.43179  1.0000
  Fe  Fe4       1.0  0.10447  0.12714  0.35333  1.0000
  S   S6        1.0  0.06963  0.15392  0.33526  1.0000
  S   S7        1.0  0.16950  0.08765  0.37836  1.0000
  S   S8        1.0  0.13178  0.11440  0.29449  1.0000
  C   C1        1.0  0.06353  0.03771  0.17911  1.0000
  Fe  Fe5       1.0  0.19845  0.33964  0.21122  1.0000
  S   S9        1.0  0.21305  0.36954  0.26238  1.0000
  S   S10       1.0  0.20114  0.34048  0.13016  1.0000
  Fe  Fe6       1.0  0.17945  0.30432  0.29227  1.0000
  S   S11       1.0  0.19212  0.33166  0.34952  1.0000
  S   S12       1.0  0.15337  0.27032  0.30834  1.0000
  Fe  Fe7       1.0  0.17511  0.36337  0.30182  1.0000
  S   S13       1.0  0.14710  0.39633  0.32549  1.0000
  Fe  Fe8       1.0  0.22919  0.33529  0.30621  1.0000
  S   S14       1.0  0.27214  0.33381  0.33187  1.0000
  S   S15       1.0  0.15980  0.33583  0.24796  1.0000
  S   S16       1.0  0.21740  0.30556  0.25161  1.0000
  H   H1        1.0  0.12256  0.41214  0.23500  1.0000
  C   C2        1.0  0.28594  0.33284  0.39007  1.0000
  H   H2        1.0  0.28396  0.15200  0.34787  1.0000
  C   C3        1.0  0.31349  0.33271  0.39507  1.0000
  C   C4        1.0  0.08311  0.09962  0.20209  1.0000
  H   H3        1.0  0.07294  0.26116  0.42161  1.0000
  C   C5        1.0  0.15392  0.39216  0.02273  1.0000
  C   C6        1.0  0.16858  0.36989  0.00801  1.0000
  C   C7        1.0  0.18274  0.35429  0.04136  1.0000
  C   C8        1.0  0.18221  0.36047  0.08992  1.0000
  C   C9        1.0  0.16735  0.38261  0.10472  1.0000
  C   C10       1.0  0.15345  0.39842  0.07127  1.0000
  H   H4        1.0  0.02062  0.17809  0.31080  1.0000
  H   H5        1.0  0.19424  0.33733  0.02940  1.0000
  H   H6        1.0  0.16704  0.38784  0.14180  1.0000
  H   H7        1.0  0.14243  0.41573  0.08300  1.0000
  C   C11       1.0  0.18496  0.18532  0.31026  1.0000
  C   C12       1.0  0.20262  0.20567  0.30498  1.0000
  C   C13       1.0  0.19322  0.23200  0.30254  1.0000
  C   C14       1.0  0.16617  0.23786  0.30544  1.0000
  C   C15       1.0  0.14865  0.21738  0.30901  1.0000
  C   C16       1.0  0.15797  0.19125  0.31139  1.0000
  H   H8        1.0  0.22353  0.20118  0.30398  1.0000
  H   H9        1.0  0.20686  0.24773  0.29973  1.0000
  H   H10       1.0  0.12775  0.22168  0.31054  1.0000
  H   H11       1.0  0.14418  0.17568  0.31427  1.0000
  H   H12       1.0  0.08797  0.23127  0.36004  1.0000
  H   H13       1.0  0.04904  0.36203  0.16044  1.0000
  C   C17       1.0  0.32541  0.33189  0.44025  1.0000
  H   H14       1.0  0.27302  0.16442  0.04962  1.0000
  H   H15       1.0  0.10646  0.44362  0.23381  1.0000
  C   C18       1.0  0.25487  0.15576  0.21580  1.0000
  C   C19       1.0  0.01661  0.15941  0.32678  1.0000
  C   C20       1.0  0.03743  0.14313  0.34277  1.0000
  C   C21       1.0  0.03213  0.11869  0.36277  1.0000
  C   C22       1.0  0.33481  0.27428  0.14638  1.0000
  H   H16       1.0  0.08911  0.40831  0.12319  1.0000
  H   H17       1.0  0.13119  0.48551  0.33612  1.0000
  H   H18       1.0  0.04809  0.10610  0.37569  1.0000
  H   H19       1.0  0.24430  0.08377  0.26853  1.0000
  C   C23       1.0  0.06423  0.36723  0.35279  1.0000
  C   C24       1.0  0.06831  0.39419  0.34905  1.0000
  C   C25       1.0  0.09393  0.40317  0.34207  1.0000
  C   C26       1.0  0.11543  0.38522  0.33825  1.0000
  C   C27       1.0  0.11131  0.35837  0.34273  1.0000
  C   C28       1.0  0.08586  0.34947  0.35010  1.0000
  H   H20       1.0  0.05174  0.40804  0.35116  1.0000
  H   H21       1.0  0.09703  0.42398  0.33871  1.0000
  H   H22       1.0  0.12776  0.34439  0.34030  1.0000
  H   H23       1.0  0.08302  0.32867  0.35335  1.0000
  H   H24       1.0  0.01525  0.05378  0.27745  1.0000
  C   C29       1.0  0.13479  0.03950  0.19778  1.0000
  H   H25       1.0  0.25532  0.10840  0.30698  1.0000
  H   H26       1.0  0.13836  0.06008  0.20277  1.0000
  N   N1        1.0  0.27857  0.13857  0.22864  1.0000
  N   N2        1.0  0.33356  0.31781  0.19380  1.0000
  C   C30       1.0  0.27050  0.11048  0.23382  1.0000
  C   C31       1.0  0.00665  0.22867  0.35452  1.0000
  H   H27       1.0  0.22024  0.22557  0.44214  1.0000
  H   H28       1.0  0.07616  0.04587  0.15086  1.0000
  H   H29       1.0  0.05509  0.01994  0.16344  1.0000
  H   H30       1.0  0.06609  0.37267  0.08749  1.0000
  C   C32       1.0  0.09351  0.38861  0.13925  1.0000
  H   H31       1.0  0.18265  0.26539  0.47592  1.0000
  C   C33       1.0  0.07242  0.08236  0.24234  1.0000
  H   H32       1.0  0.09968  0.27620  0.39254  1.0000
  H   H33       1.0  0.30579  0.16377  0.26328  1.0000
  H   H34       1.0  0.11585  0.37091  0.21982  1.0000
  C   C34       1.0  0.13893  0.22271  0.43150  1.0000
  H   H35       1.0  0.06801  0.42742  0.19262  1.0000
  N   N3        1.0  0.04453  0.07389  0.23614  1.0000
  H   H36       1.0  0.04127  0.39593  0.16020  1.0000
  C   C35       1.0  0.29243  0.14763  0.27254  1.0000
  C   C36       1.0  0.27043  0.33208  0.43108  1.0000
  H   H37       1.0  0.01551  0.37130  0.21876  1.0000
  H   H38       1.0  0.26963  0.18667  0.16890  1.0000
  H   H39       1.0  0.27921  0.35673  0.23203  1.0000
  H   H40       1.0  0.01973  0.26470  0.28909  1.0000
  H   H41       1.0  0.04819  0.01825  0.26614  1.0000
  H   H42       1.0  0.28754  0.13507  0.15344  1.0000
  H   H43       1.0  0.23964  0.15609  0.24389  1.0000
  C   C37       1.0  0.28983  0.34460  0.20496  1.0000
  H   H44       1.0  0.30549  0.13154  0.28703  1.0000
  N   N4        1.0  0.08019  0.38627  0.18699  1.0000
  H   H45       1.0  0.13513  0.20347  0.41520  1.0000
  H   H46       1.0  0.31744  0.10018  0.18727  1.0000
  C   C38       1.0  0.13454  0.02882  0.15156  1.0000
  H   H47       1.0  0.14797  0.44923  0.38167  1.0000
  H   H48       1.0  0.32574  0.33333  0.36376  1.0000
  H   H49       1.0  0.11039  0.33227  0.17840  1.0000
  C   C39       1.0  0.32224  0.12113  0.19066  1.0000
  H   H50       1.0  0.09272  0.25684  0.31977  1.0000
  H   H51       1.0  0.24159  0.19632  0.20372  1.0000
  H   H52       1.0  0.04428  0.36018  0.24960  1.0000
  C   C40       1.0  0.02736  0.09863  0.23209  1.0000
  H   H53       1.0  0.18058  0.43707  0.38194  1.0000
  C   C41       1.0  0.07914  0.27001  0.38759  1.0000
  H   H54       1.0  0.19445  0.22461  0.40046  1.0000
  H   H55       1.0  0.11810  0.49751  0.00242  1.0000
  H   H56       1.0  0.02374  0.48799  0.43916  1.0000
  H   H57       1.0  0.12093  0.47525  0.41964  1.0000
  C   C42       1.0  0.08109  0.41266  0.21106  1.0000
  H   H58       1.0  0.27618  0.32918  0.19453  1.0000
  H   H59       1.0  0.13788  0.04145  0.12143  1.0000
  H   H60       1.0  0.22467  0.18229  0.41965  1.0000
  N   N5        1.0  0.15678  0.49745  0.42406  1.0000
  S   S17       1.0  0.32564  0.16843  0.08537  1.0000
  H   H61       1.0  0.30984  0.28387  0.20606  1.0000
  H   H62       1.0  0.08886  0.34816  0.11222  1.0000
  C   C43       1.0  0.00602  0.11041  0.36535  1.0000
  H   H63       1.0  0.23105  0.26527  0.98797  1.0000
  H   H64       1.0  0.02252  0.04635  0.19526  1.0000
  H   H65       1.0  0.04290  0.29402  0.24763  1.0000
  C   C44       1.0  0.19300  0.25916  0.44326  1.0000
  H   H66       1.0  0.20853  0.15183  0.42134  1.0000
  C   C45       1.0  0.03593  0.37648  0.22759  1.0000
  H   H67       1.0  0.17079  0.46122  0.33812  1.0000
  C   C46       1.0  0.05530  0.22586  0.28579  1.0000
  C   C47       1.0  0.15534  0.21967  0.47714  1.0000
  H   H68       1.0  0.26881  0.24025  0.01272  1.0000
  C   C48       1.0  0.04089  0.05750  0.19235  1.0000
  H   H69       1.0  0.18663  0.46719  0.44091  1.0000
  C   C49       1.0  0.09469  0.36645  0.21786  1.0000
  H   H70       1.0  0.06697  0.28801  0.38051  1.0000
  H   H71       1.0  0.07426  0.09355  0.27599  1.0000
  H   H72       1.0  0.07599  0.03072  0.20878  1.0000
  C   C50       1.0  0.17722  0.47689  0.40951  1.0000
  H   H73       1.0  0.09031  0.24148  0.24918  1.0000
  H   H74       1.0  0.08808  0.36795  0.25526  1.0000
  C   C51       1.0  0.05149  0.03382  0.29250  1.0000
  H   H75       1.0  0.07331  0.28544  0.27590  1.0000
  H   H76       1.0  0.07356  0.41157  0.24801  1.0000
  C   C52       1.0  0.24878  0.10492  0.27025  1.0000
  C   C53       1.0  0.29756  0.13955  0.18740  1.0000
  H   H77       1.0  0.18181  0.26695  0.41216  1.0000
  H   H78       1.0  0.14817  0.23564  0.40512  1.0000
  C   C54       1.0  0.27496  0.15829  0.31370  1.0000
  H   H79       1.0  0.07556  0.12024  0.20554  1.0000
  C   C55       1.0  0.21124  0.17034  0.44111  1.0000
  H   H80       1.0  0.32174  0.25830  0.13595  1.0000
  C   C56       1.0  0.03607  0.05943  0.28007  1.0000
  H   H81       1.0  0.11921  0.50141  0.46005  1.0000
  H   H82       1.0  0.07517  0.33170  0.18810  1.0000
  H   H83       1.0  0.03715  0.07243  0.31147  1.0000
  H   H84       1.0  0.24925  0.33219  0.42801  1.0000
  H   H85       1.0  0.03429  0.39469  0.24887  1.0000
  C   C57       1.0  0.33009  0.16179  0.98702  1.0000
  H   H86       1.0  0.11525  0.38713  0.14333  1.0000
  H   H87       1.0  0.03215  0.10979  0.19939  1.0000
  N   N6        1.0  0.18381  0.21117  0.47030  1.0000
  H   H88       1.0  0.14935  0.44787  0.47341  1.0000
  H   H89       1.0  0.27457  0.18009  0.31409  1.0000
  C   C58       1.0  0.10847  0.42471  0.21453  1.0000
  H   H90       1.0  0.10486  0.09998  0.20465  1.0000
  H   H91       1.0  0.25462  0.15156  0.31445  1.0000
  H   H92       1.0  0.09974  0.37132  0.06977  1.0000
  C   C59       1.0  0.05236  0.29043  0.28255  1.0000
  H   H93       1.0  0.10296  0.05521  0.98908  1.0000
  H   H94       1.0  0.09659  0.32495  0.23556  1.0000
  C   C60       1.0  0.13067  0.02347  0.23739  1.0000
  H   H95       1.0  0.07251  0.21841  0.21669  1.0000
  H   H96       1.0  0.32476  0.33795  0.12700  1.0000
  C   C61       1.0  0.31871  0.29471  0.17589  1.0000
  C   C62       1.0  0.19866  0.22922  0.43809  1.0000
  C   C63       1.0  0.09406  0.33738  0.20333  1.0000
  C   C64       1.0  0.28613  0.16286  0.01945  1.0000
  H   H97       1.0  0.19206  0.06400  0.00135  1.0000
  H   H98       1.0  0.19392  0.48614  0.39115  1.0000
  C   C65       1.0  0.31538  0.33291  0.22704  1.0000
  H   H99       1.0  0.24480  0.14765  0.18436  1.0000
  C   C66       1.0  0.05160  0.38014  0.18119  1.0000
  H   H100      1.0  0.05130  0.30950  0.30135  1.0000
  C   C67       1.0  0.08639  0.36880  0.10064  1.0000
  H   H101      1.0  0.08651  0.06550  0.24649  1.0000
  C   C68       1.0  0.31350  0.16388  0.02659  1.0000
  N   N7        1.0  0.05195  0.24504  0.32614  1.0000
  C   C69       1.0  0.03632  0.23149  0.36423  1.0000
  C   C70       1.0  0.07865  0.25002  0.34671  1.0000
  H   H102      1.0  0.03697  0.24219  0.39831  1.0000
  C   C71       1.0  0.03705  0.26976  0.31086  1.0000
  H   H103      1.0  0.30962  0.32006  0.25714  1.0000
  C   C72       1.0  0.26049  0.18468  0.20447  1.0000
  H   H104      1.0  0.32509  0.34949  0.24411  1.0000
  H   H105      1.0  0.30513  0.15963  0.18281  1.0000
  H   H106      1.0  0.06579  0.20753  0.29825  1.0000
  C   C73       1.0  0.30989  0.33114  0.48127  1.0000
  H   H107      1.0  0.21191  0.26942  0.44259  1.0000
  H   H108      1.0  0.02839  0.28009  0.34231  1.0000
  H   H109      1.0  0.19917  0.23153  0.99604  1.0000
  H   H110      1.0  0.33363  0.12425  0.22344  1.0000
  H   H111      1.0  0.04503  0.21150  0.37191  1.0000
  H   H112      1.0  0.30197  0.30139  0.15307  1.0000
  C   C74       1.0  0.13278  0.48562  0.44596  1.0000
  H   H113      1.0  0.03818  0.07052  0.16078  1.0000
  H   H114      1.0  0.27315  0.19355  0.23140  1.0000
  H   H115      1.0  0.05882  0.25076  0.22222  1.0000
  H   H116      1.0  0.17515  0.18508  0.41235  1.0000
  H   H117      1.0  0.07842  0.09214  0.16649  1.0000
  H   H118      1.0  0.15003  0.05332  0.00285  1.0000
  H   H119      1.0  0.07275  0.03668  0.29739  1.0000
  H   H120      1.0  0.29372  0.35772  0.17452  1.0000
  H   H121      1.0  0.26369  0.10295  0.19910  1.0000
  H   H122      1.0  0.11697  0.42910  0.17927  1.0000
  C   C75       1.0  0.18404  0.18420  0.44821  1.0000
  C   C76       1.0  0.16835  0.45526  0.37572  1.0000
  H   H123      1.0  0.03112  0.11216  0.26194  1.0000
  H   H124      1.0  0.17076  0.01201  0.01618  1.0000
  H   H125      1.0  0.33536  0.12544  0.16033  1.0000
  H   H126      1.0  0.03600  0.21960  0.27268  1.0000
  C   C77       1.0  0.07017  0.23519  0.24152  1.0000
  H   H127      1.0  0.23038  0.21552  0.00690  1.0000
  H   H128      1.0  0.20950  0.03235  0.00316  1.0000
  H   H129      1.0  0.11369  0.02199  0.99860  1.0000
  H   H130      1.0  0.28751  0.09751  0.24448  1.0000
  H   H131      1.0  0.22053  0.16439  0.47510  1.0000
  H   H132      1.0  0.23006  0.11582  0.26264  1.0000
  H   H133      1.0  0.04413  0.02634  0.32692  1.0000
  H   H134      1.0  0.31577  0.22732  0.00187  1.0000
  H   H135      1.0  0.17181  0.17069  0.46940  1.0000
  C   C78       1.0  0.28234  0.33123  0.47627  1.0000
  H   H136      1.0  0.11941  0.23180  0.44049  1.0000
  H   H137      1.0  0.30814  0.26089  0.98733  1.0000
  S   S18       1.0  0.03291  0.12887  0.81721  1.0000
  Fe  Fe9       1.0  0.18096  0.13964  0.83919  1.0000
  S   S19       1.0  0.16830  0.17190  0.78863  1.0000
  S   S20       1.0  0.15309  0.11001  0.87044  1.0000
  Fe  Fe10      1.0  0.23822  0.15750  0.84387  1.0000
  S   S21       1.0  0.22954  0.19013  0.79119  1.0000
  S   S22       1.0  0.28001  0.15389  0.87510  1.0000
  Fe  Fe11      1.0  0.19281  0.19772  0.83360  1.0000
  S   S23       1.0  0.17876  0.23585  0.86758  1.0000
  Fe  Fe12      1.0  0.20585  0.16114  0.74980  1.0000
  S   S24       1.0  0.20875  0.15967  0.66830  1.0000
  S   S25       1.0  0.20234  0.16639  0.88768  1.0000
  S   S26       1.0  0.21780  0.12767  0.79882  1.0000
  H   H138      1.0  0.05993  0.09816  0.66727  1.0000
  Fe  Fe13      1.0  0.12908  0.43269  0.80367  1.0000
  S   S27       1.0  0.09928  0.42312  0.86037  1.0000
  S   S28       1.0  0.12732  0.47449  0.77214  1.0000
  Fe  Fe14      1.0  0.15694  0.37847  0.81472  1.0000
  S   S29       1.0  0.12900  0.36519  0.87084  1.0000
  S   S30       1.0  0.18916  0.35077  0.78602  1.0000
  Fe  Fe15      1.0  0.09766  0.38390  0.82487  1.0000
  S   S31       1.0  0.06349  0.35834  0.80822  1.0000
  Fe  Fe16      1.0  0.13328  0.40513  0.90216  1.0000
  S   S32       1.0  0.12522  0.39430  0.76585  1.0000
  S   S33       1.0  0.16330  0.41775  0.84851  1.0000
  C   C79       1.0  0.27270  0.32974  0.76707  1.0000
  H   H139      1.0  0.01636  0.41760  0.56133  1.0000
  H   H140      1.0  0.18872  0.12985  0.50683  1.0000
  C   C80       1.0  0.12454  0.48142  0.62699  1.0000
  C   C81       1.0  0.19832  0.23338  0.54818  1.0000
  S   S34       1.0  0.14006  0.10066  0.51333  1.0000
  H   H141      1.0  0.24813  0.27686  0.85465  1.0000
  C   C82       1.0  0.29213  0.15770  0.93405  1.0000
  C   C83       1.0  0.31946  0.15872  0.94123  1.0000
  H   H142      1.0  0.10551  0.03374  0.93960  1.0000
  C   C84       1.0  0.13810  0.46551  0.48615  1.0000
  C   C85       1.0  0.18521  0.26734  0.84557  1.0000
  C   C86       1.0  0.17792  0.28902  0.87360  1.0000
  C   C87       1.0  0.17981  0.31460  0.85591  1.0000
  C   C88       1.0  0.18923  0.31879  0.81010  1.0000
  C   C89       1.0  0.19811  0.29717  0.78295  1.0000
  C   C90       1.0  0.19593  0.27140  0.80053  1.0000
  H   H143      1.0  0.17012  0.28605  0.90887  1.0000
  H   H144      1.0  0.17404  0.33111  0.87789  1.0000
  H   H145      1.0  0.20564  0.30032  0.74758  1.0000
  H   H146      1.0  0.20173  0.25474  0.77876  1.0000
  C   C91       1.0  0.15936  0.11730  0.55587  1.0000
  C   C92       1.0  0.18220  0.13021  0.54327  1.0000
  C   C93       1.0  0.19708  0.14278  0.57814  1.0000
  C   C94       1.0  0.18943  0.14273  0.62618  1.0000
  C   C95       1.0  0.16667  0.12967  0.63888  1.0000
  C   C96       1.0  0.15184  0.11701  0.60399  1.0000
  H   H147      1.0  0.13787  0.02780  0.82952  1.0000
  H   H148      1.0  0.21488  0.15234  0.56797  1.0000
  H   H149      1.0  0.16050  0.12932  0.67557  1.0000
  H   H150      1.0  0.13438  0.10691  0.61435  1.0000
  C   C97       1.0  0.06588  0.12373  0.83431  1.0000
  C   C98       1.0  0.07319  0.10760  0.87262  1.0000
  C   C99       1.0  0.09999  0.10349  0.88373  1.0000
  C   C100      1.0  0.11951  0.11533  0.85642  1.0000
  C   C101      1.0  0.11201  0.13093  0.81766  1.0000
  C   C102      1.0  0.08536  0.13532  0.80694  1.0000
  H   H151      1.0  0.05825  0.09853  0.89383  1.0000
  H   H152      1.0  0.10553  0.09149  0.91391  1.0000
  H   H153      1.0  0.12671  0.13930  0.79531  1.0000
  H   H154      1.0  0.07985  0.14753  0.77688  1.0000
  C   C103      1.0  0.03882  0.03325  0.78023  1.0000
  C   C104      1.0  0.23104  0.25038  0.95914  1.0000
  C   C105      1.0  0.03059  0.36750  0.82130  1.0000
  H   H155      1.0  0.02170  0.02986  0.80369  1.0000
  C   C106      1.0  0.32999  0.35966  0.78281  1.0000
  H   H156      1.0  0.03703  0.40854  0.83218  1.0000
  C   C107      1.0  0.18811  0.04064  0.93614  1.0000
  H   H157      1.0  0.12485  0.46845  0.59683  1.0000
  C   C108      1.0  0.12548  0.48695  0.71280  1.0000
  C   C109      1.0  0.12573  0.47055  0.67316  1.0000
  H   H158      1.0  0.29732  0.21347  0.88753  1.0000
  H   H159      1.0  0.12702  0.44948  0.67805  1.0000
  H   H160      1.0  0.01915  0.03481  0.67488  1.0000
  H   H161      1.0  0.07473  0.05488  0.65629  1.0000
  H   H162      1.0  0.24053  0.23504  0.87235  1.0000
  C   C110      1.0  0.25124  0.28827  0.88732  1.0000
  C   C111      1.0  0.21827  0.22563  0.97935  1.0000
  H   H163      1.0  0.03933  0.36888  0.65822  1.0000
  H   H164      1.0  0.12120  0.30584  0.83747  1.0000
  H   H165      1.0  0.07754  0.23861  0.79714  1.0000
  H   H166      1.0  0.08818  0.04896  0.75996  1.0000
  H   H167      1.0  0.28564  0.29696  0.68158  1.0000
  H   H168      1.0  0.00897  0.08868  0.67502  1.0000
  C   C112      1.0  0.28162  0.22383  0.86701  1.0000
  H   H169      1.0  0.06774  0.02927  0.69656  1.0000
  C   C113      1.0  0.30742  0.29538  0.68126  1.0000
  H   H170      1.0  0.18475  0.05882  0.91460  1.0000
  H   H171      1.0  0.08968  0.21302  0.86646  1.0000
  H   H172      1.0  0.31358  0.27570  0.69520  1.0000
  H   H173      1.0  0.15693  0.47767  0.97992  1.0000
  H   H174      1.0  0.26558  0.34194  0.69583  1.0000
  C   C114      1.0  0.15236  0.01705  0.89964  1.0000
  H   H175      1.0  0.31213  0.36518  0.80354  1.0000
  C   C115      1.0  0.01641  0.39948  0.58339  1.0000
  H   H176      1.0  0.15307  0.23853  0.49608  1.0000
  N   N8        1.0  0.30791  0.34413  0.70552  1.0000
  N   N9        1.0  0.13436  0.50344  0.93227  1.0000
  C   C116      1.0  0.15300  0.48029  0.94139  1.0000
  H   H177      1.0  0.17785  0.48047  0.87680  1.0000
  C   C117      1.0  0.27996  0.34679  0.72387  1.0000
  S   S35       1.0  0.32370  0.33004  0.53947  1.0000
  C   C118      1.0  0.30797  0.35044  0.65320  1.0000
  H   H178      1.0  0.11881  0.29338  0.71821  1.0000
  H   H179      1.0  0.12792  0.05098  0.87375  1.0000
  H   H180      1.0  0.14528  0.20537  0.50045  1.0000
  H   H181      1.0  0.28820  0.27140  0.90972  1.0000
  H   H182      1.0  0.27734  0.21081  0.83682  1.0000
  H   H183      1.0  0.18670  0.19352  0.54000  1.0000
  H   H184      1.0  0.06371  0.29803  0.81057  1.0000
  H   H185      1.0  0.05635  0.03245  0.80338  1.0000
  H   H186      1.0  0.11077  0.06908  0.69038  1.0000
  C   C119      1.0  0.05976  0.04827  0.68213  1.0000
  H   H187      1.0  0.04692  0.27177  0.75313  1.0000
  H   H188      1.0  0.11479  0.24872  0.75297  1.0000
  C   C120      1.0  0.07975  0.29182  0.78576  1.0000
  C   C121      1.0  0.25646  0.22809  0.89676  1.0000
  C   C122      1.0  0.02259  0.39350  0.83084  1.0000
  H   H189      1.0  0.12199  0.08057  0.74606  1.0000
  H   H190      1.0  0.29665  0.37976  0.60033  1.0000
  H   H191      1.0  0.31923  0.31010  0.74885  1.0000
  H   H192      1.0  0.10813  0.23861  0.89139  1.0000
  H   H193      1.0  0.27186  0.30870  0.75761  1.0000
  H   H194      1.0  0.08122  0.48375  0.92054  1.0000
  H   H195      1.0  0.16925  0.36482  0.97086  1.0000
  C   C123      1.0  0.08128  0.06894  0.74850  1.0000
  C   C124      1.0  0.04953  0.09519  0.70158  1.0000
  H   H196      1.0  0.08871  0.31065  0.77553  1.0000
  N   N10       1.0  0.16251  0.02752  0.94568  1.0000
  C   C125      1.0  0.06571  0.28055  0.74233  1.0000
  C   C126      1.0  0.13290  0.28616  0.74557  1.0000
  H   H197      1.0  0.25080  0.20816  0.90837  1.0000
  H   H198      1.0  0.06145  0.29662  0.71644  1.0000
  C   C127      1.0  0.09270  0.29720  0.89058  1.0000
  H   H199      1.0  0.15042  0.27781  0.72662  1.0000
  H   H200      1.0  0.13951  0.30297  0.76659  1.0000
  H   H201      1.0  0.20738  0.22790  0.58279  1.0000
  H   H202      1.0  0.23206  0.29526  0.90218  1.0000
  H   H203      1.0  0.04073  0.02620  0.62734  1.0000
  H   H204      1.0  0.10448  0.30632  0.91874  1.0000
  H   H205      1.0  0.21708  0.25833  0.93210  1.0000
  N   N11       1.0  0.25830  0.24627  0.93856  1.0000
  H   H206      1.0  0.22166  0.05860  0.96844  1.0000
  H   H207      1.0  0.02896  0.41109  0.73459  1.0000
  C   C128      1.0  0.14342  0.04750  0.96701  1.0000
  H   H208      1.0  0.12740  0.27569  0.86719  1.0000
  H   H209      1.0  0.21757  0.20112  0.51441  1.0000
  C   C129      1.0  0.17986  0.48072  0.91587  1.0000
  C   C130      1.0  0.03465  0.06021  0.75585  1.0000
  H   H210      1.0  0.17877  0.24245  0.55651  1.0000
  H   H211      1.0  0.00872  0.38396  0.56034  1.0000
  H   H212      1.0  0.07833  0.31263  0.87837  1.0000
  C   C131      1.0  0.27551  0.15971  0.97363  1.0000
  H   H213      1.0  0.01897  0.12193  0.67368  1.0000
  C   C132      1.0  0.12590  0.50270  0.88129  1.0000
  H   H214      1.0  0.05936  0.39567  0.71811  1.0000
  H   H215      1.0  0.07771  0.26554  0.72308  1.0000
  H   H216      1.0  0.13781  0.25534  0.79696  1.0000
  H   H217      1.0  0.26168  0.30615  0.87668  1.0000
  C   C133      1.0  0.19683  0.20839  0.51806  1.0000
  C   C134      1.0  0.32534  0.36342  0.72934  1.0000
  H   H218      1.0  0.19161  0.49753  0.92677  1.0000
  C   C135      1.0  0.14447  0.03788  0.86192  1.0000
  C   C136      1.0  0.31987  0.31680  0.71147  1.0000
  H   H219      1.0  0.05688  0.11055  0.72569  1.0000
  S   S36       1.0  0.13605  0.41277  0.98197  1.0000
  H   H220      1.0  0.02526  0.36396  0.71482  1.0000
  C   C137      1.0  0.03539  0.04210  0.65277  1.0000
  H   H221      1.0  0.27491  0.36758  0.73325  1.0000
  C   C138      1.0  0.29964  0.37883  0.63931  1.0000
  H   H222      1.0  0.10099  0.10152  0.71150  1.0000
  H   H223      1.0  0.14282  0.06602  0.94587  1.0000
  H   H224      1.0  0.31723  0.38386  0.72547  1.0000
  H   H225      1.0  0.33258  0.15707  0.91107  1.0000
  H   H226      1.0  0.31472  0.23714  0.94125  1.0000
  N   N12       1.0  0.05579  0.06802  0.72137  1.0000
  H   H227      1.0  0.03240  0.07514  0.78442  1.0000
  C   C139      1.0  0.30519  0.24037  0.97603  1.0000
  H   H228      1.0  0.01508  0.05983  0.73881  1.0000
  H   H229      1.0  0.14825  0.47402  0.51674  1.0000
  H   H230      1.0  0.07839  0.08037  0.78166  1.0000
  H   H231      1.0  0.11835  0.48320  0.87167  1.0000
  H   H232      1.0  0.28613  0.33178  0.79732  1.0000
  C   C140      1.0  0.01176  0.34816  0.81946  1.0000
  H   H233      1.0  0.04334  0.41717  0.67661  1.0000
  H   H234      1.0  0.08237  0.28078  0.90733  1.0000
  H   H235      1.0  0.28870  0.24229  0.85152  1.0000
  C   C141      1.0  0.02591  0.37824  0.68491  1.0000
  H   H236      1.0  0.20158  0.02789  0.91436  1.0000
  H   H237      1.0  0.14398  0.46174  0.93035  1.0000
  H   H238      1.0  0.21134  0.24783  0.53164  1.0000
  C   C142      1.0  0.12113  0.26458  0.77685  1.0000
  C   C143      1.0  0.02027  0.10330  0.69424  1.0000
  H   H239      1.0  0.01780  0.32798  0.81246  1.0000
  N   N13       1.0  0.09932  0.27354  0.81010  1.0000
  C   C144      1.0  0.10478  0.08073  0.72191  1.0000
  H   H240      1.0  0.03968  0.01694  0.75439  1.0000
  C   C145      1.0  0.11491  0.03871  0.97353  1.0000
  H   H241      1.0  0.29448  0.33765  0.63362  1.0000
  H   H242      1.0  0.19142  0.46259  0.92562  1.0000
  H   H243      1.0  0.28092  0.38540  0.65642  1.0000
  C   C146      1.0  0.10180  0.23007  0.85744  1.0000
  C   C147      1.0  0.08518  0.24986  0.82753  1.0000
  H   H244      1.0  0.25265  0.33590  0.77950  1.0000
  H   H245      1.0  0.06737  0.25578  0.84844  1.0000
  H   H246      1.0  0.11927  0.22222  0.83780  1.0000
  C   C148      1.0  0.11149  0.28796  0.85051  1.0000
  C   C149      1.0  0.03977  0.40223  0.70431  1.0000
  H   H247      1.0  0.26920  0.28562  0.95618  1.0000
  H   H248      1.0  0.31449  0.29633  0.64400  1.0000
  H   H249      1.0  0.27008  0.33068  0.50760  1.0000
  H   H250      1.0  0.17577  0.50270  0.49224  1.0000
  H   H251      1.0  0.33756  0.33969  0.79226  1.0000
  C   C150      1.0  0.11123  0.50139  0.96557  1.0000
  H   H252      1.0  0.25448  0.15882  0.96897  1.0000
  H   H253      1.0  0.03710  0.39475  0.59317  1.0000
  C   C151      1.0  0.26794  0.27285  0.92436  1.0000
  H   H254      1.0  0.16117  0.05003  0.85138  1.0000
  C   C152      1.0  0.09190  0.47969  0.95409  1.0000
  C   C153      1.0  0.20338  0.04917  0.98025  1.0000
  H   H255      1.0  0.10187  0.46003  0.95241  1.0000
  H   H256      1.0  0.31533  0.39269  0.64734  1.0000
  H   H257      1.0  0.21372  0.21161  0.95094  1.0000
  H   H258      1.0  0.01046  0.10733  0.72875  1.0000
  H   H259      1.0  0.02857  0.05924  0.63137  1.0000
  H   H260      1.0  0.32784  0.34631  0.63772  1.0000
  H   H261      1.0  0.00753  0.32698  0.68737  1.0000
  H   H262      1.0  0.11897  0.45876  0.49980  1.0000
  C   C154      1.0  0.16612  0.00493  0.98001  1.0000
  C   C155      1.0  0.27572  0.23409  0.97678  1.0000
  H   H263      1.0  0.27454  0.21240  0.97670  1.0000
  H   H264      1.0  0.07690  0.47889  0.98268  1.0000
  H   H265      1.0  0.01221  0.01224  0.95834  1.0000
  H   H266      1.0  0.13517  0.00456  0.90595  1.0000
  H   H267      1.0  0.04409  0.59189  0.25064  1.0000
  S   S37       1.0  0.15457  0.58874  0.36787  1.0000
  Fe  Fe17      1.0  0.22326  0.66757  0.04120  1.0000
  S   S38       1.0  0.21145  0.70138  0.08903  1.0000
  S   S39       1.0  0.26603  0.66485  0.01436  1.0000
  Fe  Fe18      1.0  0.16827  0.64467  0.04928  1.0000
  S   S40       1.0  0.15280  0.67732  0.09578  1.0000
  S   S41       1.0  0.14245  0.61074  0.03100  1.0000
  Fe  Fe19      1.0  0.17438  0.70369  0.04652  1.0000
  H   H268      1.0  0.23574  0.79314  0.00175  1.0000
  Fe  Fe20      1.0  0.19082  0.67169  0.13470  1.0000
  S   S42       1.0  0.18950  0.67446  0.21561  1.0000
  C   C156      1.0  0.28610  0.62758  0.12456  1.0000
  S   S43       1.0  0.20565  0.63759  0.09074  1.0000
  Fe  Fe21      1.0  0.13192  0.88800  0.05540  1.0000
  H   H269      1.0  0.03413  0.95584  0.47783  1.0000
  S   S44       1.0  0.14392  0.85303  0.10144  1.0000
  Fe  Fe22      1.0  0.12614  0.94808  0.05334  1.0000
  H   H270      1.0  0.16803  0.55207  0.99234  1.0000
  S   S45       1.0  0.13016  0.98964  0.08456  1.0000
  Fe  Fe23      1.0  0.08651  0.91397  0.00241  1.0000
  C   C157      1.0  0.15875  0.53266  0.99068  1.0000
  H   H271      1.0  0.03414  0.82904  0.15804  1.0000
  S   S46       1.0  0.09929  0.91646  0.07827  1.0000
  S   S47       1.0  0.15992  0.91964  0.03549  1.0000
  S   S48       1.0  0.02539  0.63178  0.09903  1.0000
  H   H272      1.0  0.12297  0.98400  0.25993  1.0000
  C   C158      1.0  0.12602  0.98598  0.18360  1.0000
  H   H273      1.0  0.08273  0.82485  0.99991  1.0000
  H   H274      1.0  0.12273  0.96532  0.17874  1.0000
  H   H275      1.0  0.20002  0.82492  0.99489  1.0000
  C   C159      1.0  0.01991  0.90321  0.01193  1.0000
  H   H276      1.0  0.06993  0.80663  0.17306  1.0000
  H   H277      1.0  0.03524  0.78116  0.14226  1.0000
  H   H278      1.0  0.13716  0.59080  0.19842  1.0000
  H   H279      1.0  0.20034  0.77117  0.47191  1.0000
  H   H280      1.0  0.03859  0.92032  0.07202  1.0000
  H   H281      1.0  0.04639  0.59210  0.18635  1.0000
  C   C160      1.0  0.15290  0.77066  0.03723  1.0000
  H   H282      1.0  0.01721  0.80964  0.05084  1.0000
  C   C161      1.0  0.14040  0.81703  0.02922  1.0000
  C   C162      1.0  0.14774  0.82151  0.07601  1.0000
  C   C163      1.0  0.15760  0.80034  0.10349  1.0000
  C   C164      1.0  0.16035  0.77497  0.08408  1.0000
  H   H283      1.0  0.29039  0.62625  0.08598  1.0000
  H   H284      1.0  0.14802  0.72964  0.43327  1.0000
  H   H285      1.0  0.16326  0.80362  0.13982  1.0000
  H   H286      1.0  0.16822  0.75882  0.10530  1.0000
  C   C165      1.0  0.10866  0.61678  0.04267  1.0000
  C   C166      1.0  0.09159  0.59579  0.04627  1.0000
  C   C167      1.0  0.06519  0.60029  0.06029  1.0000
  C   C168      1.0  0.05597  0.62578  0.07121  1.0000
  C   C169      1.0  0.07279  0.64674  0.06590  1.0000
  C   C170      1.0  0.09884  0.64230  0.05087  1.0000
  C   C171      1.0  0.25059  0.64674  0.26432  1.0000
  H   H287      1.0  0.05238  0.58398  0.06486  1.0000
  H   H288      1.0  0.06578  0.66649  0.07416  1.0000
  H   H289      1.0  0.11132  0.65872  0.04580  1.0000
  C   C172      1.0  0.16324  0.61308  0.32557  1.0000
  C   C173      1.0  0.16144  0.63994  0.33557  1.0000
  C   C174      1.0  0.16940  0.65844  0.30144  1.0000
  C   C175      1.0  0.17855  0.65043  0.25648  1.0000
  C   C176      1.0  0.17986  0.62359  0.24614  1.0000
  C   C177      1.0  0.17252  0.60506  0.28067  1.0000
  H   H290      1.0  0.15448  0.64645  0.36995  1.0000
  H   H291      1.0  0.16849  0.67912  0.31000  1.0000
  H   H292      1.0  0.18709  0.61706  0.21194  1.0000
  H   H293      1.0  0.17411  0.58435  0.27254  1.0000
  C   C178      1.0  0.19220  0.53081  0.44533  1.0000
  H   H294      1.0  0.10788  0.50717  0.36687  1.0000
  C   C179      1.0  0.14275  0.79172  0.01008  1.0000
  C   C180      1.0  0.31062  0.81746  0.45488  1.0000
  H   H295      1.0  0.08837  0.58325  0.25719  1.0000
  H   H296      1.0  0.29910  0.81363  0.42371  1.0000
  N   N14       1.0  0.05067  0.82576  0.08670  1.0000
  H   H297      1.0  0.24077  0.66600  0.27201  1.0000
  H   H298      1.0  0.30767  0.64131  0.21675  1.0000
  H   H299      1.0  0.11376  0.68388  0.19827  1.0000
  C   C181      1.0  0.07846  0.81656  0.09766  1.0000
  H   H300      1.0  0.08140  0.67402  0.18356  1.0000
  C   C182      1.0  0.06069  0.62792  0.22005  1.0000
  C   C183      1.0  0.08296  0.80052  0.14347  1.0000
  C   C184      1.0  0.05389  0.86447  0.14512  1.0000
  H   H301      1.0  0.02663  0.96348  0.02008  1.0000
  H   H302      1.0  0.14190  0.53462  0.39523  1.0000
  H   H303      1.0  0.11039  0.77552  0.44751  1.0000
  H   H304      1.0  0.21420  0.73279  0.98478  1.0000
  H   H305      1.0  0.01830  0.84941  0.11570  1.0000
  C   C185      1.0  0.03808  0.84139  0.12661  1.0000
  H   H306      1.0  0.07349  0.85792  0.15862  1.0000
  H   H307      1.0  0.13288  0.83299  0.00764  1.0000
  H   H308      1.0  0.01212  0.76994  0.10039  1.0000
  H   H309      1.0  0.13186  0.59355  0.13623  1.0000
  H   H310      1.0  0.26591  0.62277  0.20899  1.0000
  H   H311      1.0  0.10984  0.65869  0.15568  1.0000
  H   H312      1.0  0.06430  0.86068  0.05068  1.0000
  N   N15       1.0  0.27382  0.66276  0.18786  1.0000
  C   C186      1.0  0.09841  0.60818  0.17756  1.0000
  C   C187      1.0  0.12832  0.60364  0.17058  1.0000
  N   N16       1.0  0.08979  0.62143  0.22295  1.0000
  C   C188      1.0  0.09608  0.60306  0.26370  1.0000
  C   C189      1.0  0.10399  0.64653  0.23026  1.0000
  C   C190      1.0  0.08629  0.61220  0.31298  1.0000
  H   H313      1.0  0.08657  0.80387  0.06876  1.0000
  H   H314      1.0  0.11767  0.59974  0.26719  1.0000
  H   H315      1.0  0.05607  0.63960  0.18755  1.0000
  H   H316      1.0  0.09649  0.65696  0.26234  1.0000
  H   H317      1.0  0.12519  0.64227  0.23705  1.0000
  H   H318      1.0  0.09147  0.59664  0.33941  1.0000
  H   H319      1.0  0.09616  0.63007  0.32474  1.0000
  H   H320      1.0  0.06467  0.61543  0.31463  1.0000
  H   H321      1.0  0.13886  0.62227  0.16845  1.0000
  C   C191      1.0  0.10190  0.66670  0.18937  1.0000
  C   C192      1.0  0.02110  0.78778  0.11479  1.0000
  H   H322      1.0  0.15475  0.77406  0.44223  1.0000
  H   H323      1.0  0.29521  0.71207  0.17089  1.0000
  C   C193      1.0  0.03112  0.98021  0.99666  1.0000
  H   H324      1.0  0.08113  0.77921  0.13675  1.0000
  C   C194      1.0  0.25673  0.64284  0.21134  1.0000
  H   H325      1.0  0.28936  0.66899  0.11690  1.0000
  C   C195      1.0  0.15794  0.77522  0.48113  1.0000
  H   H326      1.0  0.04554  0.78820  0.05256  1.0000
  H   H327      1.0  0.30455  0.62217  0.14344  1.0000
  H   H328      1.0  0.09194  0.83327  0.09793  1.0000
  C   C196      1.0  0.05156  0.84380  0.04415  1.0000
  H   H329      1.0  0.02191  0.61171  0.21579  1.0000
  H   H330      1.0  0.24477  0.75385  0.04121  1.0000
  C   C197      1.0  0.27592  0.65575  0.13598  1.0000
  H   H331      1.0  0.23752  0.64201  0.19259  1.0000
  H   H332      1.0  0.26484  0.73090  0.17402  1.0000
  C   C198      1.0  0.30112  0.66194  0.20874  1.0000
  H   H333      1.0  0.23991  0.68879  0.17693  1.0000
  C   C199      1.0  0.33760  0.82205  0.44981  1.0000
  H   H334      1.0  0.15361  0.52876  0.47576  1.0000
  C   C200      1.0  0.14915  0.51499  0.38260  1.0000
  H   H335      1.0  0.04500  0.51213  0.46151  1.0000
  H   H336      1.0  0.25566  0.72149  0.02555  1.0000
  H   H337      1.0  0.20516  0.77768  0.00788  1.0000
  H   H338      1.0  0.26841  0.64351  0.28630  1.0000
  S   S49       1.0  0.15674  0.73972  0.01012  1.0000
  S   S50       1.0  0.10294  0.56452  0.45365  1.0000
  H   H339      1.0  0.27086  0.70989  0.12461  1.0000
  H   H340      1.0  0.27193  0.74831  0.99988  1.0000
  C   C201      1.0  0.06177  0.83135  0.99751  1.0000
  H   H341      1.0  0.27092  0.61299  0.13202  1.0000
  H   H342      1.0  0.05617  0.88003  0.11814  1.0000
  H   H343      1.0  0.09899  0.57600  0.03967  1.0000
  C   C202      1.0  0.27389  0.71165  0.16338  1.0000
  H   H344      1.0  0.03159  0.85237  0.03671  1.0000
  H   H345      1.0  0.08969  0.58858  0.17443  1.0000
  H   H346      1.0  0.16660  0.51894  0.36007  1.0000
  C   C203      1.0  0.12618  0.99668  0.22977  1.0000
  S   S51       1.0  0.03588  0.60544  0.44736  1.0000
  H   H347      1.0  0.25764  0.69637  0.22757  1.0000
  H   H348      1.0  0.11252  0.73025  0.43915  1.0000
  H   H349      1.0  0.12635  0.51890  0.31796  1.0000
  H   H350      1.0  0.04648  0.99159  0.01429  1.0000
  C   C204      1.0  0.03395  0.80292  0.07383  1.0000
  C   C205      1.0  0.26032  0.68956  0.19069  1.0000
  Fe  Fe24      1.0  0.13326  0.59465  0.43904  1.0000
  H   H351      1.0  0.31990  0.66780  0.27687  1.0000
  C   C206      1.0  0.02117  0.91122  0.05910  1.0000
  H   H352      1.0  0.09095  0.61943  0.14642  1.0000
  C   C207      1.0  0.04265  0.60425  0.21831  1.0000
  H   H353      1.0  0.05403  0.64068  0.24997  1.0000
  S   S52       1.0  0.18708  0.67141  0.99638  1.0000
  H   H354      1.0  0.28766  0.68222  0.27597  1.0000
  H   H355      1.0  0.23658  0.63169  0.27570  1.0000
  H   H356      1.0  0.25652  0.65863  0.11829  1.0000
  C   C208      1.0  0.13137  0.72435  0.45640  1.0000
  H   H357      1.0  0.04301  0.87377  0.17521  1.0000
  H   H358      1.0  0.18697  0.54470  0.41624  1.0000
  H   H359      1.0  0.18864  0.96897  0.99545  1.0000
  C   C209      1.0  0.30531  0.67838  0.25390  1.0000
  H   H360      1.0  0.08794  0.81456  0.47509  1.0000
  H   H361      1.0  0.10319  0.80377  0.15643  1.0000
  H   H362      1.0  0.14321  0.53284  0.01832  1.0000
  C   C210      1.0  0.25242  0.74168  0.01138  1.0000
  H   H363      1.0  0.13192  0.70257  0.45947  1.0000
  S   S53       1.0  0.10583  0.62858  0.45697  1.0000
  C   C211      1.0  0.02652  0.50942  0.44157  1.0000
  H   H364      1.0  0.31546  0.66921  0.18221  1.0000
  H   H365      1.0  0.00887  0.54446  0.47241  1.0000
  C   C212      1.0  0.16870  0.51452  0.46137  1.0000
  H   H366      1.0  0.31436  0.69728  0.24477  1.0000
  H   H367      1.0  0.02954  0.51771  0.40568  1.0000
  H   H368      1.0  0.17420  0.51753  0.99924  1.0000
  H   H369      1.0  0.20945  0.51821  0.43504  1.0000
  H   H370      1.0  0.01987  0.98755  0.46558  1.0000
  C   C213      1.0  0.13028  0.00195  0.14402  1.0000
  Fe  Fe25      1.0  0.07673  0.59830  0.47615  1.0000
  H   H371      1.0  0.19842  0.54294  0.47560  1.0000
  C   C214      1.0  0.01555  0.96791  0.48000  1.0000
  H   H372      1.0  0.18528  0.74037  0.47939  1.0000
  C   C215      1.0  0.12745  0.50567  0.34933  1.0000
  C   C216      1.0  0.00673  0.99832  0.98704  1.0000
  H   H373      1.0  0.14750  0.99443  0.98439  1.0000
  H   H374      1.0  0.04974  0.81488  0.98587  1.0000
  H   H375      1.0  0.00764  0.56108  0.39802  1.0000
  H   H376      1.0  0.00983  0.52545  0.90775  1.0000
  H   H377      1.0  0.09498  0.76780  0.57574  1.0000
  S   S54       1.0  0.15002  0.59085  0.51317  1.0000
  C   C217      1.0  0.30739  0.66757  0.95081  1.0000
  S   S55       1.0  0.08836  0.59484  0.55232  1.0000
  H   H378      1.0  0.13701  0.78851  0.97377  1.0000
  Fe  Fe26      1.0  0.11980  0.62288  0.53181  1.0000
  S   S56       1.0  0.12081  0.65836  0.57985  1.0000
  Fe  Fe27      1.0  0.11738  0.56307  0.52921  1.0000
  N   N17       1.0  0.10205  0.88985  0.76676  1.0000
  H   H379      1.0  0.08124  0.82590  0.78732  1.0000
  H   H380      1.0  0.02988  0.62388  0.67283  1.0000
  S   S57       1.0  0.16420  0.91736  0.89160  1.0000
  Fe  Fe28      1.0  0.25452  0.81730  0.61428  1.0000
  S   S58       1.0  0.24795  0.78594  0.66914  1.0000
  S   S59       1.0  0.29783  0.82498  0.59784  1.0000
  Fe  Fe29      1.0  0.19486  0.82581  0.60091  1.0000
  S   S60       1.0  0.18479  0.79416  0.65270  1.0000
  S   S61       1.0  0.16290  0.84796  0.55981  1.0000
  Fe  Fe30      1.0  0.21534  0.81251  0.69825  1.0000
  S   S62       1.0  0.20716  0.81610  0.77776  1.0000
  Fe  Fe31      1.0  0.21801  0.77099  0.61887  1.0000
  S   S63       1.0  0.22064  0.72867  0.59453  1.0000
  S   S64       1.0  0.22417  0.84528  0.64773  1.0000
  S   S65       1.0  0.22589  0.80118  0.56296  1.0000
  S   S66       1.0  0.04636  0.85180  0.64085  1.0000
  C   C218      1.0  0.13075  0.85024  0.58355  1.0000
  C   C219      1.0  0.11085  0.86439  0.55903  1.0000
  C   C220      1.0  0.08474  0.86506  0.57593  1.0000
  C   C221      1.0  0.07847  0.85143  0.61733  1.0000
  C   C222      1.0  0.09838  0.83743  0.64183  1.0000
  C   C223      1.0  0.12442  0.83710  0.62536  1.0000
  H   H381      1.0  0.09218  0.76714  0.49807  1.0000
  H   H382      1.0  0.06953  0.87599  0.55687  1.0000
  H   H383      1.0  0.09366  0.82676  0.67377  1.0000
  H   H384      1.0  0.13951  0.82646  0.64490  1.0000
  C   C224      1.0  0.17579  0.88894  0.86023  1.0000
  C   C225      1.0  0.18816  0.89193  0.81594  1.0000
  C   C226      1.0  0.19714  0.86989  0.78952  1.0000
  C   C227      1.0  0.19413  0.84451  0.80741  1.0000
  C   C228      1.0  0.18155  0.84153  0.85147  1.0000
  C   C229      1.0  0.17238  0.86353  0.87771  1.0000
  H   H385      1.0  0.19102  0.91145  0.80211  1.0000
  H   H386      1.0  0.20691  0.87257  0.75584  1.0000
  H   H387      1.0  0.17879  0.82205  0.86534  1.0000
  H   H388      1.0  0.16281  0.86083  0.91157  1.0000
  H   H389      1.0  0.05840  0.90216  0.69154  1.0000
  C   C230      1.0  0.10997  0.89677  0.81647  1.0000
  N   N18       1.0  0.22692  0.76657  0.94456  1.0000
  H   H390      1.0  0.12146  0.54628  0.65438  1.0000
  C   C231      1.0  0.27820  0.84440  0.76007  1.0000
  H   H391      1.0  0.03183  0.63578  0.56566  1.0000
  H   H392      1.0  0.12365  0.52728  0.73564  1.0000
  C   C232      1.0  0.03816  0.62233  0.63653  1.0000
  C   C233      1.0  0.18706  0.98363  0.96626  1.0000
  H   H393      1.0  0.16317  0.53233  0.91434  1.0000
  H   H394      1.0  0.15518  0.76370  0.57525  1.0000
  H   H395      1.0  0.03029  0.57745  0.53627  1.0000
  H   H396      1.0  0.06876  0.91743  0.76537  1.0000
  C   C234      1.0  0.14895  0.67731  0.58400  1.0000
  C   C235      1.0  0.14865  0.69860  0.61535  1.0000
  C   C236      1.0  0.17039  0.71475  0.61851  1.0000
  C   C237      1.0  0.19267  0.70946  0.59064  1.0000
  C   C238      1.0  0.19315  0.68791  0.55981  1.0000
  C   C239      1.0  0.17127  0.67197  0.55620  1.0000
  H   H397      1.0  0.13157  0.70250  0.63749  1.0000
  H   H398      1.0  0.17008  0.73100  0.64306  1.0000
  H   H399      1.0  0.21041  0.68365  0.53832  1.0000
  H   H400      1.0  0.17166  0.65556  0.53201  1.0000
  C   C240      1.0  0.13737  0.77338  0.55949  1.0000
  H   H401      1.0  0.09935  0.81050  0.53429  1.0000
  C   C241      1.0  0.12673  0.88281  0.73905  1.0000
  C   C242      1.0  0.21072  0.74207  0.87088  1.0000
  C   C243      1.0  0.30396  0.67786  0.86644  1.0000
  Fe  Fe32      1.0  0.01146  0.87210  0.60468  1.0000
  C   C244      1.0  0.27646  0.68042  0.87240  1.0000
  H   H402      1.0  0.26426  0.68528  0.84212  1.0000
  H   H403      1.0  0.28770  0.78356  0.74636  1.0000
  H   H404      1.0  0.12145  0.91493  0.81645  1.0000
  N   N19       1.0  0.32559  0.82434  0.74835  1.0000
  H   H405      1.0  0.23013  0.80143  0.86936  1.0000
  C   C245      1.0  0.12302  0.50882  0.61958  1.0000
  H   H406      1.0  0.05959  0.62543  0.63717  1.0000
  H   H407      1.0  0.28058  0.86520  0.77026  1.0000
  S   S67       1.0  0.12211  0.52130  0.56018  1.0000
  H   H408      1.0  0.27766  0.62722  0.69240  1.0000
  H   H409      1.0  0.22782  0.74759  0.84901  1.0000
  H   H410      1.0  0.07850  0.92928  0.67499  1.0000
  H   H411      1.0  0.25903  0.84294  0.74175  1.0000
  H   H412      1.0  0.03344  0.68976  0.51576  1.0000
  C   C246      1.0  0.01401  0.68154  0.52353  1.0000
  H   H413      1.0  0.27617  0.83213  0.79210  1.0000
  C   C247      1.0  0.31935  0.67141  0.90608  1.0000
  H   H414      1.0  0.26029  0.64405  0.62881  1.0000
  C   C248      1.0  0.26449  0.67636  0.91706  1.0000
  H   H415      1.0  0.13367  0.91814  0.69603  1.0000
  H   H416      1.0  0.24333  0.67793  0.92067  1.0000
  H   H417      1.0  0.24075  0.72570  0.94538  1.0000
  H   H418      1.0  0.22711  0.68928  0.67325  1.0000
  C   C249      1.0  0.07851  0.90993  0.69326  1.0000
  H   H419      1.0  0.11749  0.74649  0.60794  1.0000
  H   H420      1.0  0.23725  0.65922  0.70361  1.0000
  H   H421      1.0  0.25618  0.81594  0.90148  1.0000
  C   C250      1.0  0.31268  0.82353  0.54038  1.0000
  C   C251      1.0  0.08722  0.91305  0.74527  1.0000
  C   C252      1.0  0.33170  0.85143  0.82557  1.0000
  C   C253      1.0  0.14728  0.52913  0.94074  1.0000
  H   H422      1.0  0.09180  0.89686  0.67227  1.0000
  S   S68       1.0  0.04605  0.90825  0.97240  1.0000
  C   C254      1.0  0.02360  0.64088  0.60112  1.0000
  H   H423      1.0  0.18714  0.75534  0.93038  1.0000
  C   C255      1.0  0.01632  0.67476  0.66101  1.0000
  H   H424      1.0  0.13300  0.54593  0.93520  1.0000
  H   H425      1.0  0.31963  0.76837  0.73201  1.0000
  C   C256      1.0  0.11445  0.76649  0.59288  1.0000
  H   H426      1.0  0.31958  0.71881  0.64665  1.0000
  H   H427      1.0  0.31039  0.85533  0.83035  1.0000
  H   H428      1.0  0.03573  0.60173  0.62515  1.0000
  H   H429      1.0  0.19352  0.74177  0.84680  1.0000
  Fe  Fe33      1.0  0.14240  0.91615  0.96260  1.0000
  H   H430      1.0  0.15062  0.72652  0.52418  1.0000
  H   H431      1.0  0.28582  0.63552  0.75083  1.0000
  H   H432      1.0  0.31180  0.63084  0.70809  1.0000
  S   S69       1.0  0.31788  0.68322  0.80893  1.0000
  C   C257      1.0  0.00637  0.70278  0.67385  1.0000
  H   H433      1.0  0.21692  0.65855  0.65228  1.0000
  H   H434      1.0  0.06375  0.71284  0.64156  1.0000
  H   H435      1.0  0.30760  0.62731  0.62699  1.0000
  C   C258      1.0  0.10481  0.80710  0.49670  1.0000
  H   H436      1.0  0.18415  0.80764  0.94959  1.0000
  H   H437      1.0  0.06172  0.66895  0.56984  1.0000
  H   H438      1.0  0.09213  0.53103  0.89371  1.0000
  N   N20       1.0  0.28285  0.67705  0.65295  1.0000
  C   C259      1.0  0.27836  0.70654  0.65287  1.0000
  C   C260      1.0  0.25784  0.66540  0.63544  1.0000
  C   C261      1.0  0.30540  0.67075  0.61932  1.0000
  C   C262      1.0  0.28970  0.66854  0.70266  1.0000
  C   C263      1.0  0.30179  0.72281  0.66845  1.0000
  C   C264      1.0  0.30780  0.64266  0.59932  1.0000
  C   C265      1.0  0.29138  0.63881  0.71319  1.0000
  H   H439      1.0  0.27271  0.71363  0.61682  1.0000
  H   H440      1.0  0.26181  0.71264  0.67662  1.0000
  H   H441      1.0  0.30425  0.68386  0.58763  1.0000
  H   H442      1.0  0.32460  0.67451  0.63633  1.0000
  H   H443      1.0  0.30928  0.67575  0.71234  1.0000
  H   H444      1.0  0.27622  0.67805  0.72922  1.0000
  C   C266      1.0  0.27990  0.66995  0.95674  1.0000
  C   C267      1.0  0.30749  0.77798  0.76006  1.0000
  N   N21       1.0  0.13460  0.76553  0.50844  1.0000
  C   C268      1.0  0.10996  0.77764  0.48674  1.0000
  H   H445      1.0  0.26690  0.77961  0.94592  1.0000
  H   H446      1.0  0.07703  0.71001  0.58254  1.0000
  H   H447      1.0  0.19763  0.78030  0.89288  1.0000
  C   C269      1.0  0.10581  0.52439  0.86537  1.0000
  C   C270      1.0  0.12384  0.51434  0.70541  1.0000
  H   H448      1.0  0.07912  0.86156  0.72974  1.0000
  H   H449      1.0  0.12231  0.87163  0.70653  1.0000
  C   C271      1.0  0.12257  0.52521  0.65924  1.0000
  H   H450      1.0  0.03241  0.66932  0.68622  1.0000
  H   H451      1.0  0.29209  0.82064  0.70131  1.0000
  C   C272      1.0  0.32106  0.80166  0.78160  1.0000
  H   H452      1.0  0.13992  0.86919  0.75980  1.0000
  C   C273      1.0  0.20376  0.81182  0.96402  1.0000
  C   C274      1.0  0.01210  0.58829  0.52889  1.0000
  H   H453      1.0  0.26118  0.75728  0.90063  1.0000
  C   C275      1.0  0.00980  0.60373  0.48797  1.0000
  H   H454      1.0  0.07384  0.91780  0.84252  1.0000
  H   H455      1.0  0.29639  0.74398  0.66380  1.0000
  N   N22       1.0  0.02518  0.66993  0.61052  1.0000
  H   H456      1.0  0.12351  0.88136  0.83168  1.0000
  C   C276      1.0  0.14351  0.90603  0.72396  1.0000
  H   H457      1.0  0.32695  0.64018  0.58044  1.0000
  H   H458      1.0  0.04373  0.71964  0.58975  1.0000
  C   C277      1.0  0.08438  0.86678  0.76664  1.0000
  C   C278      1.0  0.05339  0.67724  0.60339  1.0000
  H   H459      1.0  0.06618  0.66784  0.63095  1.0000
  C   C279      1.0  0.23265  0.74086  0.97010  1.0000
  H   H460      1.0  0.11327  0.78083  0.62236  1.0000
  H   H461      1.0  0.10018  0.84410  0.82793  1.0000
  H   H462      1.0  0.14845  0.91860  0.75430  1.0000
  C   C280      1.0  0.30041  0.83492  0.72630  1.0000
  H   H463      1.0  0.01368  0.66105  0.51081  1.0000
  H   H464      1.0  0.30478  0.76296  0.78816  1.0000
  H   H465      1.0  0.09827  0.93142  0.74850  1.0000
  H   H466      1.0  0.21371  0.72181  0.88480  1.0000
  C   C281      1.0  0.20469  0.76204  0.91069  1.0000
  H   H467      1.0  0.11560  0.87465  0.52664  1.0000
  H   H468      1.0  0.21512  0.82312  0.93810  1.0000
  H   H469      1.0  0.29224  0.63926  0.57285  1.0000
  H   H470      1.0  0.11606  0.54170  0.85135  1.0000
  H   H471      1.0  0.16070  0.79644  0.48825  1.0000
  C   C282      1.0  0.23371  0.66852  0.66854  1.0000
  C   C283      1.0  0.24980  0.79762  0.88451  1.0000
  H   H472      1.0  0.06517  0.87179  0.78391  1.0000
  H   H473      1.0  0.16233  0.89822  0.70855  1.0000
  H   H474      1.0  0.11390  0.83402  0.77120  1.0000
  H   H475      1.0  0.09605  0.90659  0.88716  1.0000
  H   H476      1.0  0.03989  0.97255  0.96318  1.0000
  S   S70       1.0  0.11096  0.94720  0.97808  1.0000
  H   H477      1.0  0.30432  0.85201  0.70299  1.0000
  H   H478      1.0  0.14123  0.79461  0.56307  1.0000
  H   H479      1.0  0.07623  0.88332  0.85895  1.0000
  C   C284      1.0  0.00664  0.68391  0.57641  1.0000
  H   H480      1.0  0.25226  0.67408  0.60039  1.0000
  C   C285      1.0  0.08741  0.90127  0.85259  1.0000
  H   H481      1.0  0.30636  0.71977  0.70653  1.0000
  C   C286      1.0  0.09592  0.84146  0.78982  1.0000
  H   H482      1.0  0.26282  0.79347  0.85357  1.0000
  C   C287      1.0  0.29826  0.81805  0.49976  1.0000
  C   C288      1.0  0.05941  0.70665  0.60484  1.0000
  C   C289      1.0  0.25178  0.77431  0.91966  1.0000
  H   H483      1.0  0.11608  0.72919  0.52672  1.0000
  S   S71       1.0  0.11670  0.88306  0.98176  1.0000
  C   C290      1.0  0.21848  0.78663  0.98136  1.0000
  H   H484      1.0  0.30917  0.80766  0.81290  1.0000
  H   H485      1.0  0.01991  0.71814  0.66291  1.0000
  H   H486      1.0  0.31960  0.66257  0.98102  1.0000
  H   H487      1.0  0.18972  0.76166  0.52938  1.0000
  H   H488      1.0  0.09971  0.52031  0.96798  1.0000
  H   H489      1.0  0.18136  0.97275  0.93418  1.0000
  H   H490      1.0  0.27747  0.81466  0.50273  1.0000
  C   C291      1.0  0.18461  0.76105  0.49145  1.0000
  H   H491      1.0  0.16746  0.00384  0.88257  1.0000
  H   H492      1.0  0.33256  0.80086  0.68502  1.0000
  C   C292      1.0  0.13334  0.73608  0.50642  1.0000
  H   H493      1.0  0.09332  0.51657  0.83686  1.0000
  H   H494      1.0  0.12193  0.81899  0.48739  1.0000
  H   H495      1.0  0.01047  0.96940  0.51818  1.0000
  H   H496      1.0  0.33766  0.86467  0.75386  1.0000
  H   H497      1.0  0.20686  0.99155  0.96133  1.0000
  H   H498      1.0  0.06052  0.84652  0.96912  1.0000
  S   S72       1.0  0.00984  0.90749  0.55703  1.0000
  H   H499      1.0  0.14309  0.50471  0.85727  1.0000
  H   H500      1.0  0.43836  0.14629  0.44429  1.0000
  S   S73       1.0  0.43836  0.41000  0.02198  1.0000
  Fe  Fe34      1.0  0.50164  0.36621  0.03553  1.0000
  S   S74       1.0  0.47737  0.37871  0.09874  1.0000
  S   S75       1.0  0.53765  0.33956  0.04603  1.0000
  Fe  Fe35      1.0  0.44287  0.36921  0.05301  1.0000
  S   S76       1.0  0.40707  0.34633  0.07235  1.0000
  Fe  Fe36      1.0  0.47512  0.41843  0.06343  1.0000
  S   S77       1.0  0.48756  0.45649  0.09940  1.0000
  C   C293      1.0  0.49108  0.24823  0.14258  1.0000
  C   C294      1.0  0.49267  0.49444  0.16770  1.0000
  H   H501      1.0  0.51046  0.00852  0.46227  1.0000
  S   S78       1.0  0.64866  0.39150  0.06113  1.0000
  Fe  Fe37      1.0  0.61401  0.12744  0.09978  1.0000
  S   S79       1.0  0.64680  0.11259  0.14712  1.0000
  S   S80       1.0  0.57930  0.14659  0.13812  1.0000
  S   S81       1.0  0.61426  0.09152  0.05444  1.0000
  S   S82       1.0  0.64045  0.14903  0.05064  1.0000
  Fe  Fe38      1.0  0.42673  0.15493  0.11834  1.0000
  S   S83       1.0  0.43260  0.17015  0.19164  1.0000
  S   S84       1.0  0.46058  0.13880  0.07333  1.0000
  Fe  Fe39      1.0  0.36738  0.16779  0.11762  1.0000
  S   S85       1.0  0.36926  0.18421  0.19189  1.0000
  Fe  Fe40      1.0  0.40590  0.20357  0.16800  1.0000
  S   S86       1.0  0.41877  0.24272  0.19480  1.0000
  Fe  Fe41      1.0  0.39593  0.14954  0.21051  1.0000
  S   S87       1.0  0.38939  0.13005  0.28257  1.0000
  S   S88       1.0  0.40248  0.19010  0.09277  1.0000
  S   S89       1.0  0.39152  0.13140  0.13827  1.0000
  S   S90       1.0  0.48004  0.08592  0.42084  1.0000
  C   C295      1.0  0.41500  0.11799  0.32041  1.0000
  C   C296      1.0  0.44145  0.11759  0.30657  1.0000
  C   C297      1.0  0.46113  0.10789  0.33779  1.0000
  C   C298      1.0  0.45471  0.09906  0.38353  1.0000
  C   C299      1.0  0.42831  0.09984  0.39765  1.0000
  C   C300      1.0  0.40858  0.10897  0.36607  1.0000
  H   H502      1.0  0.44671  0.12442  0.27158  1.0000
  H   H503      1.0  0.48146  0.10727  0.32642  1.0000
  H   H504      1.0  0.42301  0.09291  0.43255  1.0000
  H   H505      1.0  0.38819  0.10912  0.37710  1.0000
  C   C301      1.0  0.54652  0.14299  0.12017  1.0000
  C   C302      1.0  0.52623  0.15282  0.14955  1.0000
  C   C303      1.0  0.49982  0.15120  0.13600  1.0000
  C   C304      1.0  0.49347  0.13983  0.09278  1.0000
  C   C305      1.0  0.51380  0.12960  0.06371  1.0000
  C   C306      1.0  0.54028  0.13109  0.07739  1.0000
  H   H506      1.0  0.53096  0.16202  0.18274  1.0000
  H   H507      1.0  0.48446  0.15906  0.15876  1.0000
  C   C307      1.0  0.39680  0.20010  0.36279  1.0000
  H   H508      1.0  0.55579  0.12347  0.05445  1.0000
  H   H509      1.0  0.55587  0.44393  0.25994  1.0000
  H   H510      1.0  0.40433  0.21872  0.34838  1.0000
  C   C308      1.0  0.56873  0.35380  0.04644  1.0000
  C   C309      1.0  0.59057  0.33893  0.06284  1.0000
  C   C310      1.0  0.61519  0.35030  0.06702  1.0000
  C   C311      1.0  0.61818  0.37661  0.05458  1.0000
  C   C312      1.0  0.59645  0.39141  0.03748  1.0000
  C   C313      1.0  0.57180  0.38006  0.03345  1.0000
  H   H511      1.0  0.58838  0.31865  0.07318  1.0000
  H   H512      1.0  0.63184  0.33863  0.07999  1.0000
  H   H513      1.0  0.55447  0.04958  0.11918  1.0000
  H   H514      1.0  0.44328  0.22921  0.02340  1.0000
  C   C314      1.0  0.41288  0.31671  0.10314  1.0000
  C   C315      1.0  0.42795  0.31610  0.14438  1.0000
  C   C316      1.0  0.42973  0.29316  0.17200  1.0000
  C   C317      1.0  0.41706  0.27053  0.15787  1.0000
  C   C318      1.0  0.40267  0.27083  0.11583  1.0000
  C   C319      1.0  0.40023  0.29405  0.08893  1.0000
  H   H515      1.0  0.43741  0.33364  0.15586  1.0000
  H   H516      1.0  0.44078  0.29303  0.20466  1.0000
  H   H517      1.0  0.39280  0.25344  0.10479  1.0000
  H   H518      1.0  0.38839  0.29456  0.05718  1.0000
  Fe  Fe42      1.0  0.64398  0.11188  0.00867  1.0000
  H   H519      1.0  0.35293  0.28873  0.23955  1.0000
  C   C320      1.0  0.48217  0.46995  0.15707  1.0000
  C   C321      1.0  0.46847  0.45686  0.19262  1.0000
  C   C322      1.0  0.46509  0.46829  0.23787  1.0000
  H   H520      1.0  0.46032  0.43802  0.18513  1.0000
  H   H521      1.0  0.45428  0.45803  0.26486  1.0000
  C   C323      1.0  0.64898  0.29629  0.46240  1.0000
  S   S91       1.0  0.66684  0.34533  0.16605  1.0000
  H   H522      1.0  0.41537  0.49588  0.43399  1.0000
  H   H523      1.0  0.48611  0.49472  0.40423  1.0000
  C   C324      1.0  0.55103  0.04774  0.28826  1.0000
  H   H524      1.0  0.63910  0.47793  0.98605  1.0000
  C   C325      1.0  0.46041  0.21624  0.03325  1.0000
  H   H525      1.0  0.52329  0.47439  0.45398  1.0000
  C   C326      1.0  0.54310  0.44829  0.22900  1.0000
  H   H526      1.0  0.60017  0.11314  0.28159  1.0000
  C   C327      1.0  0.56956  0.09655  0.23883  1.0000
  H   H527      1.0  0.37388  0.34466  0.24410  1.0000
  C   C328      1.0  0.51721  0.21904  0.09160  1.0000
  H   H528      1.0  0.55650  0.09986  0.26996  1.0000
  N   N23       1.0  0.55884  0.40777  0.18054  1.0000
  C   C329      1.0  0.53606  0.42313  0.20236  1.0000
  C   C330      1.0  0.54820  0.38563  0.15207  1.0000
  C   C331      1.0  0.57460  0.42478  0.14799  1.0000
  C   C332      1.0  0.57663  0.39742  0.21950  1.0000
  C   C333      1.0  0.53320  0.36483  0.18017  1.0000
  C   C334      1.0  0.55884  0.44035  0.10985  1.0000
  C   C335      1.0  0.59889  0.37783  0.20405  1.0000
  H   H529      1.0  0.52105  0.42857  0.17513  1.0000
  H   H530      1.0  0.52556  0.41090  0.22853  1.0000
  H   H531      1.0  0.56427  0.37518  0.13240  1.0000
  H   H532      1.0  0.53436  0.39321  0.12446  1.0000
  H   H533      1.0  0.58596  0.43910  0.16848  1.0000
  H   H534      1.0  0.58971  0.41271  0.12857  1.0000
  H   H535      1.0  0.58650  0.41380  0.23732  1.0000
  H   H536      1.0  0.56510  0.38782  0.24789  1.0000
  H   H537      1.0  0.51459  0.37313  0.19535  1.0000
  H   H538      1.0  0.54528  0.35527  0.20830  1.0000
  H   H539      1.0  0.38023  0.20444  0.38718  1.0000
  H   H540      1.0  0.54482  0.45508  0.12539  1.0000
  H   H541      1.0  0.54809  0.42743  0.08581  1.0000
  H   H542      1.0  0.57273  0.45129  0.08744  1.0000
  H   H543      1.0  0.59129  0.35926  0.19022  1.0000
  H   H544      1.0  0.65659  0.38067  0.25949  1.0000
  H   H545      1.0  0.61221  0.38633  0.17733  1.0000
  N   N24       1.0  0.66744  0.31531  0.43979  1.0000
  C   C336      1.0  0.64599  0.03682  0.22314  1.0000
  N   N25       1.0  0.42564  0.18723  0.43602  1.0000
  S   S92       1.0  0.46740  0.35288  0.99318  1.0000
  H   H546      1.0  0.56695  0.11464  0.21685  1.0000
  H   H547      1.0  0.38839  0.31573  0.26997  1.0000
  H   H548      1.0  0.51656  0.20336  0.11881  1.0000
  H   H549      1.0  0.43667  0.18642  0.36189  1.0000
  H   H550      1.0  0.59857  0.41183  0.02835  1.0000
  C   C337      1.0  0.64485  0.02523  0.26867  1.0000
  H   H551      1.0  0.35151  0.37343  0.13055  1.0000
  H   H552      1.0  0.61249  0.09821  0.22902  1.0000
  N   N26       1.0  0.49269  0.23651  0.09355  1.0000
  H   H553      1.0  0.62295  0.39939  0.31544  1.0000
  H   H554      1.0  0.58003  0.47789  0.44166  1.0000
  H   H555      1.0  0.34636  0.37095  0.19190  1.0000
  H   H556      1.0  0.45354  0.19586  0.03002  1.0000
  H   H557      1.0  0.42657  0.01075  0.38797  1.0000
  H   H558      1.0  0.45098  0.23104  0.10233  1.0000
  H   H559      1.0  0.60281  0.07814  0.27903  1.0000
  H   H560      1.0  0.47615  0.21815  0.00665  1.0000
  H   H561      1.0  0.47312  0.26108  0.14633  1.0000
  C   C338      1.0  0.59948  0.48505  0.43086  1.0000
  H   H562      1.0  0.55842  0.06290  0.31231  1.0000
  H   H563      1.0  0.35113  0.16250  0.99165  1.0000
  H   H564      1.0  0.61107  0.37243  0.23538  1.0000
  H   H565      1.0  0.34249  0.28281  0.11315  1.0000
  H   H566      1.0  0.66739  0.06146  0.46381  1.0000
  C   C339      1.0  0.43772  0.21361  0.44301  1.0000
  H   H567      1.0  0.40417  0.23996  0.42095  1.0000
  C   C340      1.0  0.57457  0.04791  0.13412  1.0000
  C   C341      1.0  0.66227  0.38675  0.29448  1.0000
  H   H568      1.0  0.63687  0.34596  0.44194  1.0000
  H   H569      1.0  0.52941  0.04970  0.28505  1.0000
  H   H570      1.0  0.45099  0.21826  0.41289  1.0000
  H   H571      1.0  0.50564  0.45159  0.41999  1.0000
  H   H572      1.0  0.54186  0.19319  0.04826  1.0000
  H   H573      1.0  0.52470  0.45782  0.24297  1.0000
  H   H574      1.0  0.45315  0.27105  0.05822  1.0000
  C   C342      1.0  0.49548  0.25902  0.05914  1.0000
  H   H575      1.0  0.41724  0.03532  0.43202  1.0000
  C   C343      1.0  0.47524  0.49296  0.24825  1.0000
  C   C344      1.0  0.49008  0.22860  0.18437  1.0000
  C   C345      1.0  0.42264  0.44685  0.40724  1.0000
  H   H576      1.0  0.41511  0.16211  0.37753  1.0000
  H   H577      1.0  0.58583  0.04253  0.24551  1.0000
  H   H578      1.0  0.66768  0.43805  0.00360  1.0000
  H   H579      1.0  0.50794  0.26114  0.14895  1.0000
  H   H580      1.0  0.43978  0.04268  0.38597  1.0000
  C   C346      1.0  0.40205  0.18466  0.46803  1.0000
  H   H581      1.0  0.49441  0.09238  0.20616  1.0000
  H   H582      1.0  0.60464  0.47532  0.39675  1.0000
  H   H583      1.0  0.65657  0.17875  0.13317  1.0000
  C   C347      1.0  0.47271  0.16672  0.42584  1.0000
  H   H584      1.0  0.62632  0.03139  0.47605  1.0000
  H   H585      1.0  0.48557  0.15063  0.44062  1.0000
  H   H586      1.0  0.38198  0.15358  0.42914  1.0000
  H   H587      1.0  0.47033  0.20141  0.10295  1.0000
  H   H588      1.0  0.52470  0.21775  0.01421  1.0000
  H   H589      1.0  0.51920  0.11431  0.22249  1.0000
  H   H590      1.0  0.45726  0.46251  0.37510  1.0000
  H   H591      1.0  0.46123  0.03476  0.46562  1.0000
  H   H592      1.0  0.57803  0.02832  0.15068  1.0000
  H   H593      1.0  0.51386  0.26958  0.06643  1.0000
  H   H594      1.0  0.55541  0.02848  0.30566  1.0000
  H   H595      1.0  0.43032  0.25571  0.45006  1.0000
  N   N27       1.0  0.45455  0.47898  0.44591  1.0000
  H   H596      1.0  0.47439  0.29267  0.02755  1.0000
  H   H597      1.0  0.64307  0.03767  0.29952  1.0000
  H   H598      1.0  0.48474  0.23956  0.21716  1.0000
  H   H599      1.0  0.64953  0.26167  0.02597  1.0000
  Fe  Fe43      1.0  0.64844  0.07746  0.09964  1.0000
  H   H600      1.0  0.55233  0.46289  0.20567  1.0000
  H   H601      1.0  0.64683  0.31917  0.34469  1.0000
  C   C348      1.0  0.67056  0.00901  0.43937  1.0000
  N   N28       1.0  0.56186  0.07289  0.21089  1.0000
  C   C349      1.0  0.58023  0.07034  0.16886  1.0000
  C   C350      1.0  0.45727  0.01810  0.44148  1.0000
  C   C351      1.0  0.53413  0.07690  0.19203  1.0000
  C   C352      1.0  0.56467  0.04788  0.23955  1.0000
  H   H602      1.0  0.47378  0.29291  0.09049  1.0000
  H   H603      1.0  0.52516  0.05773  0.18477  1.0000
  C   C353      1.0  0.51424  0.09328  0.22231  1.0000
  H   H604      1.0  0.61887  0.31402  0.38362  1.0000
  H   H605      1.0  0.58004  0.08900  0.14810  1.0000
  H   H606      1.0  0.60093  0.06673  0.18023  1.0000
  C   C354      1.0  0.43364  0.02682  0.41033  1.0000
  H   H607      1.0  0.40033  0.14191  0.48076  1.0000
  H   H608      1.0  0.53425  0.08737  0.15718  1.0000
  C   C355      1.0  0.41874  0.23762  0.44964  1.0000
  H   H609      1.0  0.55678  0.03107  0.21981  1.0000
  H   H610      1.0  0.55513  0.39170  0.02084  1.0000
  H   H611      1.0  0.63969  0.20720  0.02079  1.0000
  H   H612      1.0  0.65934  0.03924  0.02297  1.0000
  C   C356      1.0  0.34152  0.33394  0.15153  1.0000
  H   H613      1.0  0.38674  0.20021  0.46143  1.0000
  H   H614      1.0  0.61640  0.03926  0.00361  1.0000
  C   C357      1.0  0.65036  0.40510  0.37210  1.0000
  H   H615      1.0  0.64028  0.22448  0.14450  1.0000
  H   H616      1.0  0.47446  0.01665  0.41701  1.0000
  H   H617      1.0  0.51262  0.08630  0.25921  1.0000
  C   C358      1.0  0.38810  0.15832  0.46564  1.0000
  S   S93       1.0  0.62567  0.41782  0.41124  1.0000
  H   H618      1.0  0.53487  0.23049  0.09992  1.0000
  H   H619      1.0  0.46327  0.43924  0.42138  1.0000
  H   H620      1.0  0.61252  0.45727  0.99525  1.0000
  C   C359      1.0  0.47271  0.27985  0.05928  1.0000
  C   C360      1.0  0.46837  0.22099  0.08532  1.0000
  C   C361      1.0  0.64328  0.39738  0.32625  1.0000
  H   H621      1.0  0.52770  0.34910  0.15535  1.0000
  C   C362      1.0  0.59793  0.09602  0.25792  1.0000
  H   H622      1.0  0.34658  0.33186  0.44333  1.0000
  S   S94       1.0  0.64937  0.03446  0.12422  1.0000
  H   H623      1.0  0.50782  0.18956  0.03821  1.0000
  C   C363      1.0  0.66102  0.22043  0.13819  1.0000
  H   H624      1.0  0.38801  0.18916  0.33313  1.0000
  H   H625      1.0  0.45038  0.21329  0.47515  1.0000
  H   H626      1.0  0.50950  0.21870  0.19089  1.0000
  C   C364      1.0  0.48264  0.48714  0.44073  1.0000
  C   C365      1.0  0.36949  0.32496  0.25773  1.0000
  H   H627      1.0  0.47490  0.21381  0.17956  1.0000
  H   H628      1.0  0.50904  0.12075  0.03020  1.0000
  H   H629      1.0  0.58851  0.04873  0.10390  1.0000
  C   C366      1.0  0.44568  0.16620  0.45081  1.0000
  C   C367      1.0  0.41922  0.18296  0.38460  1.0000
  C   C368      1.0  0.52280  0.20437  0.04493  1.0000
  H   H630      1.0  0.41405  0.44181  0.44214  1.0000
  H   H631      1.0  0.37355  0.30156  0.19485  1.0000
  S   S95       1.0  0.50125  0.40605  0.00191  1.0000
  C   C369      1.0  0.63429  0.32774  0.37330  1.0000
  C   C370      1.0  0.64835  0.02104  0.18279  1.0000
  H   H632      1.0  0.62392  0.34535  0.35798  1.0000
  H   H633      1.0  0.63669  0.28684  0.43539  1.0000
  H   H634      1.0  0.35653  0.32685  0.28938  1.0000
  C   C371      1.0  0.35750  0.30714  0.22013  1.0000
  C   C372      1.0  0.43623  0.50147  0.43116  1.0000
  H   H635      1.0  0.47122  0.16285  0.38737  1.0000
  C   C373      1.0  0.45082  0.45680  0.41146  1.0000
  H   H636      1.0  0.40951  0.46114  0.38819  1.0000
  H   H637      1.0  0.64530  0.05795  0.21935  1.0000
  H   H638      1.0  0.42322  0.42860  0.38581  1.0000
  H   H639      1.0  0.61465  0.47822  0.45666  1.0000
  C   C374      1.0  0.65064  0.33645  0.41594  1.0000
  H   H640      1.0  0.49793  0.25228  0.02219  1.0000
  H   H641      1.0  0.65758  0.02296  0.41885  1.0000
  C   C375      1.0  0.35476  0.36007  0.16136  1.0000
  H   H642      1.0  0.35584  0.32262  0.12912  1.0000
  H   H643      1.0  0.37631  0.35688  0.16595  1.0000
  C   C376      1.0  0.66905  0.02141  0.00728  1.0000
  C   C377      1.0  0.67020  0.19451  0.13132  1.0000
  H   H644      1.0  0.35119  0.26485  0.16679  1.0000
  H   H645      1.0  0.50007  0.45418  0.48313  1.0000
  H   H646      1.0  0.48715  0.50376  0.46400  1.0000
  C   C378      1.0  0.66881  0.26196  0.00743  1.0000
  S   S96       1.0  0.66495  0.27330  0.14126  1.0000
  H   H647      1.0  0.66250  0.35262  0.40255  1.0000
  H   H648      1.0  0.48279  0.18532  0.43195  1.0000
  C   C379      1.0  0.50387  0.46538  0.45024  1.0000
  H   H649      1.0  0.65967  0.00462  0.02526  1.0000
  H   H650      1.0  0.59869  0.50407  0.99571  1.0000
  S   S97       1.0  0.45886  0.40182  0.88448  1.0000
  Fe  Fe44      1.0  0.36651  0.33000  0.56554  1.0000
  S   S98       1.0  0.37921  0.29933  0.61986  1.0000
  Fe  Fe45      1.0  0.41919  0.35691  0.57226  1.0000
  S   S99       1.0  0.43545  0.32825  0.62601  1.0000
  S   S100      1.0  0.44349  0.39124  0.54919  1.0000
  Fe  Fe46      1.0  0.41769  0.29753  0.58061  1.0000
  S   S101      1.0  0.44479  0.26249  0.56307  1.0000
  Fe  Fe47      1.0  0.39618  0.33252  0.66129  1.0000
  S   S102      1.0  0.39258  0.33280  0.74205  1.0000
  S   S103      1.0  0.40419  0.32601  0.52354  1.0000
  S   S104      1.0  0.38057  0.36336  0.61052  1.0000
  S   S105      1.0  0.59494  0.43370  0.53601  1.0000
  S   S106      1.0  0.62683  0.37694  0.52773  1.0000
  H   H651      1.0  0.66204  0.14486  0.76819  1.0000
  Fe  Fe48      1.0  0.59622  0.39535  0.57546  1.0000
  S   S107      1.0  0.56356  0.36855  0.59543  1.0000
  S   S108      1.0  0.62501  0.40816  0.63026  1.0000
  H   H652      1.0  0.58315  0.22356  0.54831  1.0000
  Fe  Fe49      1.0  0.45165  0.11282  0.58516  1.0000
  S   S109      1.0  0.48679  0.12196  0.54088  1.0000
  S   S110      1.0  0.42021  0.14343  0.60487  1.0000
  Fe  Fe50      1.0  0.46721  0.05401  0.59340  1.0000
  S   S111      1.0  0.50325  0.05894  0.54792  1.0000
  S   S112      1.0  0.65819  0.24689  0.62000  1.0000
  Fe  Fe51      1.0  0.50919  0.09523  0.59100  1.0000
  S   S113      1.0  0.54497  0.10618  0.63279  1.0000
  C   C380      1.0  0.66585  0.05164  0.88136  1.0000
  S   S114      1.0  0.47446  0.08884  0.63887  1.0000
  S   S115      1.0  0.44084  0.07741  0.54313  1.0000
  H   H653      1.0  0.60632  0.19306  0.96749  1.0000
  C   C381      1.0  0.62811  0.11955  0.57709  1.0000
  C   C382      1.0  0.62216  0.12183  0.62525  1.0000
  C   C383      1.0  0.59676  0.11686  0.64171  1.0000
  C   C384      1.0  0.57694  0.11006  0.61015  1.0000
  C   C385      1.0  0.58284  0.10761  0.56191  1.0000
  C   C386      1.0  0.60848  0.11212  0.54551  1.0000
  H   H654      1.0  0.63723  0.12714  0.64995  1.0000
  H   H655      1.0  0.59237  0.11861  0.67912  1.0000
  H   H656      1.0  0.56766  0.10242  0.53733  1.0000
  H   H657      1.0  0.44582  0.48510  0.56683  1.0000
  H   H658      1.0  0.47244  0.29435  0.75924  1.0000
  S   S116      1.0  0.45531  0.01353  0.62001  1.0000
  C   C387      1.0  0.64860  0.29968  0.61361  1.0000
  C   C388      1.0  0.43780  0.23001  0.57926  1.0000
  C   C389      1.0  0.41279  0.22297  0.59439  1.0000
  C   C390      1.0  0.40772  0.19641  0.60355  1.0000
  C   C391      1.0  0.42760  0.17684  0.59767  1.0000
  C   C392      1.0  0.45276  0.18410  0.58409  1.0000
  C   C393      1.0  0.45775  0.21050  0.57451  1.0000
  H   H659      1.0  0.39726  0.23788  0.59811  1.0000
  H   H660      1.0  0.38821  0.19098  0.61427  1.0000
  H   H661      1.0  0.46837  0.16941  0.58061  1.0000
  H   H662      1.0  0.41801  0.12570  0.76831  1.0000
  C   C394      1.0  0.47750  0.38497  0.55659  1.0000
  C   C395      1.0  0.48746  0.35927  0.56226  1.0000
  C   C396      1.0  0.51412  0.35451  0.57256  1.0000
  C   C397      1.0  0.53119  0.37536  0.57620  1.0000
  C   C398      1.0  0.52158  0.40107  0.56835  1.0000
  C   C399      1.0  0.49470  0.40586  0.55877  1.0000
  H   H663      1.0  0.47459  0.34299  0.55899  1.0000
  H   H664      1.0  0.52149  0.33456  0.57806  1.0000
  H   H665      1.0  0.53462  0.41726  0.57151  1.0000
  Fe  Fe52      1.0  0.46472  0.39379  0.96388  1.0000
  C   C400      1.0  0.43905  0.38309  0.84631  1.0000
  C   C401      1.0  0.42828  0.35947  0.86088  1.0000
  C   C402      1.0  0.41396  0.34447  0.82868  1.0000
  C   C403      1.0  0.41054  0.35262  0.78136  1.0000
  C   C404      1.0  0.42097  0.37642  0.76694  1.0000
  C   C405      1.0  0.43502  0.39158  0.79928  1.0000
  H   H666      1.0  0.43107  0.35270  0.89694  1.0000
  H   H667      1.0  0.40575  0.32627  0.84046  1.0000
  H   H668      1.0  0.41805  0.38326  0.73095  1.0000
  H   H669      1.0  0.44302  0.40993  0.78772  1.0000
  H   H670      1.0  0.34371  0.09565  0.75092  1.0000
  C   C406      1.0  0.51455  0.39176  0.78214  1.0000
  C   C407      1.0  0.61162  0.19400  0.56889  1.0000
  C   C408      1.0  0.42218  0.06143  0.73947  1.0000
  H   H671      1.0  0.48058  0.03194  0.70652  1.0000
  H   H672      1.0  0.61541  0.46440  0.70842  1.0000
  H   H673      1.0  0.66870  0.02916  0.55706  1.0000
  H   H674      1.0  0.36322  0.07836  0.68721  1.0000
  H   H675      1.0  0.35186  0.10906  0.80675  1.0000
  H   H676      1.0  0.60137  0.21381  0.66072  1.0000
  C   C409      1.0  0.65536  0.32602  0.60943  1.0000
  H   H677      1.0  0.57737  0.44157  0.95751  1.0000
  H   H678      1.0  0.66502  0.18638  0.88940  1.0000
  H   H679      1.0  0.65852  0.48494  0.91224  1.0000
  C   C410      1.0  0.40668  0.10387  0.70348  1.0000
  H   H680      1.0  0.39992  0.06834  0.62900  1.0000
  H   H681      1.0  0.41598  0.04077  0.74394  1.0000
  H   H682      1.0  0.61117  0.43460  0.86681  1.0000
  H   H683      1.0  0.53347  0.37572  0.69258  1.0000
  H   H684      1.0  0.64663  0.26254  0.50969  1.0000
  S   S117      1.0  0.63982  0.11342  0.92806  1.0000
  C   C411      1.0  0.50252  0.36451  0.77594  1.0000
  H   H685      1.0  0.53784  0.23002  0.53264  1.0000
  C   C412      1.0  0.46024  0.48425  0.53716  1.0000
  C   C413      1.0  0.66210  0.27346  0.49093  1.0000
  H   H686      1.0  0.55240  0.15446  0.69026  1.0000
  C   C414      1.0  0.58535  0.43090  0.92622  1.0000
  H   H687      1.0  0.47874  0.00644  0.52626  1.0000
  H   H688      1.0  0.64005  0.34123  0.60726  1.0000
  H   H689      1.0  0.66562  0.06346  0.95462  1.0000
  C   C415      1.0  0.55066  0.17532  0.67869  1.0000
  H   H690      1.0  0.45467  0.44848  0.49952  1.0000
  H   H691      1.0  0.47764  0.47308  0.55126  1.0000
  H   H692      1.0  0.67129  0.32973  0.51152  1.0000
  H   H693      1.0  0.63256  0.12718  0.83012  1.0000
  H   H694      1.0  0.37782  0.06761  0.79285  1.0000
  H   H695      1.0  0.37602  0.04374  0.63280  1.0000
  H   H696      1.0  0.52138  0.40121  0.74933  1.0000
  H   H697      1.0  0.48192  0.36625  0.78885  1.0000
  H   H698      1.0  0.55496  0.35308  0.76607  1.0000
  C   C416      1.0  0.42313  0.12371  0.73046  1.0000
  C   C417      1.0  0.39180  0.05326  0.65279  1.0000
  H   H699      1.0  0.43591  0.06104  0.70861  1.0000
  H   H700      1.0  0.58803  0.17158  0.64420  1.0000
  H   H701      1.0  0.44932  0.16711  0.48965  1.0000
  H   H702      1.0  0.63194  0.01442  0.90727  1.0000
  N   N29       1.0  0.56852  0.20626  0.61372  1.0000
  C   C418      1.0  0.56794  0.17882  0.63410  1.0000
  C   C419      1.0  0.58281  0.20437  0.56684  1.0000
  C   C420      1.0  0.54040  0.21604  0.60639  1.0000
  C   C421      1.0  0.58237  0.22315  0.64878  1.0000
  N   N30       1.0  0.67103  0.21511  0.97129  1.0000
  C   C422      1.0  0.44807  0.46947  0.49523  1.0000
  C   C423      1.0  0.53548  0.23789  0.56907  1.0000
  C   C424      1.0  0.58751  0.25162  0.63392  1.0000
  H   H703      1.0  0.56093  0.16480  0.60712  1.0000
  H   H704      1.0  0.37102  0.04876  0.71864  1.0000
  S   S118      1.0  0.65982  0.12608  0.55563  1.0000
  H   H705      1.0  0.57219  0.19133  0.54238  1.0000
  H   H706      1.0  0.52795  0.19965  0.59493  1.0000
  H   H707      1.0  0.53160  0.22322  0.64035  1.0000
  H   H708      1.0  0.57080  0.22492  0.68212  1.0000
  H   H709      1.0  0.63495  0.30687  0.48681  1.0000
  C   C425      1.0  0.35979  0.10467  0.77078  1.0000
  H   H710      1.0  0.61238  0.48407  0.78886  1.0000
  H   H711      1.0  0.48725  0.01096  0.78543  1.0000
  C   C426      1.0  0.62651  0.19403  0.95261  1.0000
  H   H712      1.0  0.49970  0.40547  0.79860  1.0000
  C   C427      1.0  0.38421  0.08601  0.77542  1.0000
  H   H713      1.0  0.54820  0.25479  0.57336  1.0000
  H   H714      1.0  0.51481  0.24555  0.57225  1.0000
  H   H715      1.0  0.64432  0.05452  0.87672  1.0000
  H   H716      1.0  0.36461  0.12374  0.75442  1.0000
  H   H717      1.0  0.59387  0.41150  0.93717  1.0000
  H   H718      1.0  0.55449  0.32291  0.73224  1.0000
  N   N31       1.0  0.50335  0.35266  0.72709  1.0000
  C   C428      1.0  0.49870  0.32360  0.73154  1.0000
  C   C429      1.0  0.52953  0.35522  0.70254  1.0000
  C   C430      1.0  0.48197  0.36436  0.69589  1.0000
  H   H719      1.0  0.46615  0.39924  0.66080  1.0000
  C   C431      1.0  0.47208  0.31591  0.75326  1.0000
  H   H720      1.0  0.61318  0.17312  0.57977  1.0000
  C   C432      1.0  0.48221  0.39408  0.68611  1.0000
  H   H721      1.0  0.50032  0.31391  0.69623  1.0000
  H   H722      1.0  0.51396  0.31378  0.75417  1.0000
  S   S119      1.0  0.62491  0.48813  0.61473  1.0000
  H   H723      1.0  0.52955  0.34475  0.66802  1.0000
  H   H724      1.0  0.48231  0.35439  0.66091  1.0000
  H   H725      1.0  0.46229  0.36111  0.71123  1.0000
  Fe  Fe53      1.0  0.62613  0.44562  0.58773  1.0000
  Fe  Fe54      1.0  0.65565  0.39243  0.57916  1.0000
  H   H726      1.0  0.46809  0.32519  0.78809  1.0000
  H   H727      1.0  0.45539  0.32022  0.72901  1.0000
  C   C433      1.0  0.55379  0.34464  0.73012  1.0000
  H   H728      1.0  0.41922  0.14361  0.71520  1.0000
  C   C434      1.0  0.37994  0.06519  0.69869  1.0000
  H   H729      1.0  0.50061  0.40030  0.66909  1.0000
  H   H730      1.0  0.47785  0.40557  0.71856  1.0000
  H   H731      1.0  0.52951  0.17951  0.67156  1.0000
  H   H732      1.0  0.53129  0.39033  0.80724  1.0000
  H   H733      1.0  0.40850  0.23691  0.48442  1.0000
  H   H734      1.0  0.51259  0.35104  0.80185  1.0000
  H   H735      1.0  0.39704  0.09507  0.80188  1.0000
  H   H736      1.0  0.66656  0.27107  0.97193  1.0000
  H   H737      1.0  0.48708  0.42575  0.55468  1.0000
  C   C435      1.0  0.61648  0.49641  0.75870  1.0000
  H   H738      1.0  0.55719  0.18718  0.70892  1.0000
  C   C436      1.0  0.61815  0.48518  0.71305  1.0000
  H   H739      1.0  0.62809  0.29488  0.61403  1.0000
  H   H740      1.0  0.38943  0.11478  0.68777  1.0000
  H   H741      1.0  0.57179  0.35022  0.71056  1.0000
  H   H742      1.0  0.63476  0.17364  0.95288  1.0000
  C   C437      1.0  0.65266  0.13131  0.83893  1.0000
  H   H743      1.0  0.57005  0.26476  0.64060  1.0000
  H   H744      1.0  0.47711  0.21580  0.56289  1.0000
  S   S120      1.0  0.65947  0.43089  0.54022  1.0000
  H   H745      1.0  0.60410  0.25875  0.65522  1.0000
  H   H746      1.0  0.44508  0.08739  0.78560  1.0000
  H   H747      1.0  0.42638  0.46976  0.50081  1.0000
  N   N32       1.0  0.39864  0.07961  0.72987  1.0000
  H   H748      1.0  0.62050  0.19508  0.53296  1.0000
  H   H749      1.0  0.40786  0.18760  0.50551  1.0000
  H   H750      1.0  0.41864  0.09834  0.67186  1.0000
  C   C438      1.0  0.63580  0.01704  0.94570  1.0000
  C   C439      1.0  0.47373  0.01239  0.71301  1.0000
  N   N33       1.0  0.66459  0.02086  0.95456  1.0000
  C   C440      1.0  0.66169  0.12661  0.88535  1.0000
  H   H751      1.0  0.63161  0.23230  0.97882  1.0000
  H   H752      1.0  0.61299  0.11035  0.50817  1.0000
  H   H753      1.0  0.34121  0.31654  0.70233  1.0000
  H   H754      1.0  0.40704  0.03773  0.66025  1.0000
  C   C441      1.0  0.65932  0.45980  0.85093  1.0000
  N   N34       1.0  0.66251  0.00900  0.49094  1.0000
  H   H755      1.0  0.63087  0.48849  0.87560  1.0000
  C   C442      1.0  0.43868  0.06696  0.78380  1.0000
  H   H756      1.0  0.42793  0.06193  0.81673  1.0000
  H   H757      1.0  0.59421  0.25358  0.59685  1.0000
  Fe  Fe55      1.0  0.47735  0.08531  0.50149  1.0000
  H   H758      1.0  0.62143  0.05865  0.95056  1.0000
  C   C443      1.0  0.60518  0.44697  0.89763  1.0000
  H   H759      1.0  0.62373  0.20588  0.59247  1.0000
  C   C444      1.0  0.60236  0.49439  0.96103  1.0000
  H   H760      1.0  0.62647  0.01485  0.53166  1.0000
  C   C445      1.0  0.64525  0.43150  0.93852  1.0000
  H   H761      1.0  0.45678  0.05415  0.78317  1.0000
  H   H762      1.0  0.44448  0.11885  0.72657  1.0000
  H   H763      1.0  0.66349  0.21368  0.85035  1.0000
  H   H764      1.0  0.56829  0.42691  0.90325  1.0000
  C   C446      1.0  0.62321  0.50090  0.67348  1.0000
  H   H765      1.0  0.64631  0.44839  0.82812  1.0000
  H   H766      1.0  0.62431  0.20130  0.91572  1.0000
  H   H767      1.0  0.59415  0.46415  0.88196  1.0000
  H   H768      1.0  0.43150  0.01400  0.52240  1.0000
  H   H769      1.0  0.58300  0.48872  0.94736  1.0000
  H   H770      1.0  0.59655  0.03496  0.95264  1.0000
  H   H771      1.0  0.34506  0.36317  0.71187  1.0000
  H   H772      1.0  0.64955  0.41827  0.90797  1.0000
  H   H773      1.0  0.34541  0.37322  0.79400  1.0000
  H   H774      1.0  0.65997  0.24108  0.91328  1.0000
  H   H775      1.0  0.64612  0.06465  0.51517  1.0000
  Fe  Fe56      1.0  0.62826  0.41612  0.49198  1.0000
  S   S121      1.0  0.66822  0.17646  0.66086  1.0000
  C   C447      1.0  0.62135  0.47043  0.96840  1.0000
  N   N35       1.0  0.62903  0.45554  0.92421  1.0000
  C   C448      1.0  0.66812  0.27965  0.61701  1.0000
  C   C449      1.0  0.66936  0.14133  0.80365  1.0000
  C   C450      1.0  0.64424  0.47334  0.89210  1.0000
  C   C451      1.0  0.61682  0.03895  0.96434  1.0000
  H   H776      1.0  0.63395  0.41899  0.96313  1.0000
  C   C452      1.0  0.63296  0.01283  0.49402  1.0000
  H   H777      1.0  0.36999  0.15976  0.48772  1.0000
  C   C453      1.0  0.66623  0.05893  0.50272  1.0000
  C   C454      1.0  0.64222  0.21299  0.98291  1.0000
  H   H778      1.0  0.66793  0.47514  0.82808  1.0000
  C   C455      1.0  0.67114  0.43660  0.96479  1.0000
  Fe  Fe57      1.0  0.48292  0.54690  0.33121  1.0000
  S   S122      1.0  0.51307  0.54818  0.38924  1.0000
  H   H779      1.0  0.65478  0.72150  0.45433  1.0000
  Fe  Fe58      1.0  0.47875  0.60694  0.32684  1.0000
  S   S123      1.0  0.50916  0.61238  0.38285  1.0000
  S   S124      1.0  0.46198  0.64199  0.28683  1.0000
  Fe  Fe59      1.0  0.53137  0.57972  0.34568  1.0000
  S   S125      1.0  0.57427  0.57757  0.32414  1.0000
  Fe  Fe60      1.0  0.48774  0.58080  0.42165  1.0000
  S   S126      1.0  0.50266  0.57669  0.28625  1.0000
  S   S127      1.0  0.45590  0.57704  0.36726  1.0000
  Fe  Fe61      1.0  0.44297  0.78522  0.36665  1.0000
  S   S128      1.0  0.42914  0.81762  0.41540  1.0000
  S   S129      1.0  0.45931  0.74824  0.40187  1.0000
  Fe  Fe62      1.0  0.43009  0.81735  0.27631  1.0000
  S   S130      1.0  0.41399  0.85164  0.31875  1.0000
  S   S131      1.0  0.43769  0.81320  0.19654  1.0000
  Fe  Fe63      1.0  0.44970  0.84423  0.36459  1.0000
  S   S132      1.0  0.47526  0.87783  0.38583  1.0000
  Fe  Fe64      1.0  0.39468  0.82176  0.36637  1.0000
  S   S133      1.0  0.46645  0.81133  0.32028  1.0000
  S   S134      1.0  0.40777  0.78790  0.31946  1.0000
  S   S135      1.0  0.46217  0.89883  0.03713  1.0000
  C   C456      1.0  0.65024  0.63064  0.04831  1.0000
  Fe  Fe65      1.0  0.62703  0.88800  0.37272  1.0000
  S   S136      1.0  0.65361  0.90444  0.31687  1.0000
  S   S137      1.0  0.59749  0.85756  0.35431  1.0000
  H   H780      1.0  0.45006  0.69529  0.25847  1.0000
  S   S138      1.0  0.62203  0.92581  0.41285  1.0000
  S   S139      1.0  0.65978  0.87265  0.41906  1.0000
  C   C457      1.0  0.66558  0.64677  0.12467  1.0000
  H   H781      1.0  0.58321  0.57330  0.47831  1.0000
  H   H782      1.0  0.62496  0.64161  0.10682  1.0000
  C   C458      1.0  0.44276  0.83745  0.15204  1.0000
  C   C459      1.0  0.45224  0.82938  0.10733  1.0000
  C   C460      1.0  0.45741  0.84783  0.07133  1.0000
  C   C461      1.0  0.45320  0.87470  0.07956  1.0000
  C   C462      1.0  0.44325  0.88278  0.12399  1.0000
  C   C463      1.0  0.43801  0.86429  0.16001  1.0000
  H   H783      1.0  0.45579  0.80868  0.10060  1.0000
  H   H784      1.0  0.46509  0.84128  0.03747  1.0000
  H   H785      1.0  0.43972  0.90349  0.13065  1.0000
  H   H786      1.0  0.43024  0.87080  0.19385  1.0000
  C   C464      1.0  0.50955  0.87179  0.38195  1.0000
  C   C465      1.0  0.52657  0.89281  0.38481  1.0000
  C   C466      1.0  0.55380  0.88864  0.37788  1.0000
  C   C467      1.0  0.56403  0.86344  0.36777  1.0000
  C   C468      1.0  0.54710  0.84240  0.36600  1.0000
  C   C469      1.0  0.52003  0.84651  0.37361  1.0000
  H   H787      1.0  0.51862  0.91241  0.39142  1.0000
  H   H788      1.0  0.56676  0.90497  0.37924  1.0000
  H   H789      1.0  0.55493  0.82284  0.35855  1.0000
  H   H790      1.0  0.50732  0.83008  0.37316  1.0000
  H   H791      1.0  0.53778  0.56090  0.14415  1.0000
  C   C470      1.0  0.64889  0.98199  0.23435  1.0000
  H   H792      1.0  0.65009  0.96085  0.23820  1.0000
  C   C471      1.0  0.50509  0.98875  0.47489  1.0000
  S   S140      1.0  0.47043  0.50648  0.30604  1.0000
  C   C472      1.0  0.59289  0.60582  0.33064  1.0000
  C   C473      1.0  0.58386  0.62676  0.35877  1.0000
  C   C474      1.0  0.59942  0.64872  0.36464  1.0000
  C   C475      1.0  0.62374  0.65026  0.34140  1.0000
  C   C476      1.0  0.63271  0.62940  0.31294  1.0000
  C   C477      1.0  0.61746  0.60708  0.30812  1.0000
  H   H793      1.0  0.56525  0.62574  0.37707  1.0000
  H   H794      1.0  0.59271  0.66451  0.38755  1.0000
  H   H795      1.0  0.65153  0.63033  0.29513  1.0000
  H   H796      1.0  0.62474  0.59081  0.28673  1.0000
  C   C478      1.0  0.45896  0.67124  0.31970  1.0000
  C   C479      1.0  0.46304  0.67114  0.36866  1.0000
  C   C480      1.0  0.46241  0.69487  0.39376  1.0000
  C   C481      1.0  0.45740  0.71877  0.37018  1.0000
  C   C482      1.0  0.45254  0.71886  0.32148  1.0000
  C   C483      1.0  0.45341  0.69512  0.29628  1.0000
  H   H797      1.0  0.46675  0.65281  0.38721  1.0000
  H   H798      1.0  0.46600  0.69469  0.43150  1.0000
  H   H799      1.0  0.44862  0.73724  0.30304  1.0000
  H   H800      1.0  0.43154  0.96993  0.42124  1.0000
  C   C484      1.0  0.59928  0.51512  0.42347  1.0000
  N   N36       1.0  0.59183  0.53156  0.46619  1.0000
  H   H801      1.0  0.52145  0.62935  0.20549  1.0000
  H   H802      1.0  0.63347  0.82041  0.40777  1.0000
  H   H803      1.0  0.47960  0.93625  0.44028  1.0000
  H   H804      1.0  0.37839  0.77704  0.45284  1.0000
  H   H805      1.0  0.56014  0.52791  0.19508  1.0000
  N   N37       1.0  0.54583  0.71390  0.33479  1.0000
  C   C485      1.0  0.53312  0.68756  0.33704  1.0000
  C   C486      1.0  0.55320  0.72092  0.38476  1.0000
  C   C487      1.0  0.57015  0.71097  0.30394  1.0000
  C   C488      1.0  0.52622  0.73343  0.31359  1.0000
  C   C489      1.0  0.52711  0.67468  0.28907  1.0000
  C   C490      1.0  0.53009  0.72539  0.41967  1.0000
  C   C491      1.0  0.59227  0.73038  0.31194  1.0000
  C   C492      1.0  0.53394  0.76239  0.31193  1.0000
  H   H806      1.0  0.54555  0.67312  0.35746  1.0000
  H   H807      1.0  0.51404  0.68903  0.35619  1.0000
  H   H808      1.0  0.56455  0.73903  0.38613  1.0000
  H   H809      1.0  0.56661  0.70535  0.40004  1.0000
  H   H810      1.0  0.57981  0.69116  0.30882  1.0000
  H   H811      1.0  0.56483  0.71221  0.26575  1.0000
  H   H812      1.0  0.52183  0.72817  0.27635  1.0000
  H   H813      1.0  0.50668  0.73254  0.33124  1.0000
  H   H814      1.0  0.51894  0.65510  0.29601  1.0000
  H   H815      1.0  0.51192  0.68611  0.26891  1.0000
  H   H816      1.0  0.54491  0.67125  0.26701  1.0000
  C   C493      1.0  0.51586  0.61833  0.17354  1.0000
  H   H817      1.0  0.51679  0.74192  0.40830  1.0000
  C   C494      1.0  0.43765  0.52714  0.45941  1.0000
  H   H818      1.0  0.60746  0.72739  0.28388  1.0000
  H   H819      1.0  0.60238  0.72633  0.34611  1.0000
  H   H820      1.0  0.58538  0.75115  0.31024  1.0000
  H   H821      1.0  0.54527  0.76663  0.27926  1.0000
  C   C495      1.0  0.53956  0.61172  0.14084  1.0000
  H   H822      1.0  0.58580  0.51987  0.39329  1.0000
  H   H823      1.0  0.42431  0.54220  0.44270  1.0000
  C   C496      1.0  0.60830  0.78776  0.42045  1.0000
  H   H824      1.0  0.56290  0.56436  0.08129  1.0000
  H   H825      1.0  0.62286  0.98674  0.43477  1.0000
  H   H826      1.0  0.57031  0.59514  0.05354  1.0000
  H   H827      1.0  0.54489  0.76865  0.34334  1.0000
  C   C497      1.0  0.57067  0.54594  0.18552  1.0000
  C   C498      1.0  0.57745  0.57991  0.07920  1.0000
  H   H828      1.0  0.59570  0.57031  0.06469  1.0000
  H   H829      1.0  0.43951  0.50653  0.39318  1.0000
  H   H830      1.0  0.61934  0.51954  0.41056  1.0000
  C   C499      1.0  0.63523  0.80052  0.42428  1.0000
  H   H831      1.0  0.44626  0.92828  0.43728  1.0000
  H   H832      1.0  0.51867  0.70754  0.42535  1.0000
  C   C500      1.0  0.58039  0.63434  0.20494  1.0000
  S   S141      1.0  0.64475  0.98428  0.33315  1.0000
  N   N38       1.0  0.45448  0.99291  0.46929  1.0000
  H   H833      1.0  0.51573  0.77509  0.31209  1.0000
  H   H834      1.0  0.57525  0.56244  0.42164  1.0000
  C   C501      1.0  0.45201  0.97048  0.43492  1.0000
  H   H835      1.0  0.60126  0.58219  0.14305  1.0000
  H   H836      1.0  0.65664  0.81727  0.32183  1.0000
  Fe  Fe66      1.0  0.65726  0.91140  0.45541  1.0000
  H   H837      1.0  0.49720  0.52483  0.22017  1.0000
  H   H838      1.0  0.46467  0.97368  0.40325  1.0000
  H   H839      1.0  0.50552  0.97488  0.44479  1.0000
  H   H840      1.0  0.41234  0.99951  0.47761  1.0000
  N   N39       1.0  0.51619  0.87320  0.22270  1.0000
  C   C502      1.0  0.50195  0.84887  0.23687  1.0000
  C   C503      1.0  0.50461  0.89553  0.25187  1.0000
  C   C504      1.0  0.54495  0.86853  0.23441  1.0000
  C   C505      1.0  0.51245  0.87735  0.17022  1.0000
  C   C506      1.0  0.51202  0.82289  0.21413  1.0000
  C   C507      1.0  0.47517  0.90228  0.24405  1.0000
  C   C508      1.0  0.56152  0.89293  0.24164  1.0000
  C   C509      1.0  0.52146  0.90337  0.14857  1.0000
  H   H841      1.0  0.50271  0.84611  0.27598  1.0000
  H   H842      1.0  0.48073  0.85071  0.22776  1.0000
  H   H843      1.0  0.51500  0.91399  0.24620  1.0000
  H   H844      1.0  0.50721  0.89115  0.29021  1.0000
  H   H845      1.0  0.54721  0.85699  0.26788  1.0000
  H   H846      1.0  0.55503  0.85641  0.20661  1.0000
  H   H847      1.0  0.52311  0.86163  0.14989  1.0000
  H   H848      1.0  0.49171  0.87484  0.15981  1.0000
  H   H849      1.0  0.53285  0.81806  0.22284  1.0000
  H   H850      1.0  0.50021  0.80666  0.22824  1.0000
  H   H851      1.0  0.50909  0.82299  0.17523  1.0000
  H   H852      1.0  0.46965  0.92030  0.26425  1.0000
  H   H853      1.0  0.47063  0.90637  0.20633  1.0000
  H   H854      1.0  0.46252  0.88669  0.25797  1.0000
  H   H855      1.0  0.58254  0.88652  0.24512  1.0000
  H   H856      1.0  0.55613  0.90307  0.27521  1.0000
  H   H857      1.0  0.56007  0.90694  0.21174  1.0000
  H   H858      1.0  0.54235  0.90165  0.13717  1.0000
  H   H859      1.0  0.51848  0.92055  0.17185  1.0000
  H   H860      1.0  0.50922  0.90811  0.11688  1.0000
  Fe  Fe67      1.0  0.65101  0.94169  0.35972  1.0000
  H   H861      1.0  0.55259  0.51798  0.45300  1.0000
  H   H862      1.0  0.56488  0.64843  0.19227  1.0000
  H   H863      1.0  0.53797  0.73079  0.45478  1.0000
  N   N40       1.0  0.65875  0.78511  0.40516  1.0000
  N   N41       1.0  0.56108  0.59450  0.16232  1.0000
  H   H864      1.0  0.40220  0.76225  0.41431  1.0000
  C   C510      1.0  0.59027  0.55983  0.44999  1.0000
  C   C511      1.0  0.55021  0.56798  0.17344  1.0000
  H   H865      1.0  0.62411  0.80506  0.32831  1.0000
  H   H866      1.0  0.50545  0.60049  0.18424  1.0000
  C   C512      1.0  0.48920  0.50591  0.21286  1.0000
  H   H867      1.0  0.64580  0.79222  0.28352  1.0000
  H   H868      1.0  0.64142  0.76137  0.34988  1.0000
  S   S142      1.0  0.35181  0.82169  0.39186  1.0000
  C   C513      1.0  0.65530  0.77741  0.35401  1.0000
  H   H869      1.0  0.59276  0.80349  0.41634  1.0000
  H   H870      1.0  0.62849  0.73943  0.42617  1.0000
  C   C514      1.0  0.38898  0.75823  0.44458  1.0000
  C   C515      1.0  0.64971  0.99357  0.18879  1.0000
  H   H871      1.0  0.55580  0.60524  0.23626  1.0000
  H   H872      1.0  0.50141  0.63107  0.15394  1.0000
  H   H873      1.0  0.59831  0.63578  0.18275  1.0000
  H   H874      1.0  0.63776  0.80479  0.46253  1.0000
  C   C516      1.0  0.64501  0.63980  0.09443  1.0000
  H   H875      1.0  0.66767  0.98936  0.42362  1.0000
  H   H876      1.0  0.58587  0.64069  0.24105  1.0000
  C   C517      1.0  0.56522  0.52315  0.48348  1.0000
  H   H877      1.0  0.60400  0.77626  0.45291  1.0000
  H   H878      1.0  0.41729  0.73043  0.47259  1.0000
  C   C518      1.0  0.61617  0.57095  0.43128  1.0000
  H   H879      1.0  0.54737  0.63051  0.12750  1.0000
  H   H880      1.0  0.65654  0.72701  0.39237  1.0000
  S   S143      1.0  0.62381  0.62031  0.01278  1.0000
  S   S144      1.0  0.64212  0.67861  0.34882  1.0000
  H   H881      1.0  0.53146  0.60226  0.10881  1.0000
  H   H882      1.0  0.53661  0.56930  0.20430  1.0000
  H   H883      1.0  0.59064  0.61219  0.11860  1.0000
  C   C519      1.0  0.65003  0.73619  0.42615  1.0000
  H   H884      1.0  0.58791  0.59386  0.22159  1.0000
  C   C520      1.0  0.58357  0.59238  0.12751  1.0000
  C   C521      1.0  0.64493  0.79945  0.32058  1.0000
  H   H885      1.0  0.62181  0.56252  0.39638  1.0000
  H   H886      1.0  0.61329  0.59244  0.42567  1.0000
  H   H887      1.0  0.58353  0.54092  0.15484  1.0000
  C   C522      1.0  0.57097  0.60593  0.20779  1.0000
  H   H888      1.0  0.65156  0.98111  0.15798  1.0000
  C   C523      1.0  0.64643  0.99775  0.27469  1.0000
  H   H889      1.0  0.66125  0.65357  0.16017  1.0000
  H   H890      1.0  0.58280  0.55091  0.21651  1.0000
  C   C524      1.0  0.66516  0.76127  0.43567  1.0000
  H   H891      1.0  0.66230  0.76603  0.47386  1.0000
  C   C525      1.0  0.45971  0.94252  0.45315  1.0000
  H   H892      1.0  0.45745  0.53543  0.45891  1.0000
  H   H893      1.0  0.60639  0.77519  0.38902  1.0000
  H   H894      1.0  0.37497  0.74374  0.43183  1.0000
  H   H895      1.0  0.63256  0.56816  0.45670  1.0000
  H   H896      1.0  0.43298  0.60806  0.47053  1.0000
  H   H897      1.0  0.50335  0.50473  0.14059  1.0000
  C   C526      1.0  0.61672  0.99109  0.47170  1.0000
  H   H898      1.0  0.59572  0.99776  0.47059  1.0000
  H   H899      1.0  0.52218  0.92366  0.69727  1.0000
  Fe  Fe68      1.0  0.40187  0.71355  0.73395  1.0000
  S   S145      1.0  0.39507  0.69957  0.80841  1.0000
  S   S146      1.0  0.41320  0.75352  0.70825  1.0000
  Fe  Fe69      1.0  0.39201  0.66063  0.68876  1.0000
  S   S147      1.0  0.38321  0.64188  0.75951  1.0000
  S   S148      1.0  0.38961  0.64459  0.61340  1.0000
  Fe  Fe70      1.0  0.36017  0.67908  0.77919  1.0000
  Fe  Fe71      1.0  0.41849  0.66356  0.78469  1.0000
  S   S149      1.0  0.44853  0.64365  0.83296  1.0000
  S   S150      1.0  0.36573  0.69586  0.70561  1.0000
  S   S151      1.0  0.42850  0.67955  0.71299  1.0000
  Fe  Fe72      1.0  0.46609  0.89220  0.95707  1.0000
  S   S152      1.0  0.43563  0.90900  0.90646  1.0000
  Fe  Fe73      1.0  0.49869  0.86793  0.87597  1.0000
  S   S153      1.0  0.47029  0.88175  0.81953  1.0000
  S   S154      1.0  0.53317  0.84167  0.85314  1.0000
  Fe  Fe74      1.0  0.46911  0.92022  0.85840  1.0000
  S   S155      1.0  0.47537  0.96068  0.82410  1.0000
  Fe  Fe75      1.0  0.43931  0.86950  0.87124  1.0000
  S   S156      1.0  0.40369  0.84557  0.85689  1.0000
  S   S157      1.0  0.49959  0.90686  0.91241  1.0000
  S   S158      1.0  0.46776  0.85228  0.92424  1.0000
  Fe  Fe76      1.0  0.59974  0.63435  0.84196  1.0000
  S   S159      1.0  0.62876  0.61305  0.79457  1.0000
  S   S160      1.0  0.57010  0.66204  0.80635  1.0000
  S   S161      1.0  0.63040  0.65135  0.88794  1.0000
  S   S162      1.0  0.59414  0.59980  0.88998  1.0000
  H   H900      1.0  0.47639  0.59799  0.59967  1.0000
  H   H901      1.0  0.56907  0.92050  0.69706  1.0000
  H   H902      1.0  0.55712  0.56534  0.64520  1.0000
  H   H903      1.0  0.59542  0.90413  0.79137  1.0000
  H   H904      1.0  0.52515  0.92985  0.82550  1.0000
  H   H905      1.0  0.62816  0.55983  0.73058  1.0000
  H   H906      1.0  0.34996  0.78286  0.60040  1.0000
  N   N42       1.0  0.39091  0.74086  0.53101  1.0000
  C   C527      1.0  0.46908  0.97486  0.76709  1.0000
  C   C528      1.0  0.45676  0.96139  0.73076  1.0000
  C   C529      1.0  0.50043  0.58563  0.75432  1.0000
  H   H907      1.0  0.45014  0.94175  0.73720  1.0000
  H   H908      1.0  0.35110  0.83254  0.56629  1.0000
  C   C530      1.0  0.56516  0.85315  0.86001  1.0000
  C   C531      1.0  0.57044  0.87410  0.88991  1.0000
  C   C532      1.0  0.59620  0.88308  0.89340  1.0000
  C   C533      1.0  0.61682  0.87099  0.86745  1.0000
  C   C534      1.0  0.61142  0.84997  0.83784  1.0000
  C   C535      1.0  0.58574  0.84107  0.83423  1.0000
  H   H909      1.0  0.55474  0.88336  0.91040  1.0000
  H   H910      1.0  0.60020  0.89933  0.91647  1.0000
  H   H911      1.0  0.62682  0.84098  0.81669  1.0000
  H   H912      1.0  0.58173  0.82513  0.81062  1.0000
  H   H913      1.0  0.42609  0.79365  0.94022  1.0000
  C   C536      1.0  0.41052  0.77888  0.74989  1.0000
  C   C537      1.0  0.42478  0.80160  0.74298  1.0000
  C   C538      1.0  0.42358  0.82182  0.77660  1.0000
  C   C539      1.0  0.40749  0.81966  0.81653  1.0000
  C   C540      1.0  0.39294  0.79709  0.82312  1.0000
  C   C541      1.0  0.39459  0.77661  0.79005  1.0000
  H   H914      1.0  0.43704  0.80346  0.71182  1.0000
  H   H915      1.0  0.43458  0.83935  0.77105  1.0000
  H   H916      1.0  0.38043  0.79543  0.85400  1.0000
  H   H917      1.0  0.38344  0.75917  0.79548  1.0000
  C   C542      1.0  0.48221  0.64935  0.82565  1.0000
  C   C543      1.0  0.49126  0.66522  0.78899  1.0000
  C   C544      1.0  0.51825  0.66937  0.78400  1.0000
  C   C545      1.0  0.53640  0.65721  0.81502  1.0000
  C   C546      1.0  0.52744  0.64119  0.85152  1.0000
  C   C547      1.0  0.50038  0.63741  0.85697  1.0000
  H   H918      1.0  0.47752  0.67417  0.76428  1.0000
  H   H919      1.0  0.52511  0.68164  0.75547  1.0000
  H   H920      1.0  0.54130  0.63187  0.87576  1.0000
  H   H921      1.0  0.49348  0.62508  0.88540  1.0000
  C   C548      1.0  0.45725  0.60125  0.53189  1.0000
  C   C549      1.0  0.43487  0.61115  0.50821  1.0000
  C   C550      1.0  0.41452  0.62455  0.53354  1.0000
  C   C551      1.0  0.41640  0.62865  0.58267  1.0000
  C   C552      1.0  0.43907  0.61931  0.60615  1.0000
  C   C553      1.0  0.45922  0.60550  0.58098  1.0000
  H   H922      1.0  0.60569  0.56499  0.54036  1.0000
  H   H923      1.0  0.39713  0.63164  0.51492  1.0000
  H   H924      1.0  0.44081  0.62228  0.64388  1.0000
  H   H925      1.0  0.60501  0.78806  0.86828  1.0000
  H   H926      1.0  0.50749  0.79925  0.78703  1.0000
  H   H927      1.0  0.55553  0.96269  0.84709  1.0000
  H   H928      1.0  0.46523  0.74444  0.76262  1.0000
  H   H929      1.0  0.55679  0.55658  0.84019  1.0000
  S   S163      1.0  0.48263  0.58254  0.50219  1.0000
  H   H930      1.0  0.50799  0.54567  0.69629  1.0000
  H   H931      1.0  0.48825  0.70429  0.87043  1.0000
  Fe  Fe77      1.0  0.62531  0.57918  0.84505  1.0000
  H   H932      1.0  0.53796  0.61638  0.75012  1.0000
  H   H933      1.0  0.44334  0.76495  0.96108  1.0000
  C   C554      1.0  0.42896  0.70996  0.56013  1.0000
  H   H934      1.0  0.52850  0.53959  0.77221  1.0000
  H   H935      1.0  0.40183  0.73146  0.60414  1.0000
  H   H936      1.0  0.40643  0.97909  0.55490  1.0000
  H   H937      1.0  0.41776  0.95580  0.51209  1.0000
  H   H938      1.0  0.58599  0.94040  0.73683  1.0000
  C   C555      1.0  0.62513  0.53911  0.72599  1.0000
  H   H939      1.0  0.51703  0.96719  0.68877  1.0000
  H   H940      1.0  0.44233  0.76335  0.82320  1.0000
  H   H941      1.0  0.47475  0.78792  0.78332  1.0000
  C   C556      1.0  0.54537  0.92632  0.81110  1.0000
  S   S164      1.0  0.61812  0.53656  0.82389  1.0000
  C   C557      1.0  0.35216  0.82714  0.49052  1.0000
  H   H942      1.0  0.54995  0.90533  0.81859  1.0000
  H   H943      1.0  0.50889  0.70628  0.92056  1.0000
  H   H944      1.0  0.65922  0.91191  0.63803  1.0000
  C   C558      1.0  0.54282  0.60049  0.72430  1.0000
  C   C559      1.0  0.45272  0.97350  0.68607  1.0000
  N   N43       1.0  0.54598  0.93219  0.75872  1.0000
  C   C560      1.0  0.62017  0.52339  0.76554  1.0000
  H   H945      1.0  0.57092  0.75546  0.74521  1.0000
  C   C561      1.0  0.57188  0.92420  0.73553  1.0000
  H   H946      1.0  0.66109  0.96658  0.49398  1.0000
  H   H947      1.0  0.50505  0.88165  0.72418  1.0000
  H   H948      1.0  0.59677  0.74260  0.92063  1.0000
  C   C562      1.0  0.47751  0.00041  0.75778  1.0000
  C   C563      1.0  0.54851  0.54324  0.51251  1.0000
  H   H949      1.0  0.35659  0.68417  0.55295  1.0000
  H   H950      1.0  0.44334  0.73461  0.85875  1.0000
  C   C564      1.0  0.57302  0.59668  0.72609  1.0000
  H   H951      1.0  0.53840  0.99313  0.70067  1.0000
  C   C565      1.0  0.48282  0.60311  0.72172  1.0000
  H   H952      1.0  0.54837  0.58934  0.82060  1.0000
  C   C566      1.0  0.36524  0.76683  0.59714  1.0000
  H   H953      1.0  0.47402  0.59157  0.69301  1.0000
  C   C567      1.0  0.54575  0.54990  0.66284  1.0000
  H   H954      1.0  0.49341  0.61986  0.70660  1.0000
  H   H955      1.0  0.55922  0.55126  0.54278  1.0000
  N   N44       1.0  0.47487  0.76118  0.87126  1.0000
  C   C568      1.0  0.46031  0.78321  0.89718  1.0000
  C   C569      1.0  0.49752  0.77327  0.84544  1.0000
  H   H956      1.0  0.47401  0.79396  0.92019  1.0000
  C   C570      1.0  0.45596  0.74821  0.83857  1.0000
  H   H957      1.0  0.38575  0.70208  0.50087  1.0000
  H   H958      1.0  0.58089  0.58101  0.70261  1.0000
  H   H959      1.0  0.53100  0.53350  0.52700  1.0000
  H   H960      1.0  0.48297  0.81310  0.82513  1.0000
  H   H961      1.0  0.61082  0.50929  0.93718  1.0000
  H   H962      1.0  0.35582  0.76608  0.52290  1.0000
  H   H963      1.0  0.51010  0.75840  0.82702  1.0000
  H   H964      1.0  0.44200  0.71235  0.52897  1.0000
  H   H965      1.0  0.52305  0.56772  0.83968  1.0000
  C   C571      1.0  0.41100  0.73451  0.56895  1.0000
  C   C572      1.0  0.34326  0.81416  0.70878  1.0000
  H   H966      1.0  0.63060  0.54034  0.65029  1.0000
  H   H967      1.0  0.53954  0.88009  0.71408  1.0000
  C   C573      1.0  0.56384  0.94247  0.84178  1.0000
  C   C574      1.0  0.48986  0.79446  0.80823  1.0000
  H   H968      1.0  0.45194  0.79802  0.87184  1.0000
  H   H969      1.0  0.41758  0.69192  0.55644  1.0000
  H   H970      1.0  0.35659  0.74882  0.61111  1.0000
  C   C575      1.0  0.35516  0.83509  0.67610  1.0000
  C   C576      1.0  0.58701  0.89995  0.75619  1.0000
  H   H971      1.0  0.37086  0.70444  0.59478  1.0000
  C   C577      1.0  0.62650  0.52795  0.68036  1.0000
  H   H972      1.0  0.56649  0.73137  0.81979  1.0000
  H   H973      1.0  0.45615  0.71508  0.79045  1.0000
  N   N45       1.0  0.60822  0.73763  0.82082  1.0000
  C   C578      1.0  0.61313  0.72332  0.77469  1.0000
  C   C579      1.0  0.58010  0.74806  0.82049  1.0000
  C   C580      1.0  0.61230  0.71805  0.86083  1.0000
  C   C581      1.0  0.62756  0.75931  0.82400  1.0000
  H   H974      1.0  0.35865  0.72373  0.49401  1.0000
  C   C582      1.0  0.57230  0.76644  0.77890  1.0000
  C   C583      1.0  0.59603  0.72246  0.90661  1.0000
  C   C584      1.0  0.62453  0.77778  0.86674  1.0000
  H   H975      1.0  0.59764  0.70876  0.76872  1.0000
  H   H976      1.0  0.55207  0.96313  0.67658  1.0000
  H   H977      1.0  0.38450  0.78306  0.53740  1.0000
  C   C585      1.0  0.54137  0.96147  0.75263  1.0000
  C   C586      1.0  0.54201  0.56878  0.82026  1.0000
  H   H978      1.0  0.63341  0.71630  0.87100  1.0000
  H   H979      1.0  0.64803  0.75105  0.82567  1.0000
  H   H980      1.0  0.62694  0.77171  0.79151  1.0000
  H   H981      1.0  0.57502  0.88238  0.75924  1.0000
  C   C587      1.0  0.53961  0.55800  0.76952  1.0000
  H   H982      1.0  0.36118  0.84099  0.77528  1.0000
  H   H983      1.0  0.59801  0.53628  0.57509  1.0000
  S   S165      1.0  0.65813  0.91509  0.53621  1.0000
  H   H984      1.0  0.53881  0.53710  0.63407  1.0000
  H   H985      1.0  0.58583  0.78279  0.77449  1.0000
  H   H986      1.0  0.62888  0.76729  0.90035  1.0000
  H   H987      1.0  0.51836  0.72261  0.86780  1.0000
  C   C588      1.0  0.37398  0.76464  0.54484  1.0000
  H   H988      1.0  0.52413  0.96851  0.77396  1.0000
  H   H989      1.0  0.36897  0.84765  0.69511  1.0000
  H   H990      1.0  0.61205  0.73713  0.74407  1.0000
  C   C589      1.0  0.47830  0.98986  0.50074  1.0000
  H   H991      1.0  0.64337  0.69356  0.79842  1.0000
  C   C590      1.0  0.46774  0.73287  0.79583  1.0000
  H   H992      1.0  0.53777  0.60917  0.68909  1.0000
  H   H993      1.0  0.55829  0.97231  0.76643  1.0000
  H   H994      1.0  0.38190  0.77223  0.61999  1.0000
  C   C591      1.0  0.48544  0.74204  0.90801  1.0000
  C   C592      1.0  0.52404  0.88862  0.73767  1.0000
  H   H995      1.0  0.63926  0.79327  0.86367  1.0000
  H   H996      1.0  0.55249  0.77544  0.78598  1.0000
  C   C593      1.0  0.53707  0.97142  0.70142  1.0000
  H   H997      1.0  0.60392  0.89469  0.73265  1.0000
  H   H998      1.0  0.48847  0.72609  0.79925  1.0000
  C   C594      1.0  0.43685  0.77543  0.92843  1.0000
  H   H999      1.0  0.60708  0.69808  0.84917  1.0000
  C   C595      1.0  0.52161  0.56190  0.68906  1.0000
  H   H1000     1.0  0.63274  0.52692  0.48862  1.0000
  H   H1001     1.0  0.46610  0.61155  0.74283  1.0000
  N   N46       1.0  0.52679  0.57664  0.73412  1.0000
  H   H1002     1.0  0.55970  0.55145  0.75822  1.0000
  H   H1003     1.0  0.36013  0.80220  0.72327  1.0000
  C   C596      1.0  0.50113  0.71769  0.88972  1.0000
  C   C597      1.0  0.63996  0.70837  0.77001  1.0000
  C   C598      1.0  0.40582  0.74775  0.48649  1.0000
  H   H1004     1.0  0.48876  0.56849  0.76523  1.0000
  H   H1005     1.0  0.65577  0.96439  0.94568  1.0000
  C   C599      1.0  0.52339  0.91881  0.73561  1.0000
  H   H1006     1.0  0.44293  0.96295  0.65849  1.0000
  H   H1007     1.0  0.52062  0.98206  0.50018  1.0000
  H   H1008     1.0  0.55869  0.53732  0.68562  1.0000
  Fe  Fe78      1.0  0.65921  0.62765  0.84423  1.0000
  S   S166      1.0  0.64878  0.88329  0.87091  1.0000
  Fe  Fe79      1.0  0.62775  0.61514  0.93266  1.0000
  H   H1009     1.0  0.51153  0.57489  0.66251  1.0000
  H   H1010     1.0  0.50297  0.59733  0.78705  1.0000
  H   H1011     1.0  0.34183  0.86917  0.83762  1.0000
  H   H1012     1.0  0.42386  0.75151  0.57422  1.0000
  H   H1013     1.0  0.56554  0.93333  0.87746  1.0000
  H   H1014     1.0  0.57988  0.59247  0.76258  1.0000
  H   H1015     1.0  0.42252  0.76374  0.90890  1.0000
  H   H1016     1.0  0.50435  0.92594  0.75146  1.0000
  H   H1017     1.0  0.52622  0.88071  0.77405  1.0000
  H   H1018     1.0  0.46917  0.73392  0.92930  1.0000
  H   H1019     1.0  0.36682  0.82493  0.64788  1.0000
  C   C600      1.0  0.37424  0.71785  0.51981  1.0000
  C   C601      1.0  0.46113  0.99908  0.67688  1.0000
  H   H1020     1.0  0.44195  0.70677  0.59132  1.0000
  H   H1021     1.0  0.43970  0.96777  0.55753  1.0000
  H   H1022     1.0  0.58209  0.61526  0.71503  1.0000
  H   H1023     1.0  0.57519  0.71756  0.90092  1.0000
  C   C602      1.0  0.61129  0.54427  0.54771  1.0000
  H   H1024     1.0  0.60381  0.70885  0.93450  1.0000
  H   H1025     1.0  0.58385  0.94341  0.82640  1.0000
  H   H1026     1.0  0.57510  0.75903  0.85334  1.0000
  C   C603      1.0  0.61247  0.52654  0.50362  1.0000
  H   H1027     1.0  0.43041  0.52475  0.49620  1.0000
  H   H1028     1.0  0.64047  0.69742  0.73608  1.0000
  C   C604      1.0  0.35965  0.70512  0.56139  1.0000
  H   H1029     1.0  0.51091  0.78256  0.87114  1.0000
  C   C605      1.0  0.43017  0.99622  0.49976  1.0000
  C   C606      1.0  0.42364  0.97313  0.53259  1.0000
  H   H1030     1.0  0.61762  0.97280  0.49325  1.0000
  H   H1031     1.0  0.42056  0.76287  0.49391  1.0000
  H   H1032     1.0  0.65647  0.72194  0.76879  1.0000
  H   H1033     1.0  0.49818  0.75225  0.93356  1.0000
  S   S167      1.0  0.65869  0.59191  0.89167  1.0000
  H   H1034     1.0  0.63135  0.54490  0.56297  1.0000
  H   H1035     1.0  0.37285  0.83096  0.48725  1.0000
  H   H1036     1.0  0.47775  0.97220  0.52357  1.0000
  H   H1037     1.0  0.34048  0.66935  0.90234  1.0000
  H   H1038     1.0  0.34021  0.71517  0.56715  1.0000
  H   H1039     1.0  0.45857  0.93961  0.49183  1.0000
  H   H1040     1.0  0.62935  0.99866  0.96291  1.0000
  H   H1041     1.0  0.54088  0.55963  0.48977  1.0000
  H   H1042     1.0  0.33989  0.84754  0.65820  1.0000
  C   C607      1.0  0.33972  0.82801  0.53540  1.0000
  H   H1043     1.0  0.61149  0.50613  0.51750  1.0000
  C   C608      1.0  0.33967  0.84577  0.77374  1.0000
  H   H1044     1.0  0.66118  0.98196  0.55037  1.0000
  H   H1045     1.0  0.46554  0.50469  0.52984  1.0000
  H   H1046     1.0  0.56726  0.50495  0.50540  1.0000
  C   C609      1.0  0.66966  0.98294  0.51394  1.0000
  C   C610      1.0  0.67150  0.89579  0.62484  1.0000
  H   H1047     1.0  0.34010  0.79423  0.79657  1.0000
  H   H1048     1.0  0.33852  0.83518  0.84938  1.0000
  Fe  Fe80      1.0  0.96590  0.43279  0.34319  1.0000
  H   H1049     1.0  0.85891  0.29426  0.43332  1.0000
  S   S168      1.0  0.97143  0.47477  0.31655  1.0000
  Fe  Fe81      1.0  0.93792  0.38086  0.34391  1.0000
  S   S169      1.0  0.96177  0.36409  0.40432  1.0000
  S   S170      1.0  0.90592  0.35721  0.31081  1.0000
  Fe  Fe82      1.0  0.95578  0.40361  0.43778  1.0000
  S   S171      1.0  0.99208  0.41976  0.40402  1.0000
  S   S172      1.0  0.92920  0.41955  0.37996  1.0000
  S   S173      1.0  0.97263  0.39515  0.30273  1.0000
  H   H1050     1.0  0.70593  0.00517  0.39621  1.0000
  Fe  Fe83      1.0  0.91561  0.20291  0.29767  1.0000
  S   S174      1.0  0.90689  0.17893  0.36250  1.0000
  S   S175      1.0  0.94180  0.23731  0.30708  1.0000
  Fe  Fe84      1.0  0.89338  0.16260  0.22992  1.0000
  S   S176      1.0  0.88316  0.13559  0.28997  1.0000
  S   S177      1.0  0.88442  0.15334  0.15280  1.0000
  Fe  Fe85      1.0  0.86792  0.17190  0.32833  1.0000
  S   S178      1.0  0.82610  0.17426  0.35952  1.0000
  Fe  Fe86      1.0  0.92286  0.14517  0.31903  1.0000
  S   S179      1.0  0.95273  0.11565  0.34908  1.0000
  S   S180      1.0  0.87561  0.19859  0.26590  1.0000
  S   S181      1.0  0.93384  0.16947  0.25619  1.0000
  Fe  Fe87      1.0  0.73472  0.34133  0.10058  1.0000
  S   S182      1.0  0.72666  0.31922  0.16850  1.0000
  S   S183      1.0  0.77704  0.33804  0.07201  1.0000
  C   C611      1.0  0.69542  0.35382  0.46973  1.0000
  Fe  Fe88      1.0  0.70589  0.35631  0.19428  1.0000
  S   S184      1.0  0.71317  0.37000  0.26995  1.0000
  H   H1051     1.0  0.87744  0.39683  0.23859  1.0000
  H   H1052     1.0  0.82231  0.40744  0.10910  1.0000
  S   S185      1.0  0.71680  0.37927  0.12908  1.0000
  S   S186      1.0  0.69740  0.32917  0.06545  1.0000
  H   H1053     1.0  0.75237  0.16196  0.18850  1.0000
  H   H1054     1.0  0.69421  0.33534  0.36163  1.0000
  H   H1055     1.0  0.67995  0.36971  0.47109  1.0000
  H   H1056     1.0  0.71863  0.25171  0.12692  1.0000
  C   C612      1.0  0.70308  0.31638  0.37348  1.0000
  H   H1057     1.0  0.97484  0.16459  0.31902  1.0000
  H   H1058     1.0  0.83404  0.11090  0.24657  1.0000
  C   C613      1.0  0.68863  0.38405  0.30803  1.0000
  C   C614      1.0  0.67678  0.40273  0.38541  1.0000
  C   C615      1.0  0.81781  0.14546  0.21042  1.0000
  C   C616      1.0  0.94722  0.48506  0.17920  1.0000
  C   C617      1.0  0.71443  0.20962  0.12163  1.0000
  C   C618      1.0  0.70519  0.23575  0.12853  1.0000
  H   H1059     1.0  0.77962  0.19271  0.15424  1.0000
  Fe  Fe89      1.0  0.67339  0.13117  0.09384  1.0000
  H   H1060     1.0  0.77333  0.13916  0.12024  1.0000
  C   C619      1.0  0.76945  0.14838  0.19634  1.0000
  H   H1061     1.0  0.80326  0.16984  0.13114  1.0000
  C   C620      1.0  0.81568  0.12335  0.24766  1.0000
  H   H1062     1.0  0.78676  0.11357  0.15902  1.0000
  H   H1063     1.0  0.84711  0.39545  0.26959  1.0000
  H   H1064     1.0  0.71361  0.01266  0.45576  1.0000
  H   H1065     1.0  0.93510  0.49488  0.39856  1.0000
  Fe  Fe90      1.0  0.68820  0.31001  0.13518  1.0000
  H   H1066     1.0  0.83947  0.19156  0.17521  1.0000
  C   C621      1.0  0.81384  0.17668  0.41886  1.0000
  C   C622      1.0  0.68350  0.32689  0.47899  1.0000
  C   C623      1.0  0.78654  0.17576  0.42675  1.0000
  H   H1067     1.0  0.94593  0.02194  0.38433  1.0000
  H   H1068     1.0  0.77357  0.17334  0.39696  1.0000
  N   N47       1.0  0.89048  0.26441  0.43797  1.0000
  C   C624      1.0  0.94534  0.10981  0.05731  1.0000
  C   C625      1.0  0.95164  0.11598  0.10428  1.0000
  C   C626      1.0  0.93314  0.12907  0.13397  1.0000
  C   C627      1.0  0.90798  0.13591  0.11714  1.0000
  C   C628      1.0  0.90151  0.12927  0.07042  1.0000
  C   C629      1.0  0.92010  0.11636  0.04060  1.0000
  H   H1069     1.0  0.97104  0.11085  0.11767  1.0000
  H   H1070     1.0  0.93838  0.13385  0.16988  1.0000
  H   H1071     1.0  0.88206  0.13423  0.05713  1.0000
  C   C630      1.0  0.91323  0.19987  0.03128  1.0000
  H   H1072     1.0  0.76355  0.13741  0.22864  1.0000
  H   H1073     1.0  0.93844  0.02245  0.44671  1.0000
  H   H1074     1.0  0.90947  0.22680  0.09085  1.0000
  H   H1075     1.0  0.87762  0.29039  0.38066  1.0000
  C   C631      1.0  0.99062  0.15148  0.33049  1.0000
  C   C632      1.0  0.91595  0.32401  0.30493  1.0000
  C   C633      1.0  0.94201  0.31616  0.31394  1.0000
  C   C634      1.0  0.94967  0.28953  0.31291  1.0000
  C   C635      1.0  0.93137  0.27048  0.30283  1.0000
  C   C636      1.0  0.90540  0.27826  0.29220  1.0000
  C   C637      1.0  0.89771  0.30508  0.29313  1.0000
  H   H1076     1.0  0.95633  0.33062  0.32196  1.0000
  H   H1077     1.0  0.96982  0.28370  0.32072  1.0000
  H   H1078     1.0  0.89124  0.26363  0.28400  1.0000
  H   H1079     1.0  0.87753  0.31109  0.28595  1.0000
  H   H1080     1.0  0.82901  0.33267  0.03208  1.0000
  C   C638      1.0  0.95293  0.47346  0.22368  1.0000
  H   H1081     1.0  0.91126  0.17970  0.04574  1.0000
  C   C639      1.0  0.87931  0.29054  0.41993  1.0000
  S   S187      1.0  0.70775  0.15659  0.11015  1.0000
  C   C640      1.0  0.79809  0.18147  0.16334  1.0000
  C   C641      1.0  0.92546  0.21585  0.07163  1.0000
  H   H1082     1.0  0.78555  0.16558  0.28035  1.0000
  C   C642      1.0  0.79013  0.17888  0.25028  1.0000
  C   C643      1.0  0.98519  0.12673  0.34874  1.0000
  H   H1083     1.0  0.88820  0.22343  0.41848  1.0000
  Fe  Fe91      1.0  0.67881  0.36527  0.09892  1.0000
  H   H1084     1.0  0.99566  0.24768  0.35933  1.0000
  H   H1085     1.0  0.72513  0.19833  0.00177  1.0000
  H   H1086     1.0  0.68162  0.18255  0.01765  1.0000
  H   H1087     1.0  0.83519  0.15667  0.22091  1.0000
  N   N48       1.0  0.82477  0.36022  0.19866  1.0000
  C   C644      1.0  0.80872  0.36032  0.24383  1.0000
  C   C645      1.0  0.85253  0.36650  0.21206  1.0000
  C   C646      1.0  0.82418  0.33296  0.17792  1.0000
  C   C647      1.0  0.81228  0.38026  0.16541  1.0000
  C   C648      1.0  0.78025  0.35108  0.23943  1.0000
  C   C649      1.0  0.85608  0.39383  0.23383  1.0000
  C   C650      1.0  0.84626  0.32487  0.14279  1.0000
  C   C651      1.0  0.82742  0.38687  0.11969  1.0000
  H   H1088     1.0  0.81859  0.34772  0.27138  1.0000
  H   H1089     1.0  0.80700  0.38037  0.25921  1.0000
  H   H1090     1.0  0.86625  0.36505  0.18157  1.0000
  H   H1091     1.0  0.86056  0.35166  0.23785  1.0000
  H   H1092     1.0  0.82522  0.31783  0.20658  1.0000
  H   H1093     1.0  0.80520  0.33005  0.15952  1.0000
  H   H1094     1.0  0.79281  0.37368  0.15328  1.0000
  H   H1095     1.0  0.80724  0.39905  0.18389  1.0000
  H   H1096     1.0  0.77941  0.33041  0.22767  1.0000
  H   H1097     1.0  0.77069  0.35209  0.27486  1.0000
  H   H1098     1.0  0.76814  0.36394  0.21568  1.0000
  H   H1099     1.0  0.85129  0.18055  0.45263  1.0000
  H   H1100     1.0  0.00195  0.09135  0.38008  1.0000
  C   C652      1.0  0.83028  0.17985  0.45793  1.0000
  H   H1101     1.0  0.84869  0.33924  0.11390  1.0000
  H   H1102     1.0  0.84129  0.30604  0.12591  1.0000
  H   H1103     1.0  0.86528  0.32137  0.16133  1.0000
  H   H1104     1.0  0.82178  0.37387  0.09024  1.0000
  H   H1105     1.0  0.84900  0.38618  0.12343  1.0000
  H   H1106     1.0  0.75475  0.17680  0.47817  1.0000
  C   C653      1.0  0.76792  0.20032  0.24989  1.0000
  H   H1107     1.0  0.71615  0.39046  0.36426  1.0000
  H   H1108     1.0  0.96762  0.03494  0.01566  1.0000
  H   H1109     1.0  0.79928  0.11024  0.24064  1.0000
  C   C654      1.0  0.81549  0.33489  0.00284  1.0000
  C   C655      1.0  0.93461  0.23830  0.45099  1.0000
  H   H1110     1.0  0.89275  0.20771  0.02588  1.0000
  N   N49       1.0  0.79386  0.16353  0.20510  1.0000
  C   C656      1.0  0.88246  0.24320  0.40436  1.0000
  H   H1111     1.0  0.84838  0.40988  0.21057  1.0000
  H   H1112     1.0  0.95669  0.16933  0.05240  1.0000
  H   H1113     1.0  0.77077  0.21544  0.22223  1.0000
  H   H1114     1.0  0.84128  0.23604  0.42498  1.0000
  H   H1115     1.0  0.68262  0.40918  0.42013  1.0000
  H   H1116     1.0  0.72206  0.31976  0.39130  1.0000
  H   H1117     1.0  0.98738  0.11409  0.22157  1.0000
  C   C657      1.0  0.99738  0.09496  0.23047  1.0000
  S   S188      1.0  0.96952  0.09384  0.02096  1.0000
  H   H1118     1.0  0.74829  0.19186  0.24586  1.0000
  C   C658      1.0  0.85277  0.24208  0.39356  1.0000
  H   H1119     1.0  0.81568  0.21572  0.19741  1.0000
  H   H1120     1.0  0.91338  0.31546  0.40888  1.0000
  H   H1121     1.0  0.80867  0.18823  0.26074  1.0000
  C   C659      1.0  0.96777  0.17232  0.01911  1.0000
  H   H1122     1.0  0.70629  0.35485  0.43591  1.0000
  C   C660      1.0  0.94052  0.48821  0.43477  1.0000
  H   H1123     1.0  0.81398  0.13127  0.28411  1.0000
  H   H1124     1.0  0.91483  0.11128  0.00480  1.0000
  H   H1125     1.0  0.70337  0.23754  0.99789  1.0000
  C   C661      1.0  0.77576  0.17772  0.47288  1.0000
  H   H1126     1.0  0.93221  0.22325  0.42322  1.0000
  H   H1127     1.0  0.73505  0.20548  0.11457  1.0000
  H   H1128     1.0  0.82353  0.13627  0.17600  1.0000
  H   H1129     1.0  0.95604  0.24163  0.45285  1.0000
  H   H1130     1.0  0.00227  0.22111  0.31889  1.0000
  C   C662      1.0  0.69578  0.39223  0.35356  1.0000
  H   H1131     1.0  0.93767  0.46674  0.43633  1.0000
  H   H1132     1.0  0.69854  0.02313  0.06246  1.0000
  C   C663      1.0  0.69682  0.18901  0.12243  1.0000
  H   H1133     1.0  0.93973  0.23045  0.06041  1.0000
  H   H1134     1.0  0.91519  0.25438  0.00533  1.0000
  H   H1135     1.0  0.92754  0.27938  0.46277  1.0000
  C   C664      1.0  0.82003  0.20137  0.16884  1.0000
  C   C665      1.0  0.94342  0.00943  0.41628  1.0000
  C   C666      1.0  0.96387  0.48829  0.25969  1.0000
  H   H1136     1.0  0.93466  0.20245  0.09849  1.0000
  H   H1137     1.0  0.93869  0.47341  0.15171  1.0000
  H   H1138     1.0  0.75211  0.11866  0.15271  1.0000
  C   C667      1.0  0.67834  0.24115  0.13634  1.0000
  H   H1139     1.0  0.88317  0.33305  0.41960  1.0000
  C   C668      1.0  0.77099  0.12891  0.15464  1.0000
  H   H1140     1.0  0.82172  0.21275  0.13539  1.0000
  H   H1141     1.0  0.92751  0.27025  0.40251  1.0000
  H   H1142     1.0  0.89289  0.24504  0.36981  1.0000
  H   H1143     1.0  0.94879  0.45308  0.23013  1.0000
  H   H1144     1.0  0.76779  0.21055  0.28457  1.0000
  S   S189      1.0  0.67830  0.09466  0.04953  1.0000
  Fe  Fe92      1.0  0.99606  0.38130  0.36602  1.0000
  C   C669      1.0  0.78832  0.33781  0.01205  1.0000
  H   H1145     1.0  0.84996  0.22686  0.36620  1.0000
  H   H1146     1.0  0.68165  0.22630  0.04219  1.0000
  H   H1147     1.0  0.70835  0.03863  0.00880  1.0000
  C   C670      1.0  0.95152  0.02384  0.00006  1.0000
  H   H1148     1.0  0.97433  0.48346  0.48038  1.0000
  C   C671      1.0  0.89504  0.31529  0.43030  1.0000
  H   H1149     1.0  0.70714  0.30549  0.34009  1.0000
  C   C672      1.0  0.92015  0.26447  0.43814  1.0000
  H   H1150     1.0  0.90282  0.50124  0.99539  1.0000
  C   C673      1.0  0.96952  0.49328  0.44605  1.0000
  H   H1151     1.0  0.98947  0.08918  0.26554  1.0000
  H   H1152     1.0  0.96763  0.15406  0.99793  1.0000
  H   H1153     1.0  0.98140  0.48192  0.41947  1.0000
  H   H1154     1.0  0.84432  0.26073  0.37896  1.0000
  H   H1155     1.0  0.99177  0.08073  0.20308  1.0000
  H   H1156     1.0  0.98172  0.00682  0.44579  1.0000
  H   H1157     1.0  0.90011  0.31748  0.46801  1.0000
  H   H1158     1.0  0.69818  0.28613  0.42456  1.0000
  H   H1159     1.0  0.69950  0.03751  0.41631  1.0000
  C   C674      1.0  0.95731  0.19626  0.99019  1.0000
  C   C675      1.0  0.68488  0.30029  0.40531  1.0000
  H   H1160     1.0  0.93756  0.03874  0.98451  1.0000
  C   C676      1.0  0.69903  0.01662  0.42759  1.0000
  H   H1161     1.0  0.68116  0.27494  0.02882  1.0000
  C   C677      1.0  0.68226  0.23435  0.00563  1.0000
  H   H1162     1.0  0.98861  0.17516  0.02871  1.0000
  C   C678      1.0  0.69801  0.02156  0.02322  1.0000
  H   H1163     1.0  0.92673  0.49721  0.46099  1.0000
  H   H1164     1.0  0.96541  0.21382  0.00672  1.0000
  H   H1165     1.0  0.99846  0.21469  0.38055  1.0000
  H   H1166     1.0  0.94044  0.01346  0.02790  1.0000
  H   H1167     1.0  0.00390  0.01085  0.01866  1.0000
  H   H1168     1.0  0.67272  0.25920  0.46757  1.0000
  H   H1169     1.0  0.67329  0.28743  0.38210  1.0000
  N   N50       1.0  0.92784  0.19865  0.98465  1.0000
  S   S190      1.0  0.94843  0.41063  0.51680  1.0000
  Fe  Fe93      1.0  0.89051  0.33237  0.73222  1.0000
  S   S191      1.0  0.87754  0.36501  0.78118  1.0000
  S   S192      1.0  0.88763  0.33183  0.65162  1.0000
  Fe  Fe94      1.0  0.91040  0.29764  0.81448  1.0000
  S   S193      1.0  0.89952  0.32785  0.86989  1.0000
  S   S194      1.0  0.93554  0.26152  0.83284  1.0000
  Fe  Fe95      1.0  0.86179  0.33348  0.82915  1.0000
  S   S195      1.0  0.81953  0.33756  0.85768  1.0000
  Fe  Fe96      1.0  0.91614  0.35670  0.81814  1.0000
  S   S196      1.0  0.94301  0.38952  0.83773  1.0000
  S   S197      1.0  0.87174  0.30114  0.77669  1.0000
  S   S198      1.0  0.92981  0.32619  0.76595  1.0000
  Fe  Fe97      1.0  0.93979  0.11497  0.85236  1.0000
  S   S199      1.0  0.97072  0.13112  0.89913  1.0000
  S   S200      1.0  0.90571  0.14205  0.82956  1.0000
  Fe  Fe98      1.0  0.96638  0.05988  0.85002  1.0000
  H   H1170     1.0  0.84633  0.33255  0.94963  1.0000
  H   H1171     1.0  0.97491  0.33841  0.70485  1.0000
  Fe  Fe99      1.0  0.96757  0.09367  0.94032  1.0000
  H   H1172     1.0  0.81270  0.39233  0.66099  1.0000
  S   S201      1.0  0.93466  0.07849  0.89668  1.0000
  S   S202      1.0  0.96839  0.09502  0.80210  1.0000
  C   C679      1.0  0.67332  0.04642  0.93359  1.0000
  H   H1173     1.0  0.98520  0.49259  0.95265  1.0000
  H   H1174     1.0  0.82931  0.29917  0.68386  1.0000
  S   S203      1.0  0.69028  0.36557  0.59970  1.0000
  H   H1175     1.0  0.70004  0.31322  0.48947  1.0000
  Fe  Fe100     1.0  0.73711  0.18072  0.59867  1.0000
  S   S204      1.0  0.72479  0.20563  0.66174  1.0000
  S   S205      1.0  0.77961  0.18359  0.57113  1.0000
  C   C680      1.0  0.99062  0.35825  0.64102  1.0000
  H   H1176     1.0  0.81500  0.32039  0.76237  1.0000
  C   C681      1.0  0.91969  0.17469  0.95784  1.0000
  H   H1177     1.0  0.96093  0.42074  0.74657  1.0000
  Fe  Fe101     1.0  0.70804  0.16894  0.69321  1.0000
  S   S206      1.0  0.71740  0.15933  0.77107  1.0000
  S   S207      1.0  0.69917  0.18919  0.55994  1.0000
  S   S208      1.0  0.72307  0.14358  0.63279  1.0000
  C   C682      1.0  0.98506  0.35468  0.82669  1.0000
  C   C683      1.0  0.69548  0.14659  0.81423  1.0000
  C   C684      1.0  0.70458  0.14173  0.86063  1.0000
  H   H1178     1.0  0.88576  0.23777  0.49721  1.0000
  H   H1179     1.0  0.83385  0.38903  0.71187  1.0000
  H   H1180     1.0  0.77541  0.10814  0.67993  1.0000
  H   H1181     1.0  0.70979  0.27079  0.61849  1.0000
  H   H1182     1.0  0.72475  0.14561  0.86925  1.0000
  H   H1183     1.0  0.92859  0.23063  0.48600  1.0000
  H   H1184     1.0  0.72075  0.19655  0.93810  1.0000
  H   H1185     1.0  0.91456  0.47603  0.92705  1.0000
  H   H1186     1.0  0.69507  0.04765  0.93530  1.0000
  H   H1187     1.0  0.78047  0.37527  0.62409  1.0000
  H   H1188     1.0  0.98469  0.38007  0.73684  1.0000
  C   C685      1.0  0.69462  0.28616  0.61619  1.0000
  H   H1189     1.0  0.92908  0.48764  0.83566  1.0000
  H   H1190     1.0  0.75722  0.33355  0.69001  1.0000
  H   H1191     1.0  0.89960  0.22358  0.94627  1.0000
  H   H1192     1.0  0.97831  0.40804  0.61331  1.0000
  H   H1193     1.0  0.79389  0.20920  0.77447  1.0000
  C   C686      1.0  0.81947  0.18200  0.50407  1.0000
  S   S209      1.0  0.96768  0.01649  0.82923  1.0000
  C   C687      1.0  0.80821  0.33755  0.91761  1.0000
  H   H1194     1.0  0.74845  0.36256  0.62367  1.0000
  C   C688      1.0  0.78103  0.34041  0.92681  1.0000
  Fe  Fe102     1.0  0.68413  0.15390  0.59836  1.0000
  H   H1195     1.0  0.76751  0.34259  0.89750  1.0000
  C   C689      1.0  0.92641  0.22881  0.82454  1.0000
  C   C690      1.0  0.94626  0.20903  0.82553  1.0000
  C   C691      1.0  0.93999  0.18248  0.82497  1.0000
  C   C692      1.0  0.91376  0.17536  0.82423  1.0000
  C   C693      1.0  0.89379  0.19511  0.82168  1.0000
  C   C694      1.0  0.90010  0.22184  0.82186  1.0000
  H   H1196     1.0  0.96664  0.21427  0.82753  1.0000
  H   H1197     1.0  0.95556  0.16752  0.82551  1.0000
  H   H1198     1.0  0.87344  0.18973  0.82108  1.0000
  H   H1199     1.0  0.88467  0.23699  0.82158  1.0000
  C   C695      1.0  0.97681  0.38075  0.83443  1.0000
  C   C696      1.0  0.70141  0.31264  0.61175  1.0000
  H   H1200     1.0  0.97089  0.33945  0.82617  1.0000
  C   C697      1.0  0.93129  0.38857  0.55368  1.0000
  C   C698      1.0  0.92364  0.36416  0.53729  1.0000
  C   C699      1.0  0.91052  0.34696  0.56785  1.0000
  C   C700      1.0  0.90521  0.35372  0.61521  1.0000
  C   C701      1.0  0.91303  0.37805  0.63177  1.0000
  C   C702      1.0  0.92572  0.39548  0.60098  1.0000
  H   H1201     1.0  0.87701  0.29641  0.52083  1.0000
  H   H1202     1.0  0.90460  0.32825  0.55484  1.0000
  H   H1203     1.0  0.90872  0.38370  0.66794  1.0000
  H   H1204     1.0  0.93104  0.41452  0.61380  1.0000
  H   H1205     1.0  0.92776  0.35858  0.50104  1.0000
  C   C703      1.0  0.96929  0.01859  0.73043  1.0000
  H   H1206     1.0  0.88272  0.18737  0.92198  1.0000
  H   H1207     1.0  0.69598  0.02954  0.51888  1.0000
  C   C704      1.0  0.68784  0.13178  0.89596  1.0000
  H   H1208     1.0  0.84631  0.38161  0.65422  1.0000
  H   H1209     1.0  0.79549  0.29005  0.67543  1.0000
  C   C705      1.0  0.97336  0.41924  0.71416  1.0000
  H   H1210     1.0  0.96785  0.01722  0.93070  1.0000
  C   C706      1.0  0.92739  0.24934  0.97385  1.0000
  H   H1211     1.0  0.83240  0.18441  0.53388  1.0000
  H   H1212     1.0  0.97945  0.31802  0.65422  1.0000
  H   H1213     1.0  0.67560  0.28032  0.51846  1.0000
  H   H1214     1.0  0.67469  0.07022  0.86964  1.0000
  H   H1215     1.0  0.67710  0.17309  0.95880  1.0000
  C   C707      1.0  0.82540  0.33477  0.95601  1.0000
  H   H1216     1.0  0.88677  0.15310  0.93187  1.0000
  H   H1217     1.0  0.69432  0.23471  0.91857  1.0000
  H   H1218     1.0  0.78681  0.11161  0.73921  1.0000
  H   H1219     1.0  0.87801  0.17356  0.98084  1.0000
  C   C708      1.0  0.77112  0.34054  0.97365  1.0000
  H   H1220     1.0  0.85608  0.19042  0.64265  1.0000
  C   C709      1.0  0.92096  0.22224  0.95410  1.0000
  H   H1221     1.0  0.98088  0.49083  0.89055  1.0000
  H   H1222     1.0  0.67589  0.44700  0.86383  1.0000
  C   C710      1.0  0.68499  0.18897  0.98040  1.0000
  S   S210      1.0  0.99920  0.07239  0.89733  1.0000
  H   H1223     1.0  0.93863  0.43570  0.91382  1.0000
  C   C711      1.0  0.89002  0.17255  0.94803  1.0000
  H   H1224     1.0  0.78209  0.31233  0.74995  1.0000
  H   H1225     1.0  0.82221  0.20066  0.64487  1.0000
  H   H1226     1.0  0.83925  0.34250  0.70359  1.0000
  H   H1227     1.0  0.76156  0.37775  0.79885  1.0000
  C   C712      1.0  0.93576  0.47656  0.93655  1.0000
  C   C713      1.0  0.67424  0.03081  0.51893  1.0000
  H   H1228     1.0  0.68083  0.45452  0.95270  1.0000
  H   H1229     1.0  0.67968  0.07304  0.51892  1.0000
  C   C714      1.0  0.76505  0.36732  0.64721  1.0000
  C   C715      1.0  0.97532  0.50271  0.92209  1.0000
  C   C716      1.0  0.82217  0.35104  0.68347  1.0000
  H   H1230     1.0  0.80669  0.36679  0.77020  1.0000
  C   C717      1.0  0.79215  0.18084  0.51198  1.0000
  C   C718      1.0  0.99568  0.40014  0.83705  1.0000
  H   H1231     1.0  0.95933  0.38228  0.69451  1.0000
  C   C719      1.0  0.82867  0.38026  0.67737  1.0000
  H   H1232     1.0  0.69524  0.12789  0.93124  1.0000
  H   H1233     1.0  0.78705  0.38500  0.72936  1.0000
  H   H1234     1.0  0.78065  0.32806  0.64428  1.0000
  H   H1235     1.0  0.69464  0.20052  0.86731  1.0000
  H   H1236     1.0  0.72187  0.31761  0.61051  1.0000
  C   C720      1.0  0.68176  0.33262  0.60816  1.0000
  H   H1237     1.0  0.92238  0.26443  0.94642  1.0000
  H   H1238     1.0  0.76790  0.34332  0.79935  1.0000
  C   C721      1.0  0.99860  0.40453  0.62698  1.0000
  Fe  Fe103     1.0  0.99915  0.10873  0.85231  1.0000
  C   C722      1.0  0.76517  0.36052  0.77543  1.0000
  H   H1239     1.0  0.81391  0.27796  0.72495  1.0000
  H   H1240     1.0  0.80947  0.22024  0.72027  1.0000
  H   H1241     1.0  0.85759  0.25794  0.48509  1.0000
  C   C723      1.0  0.81038  0.29544  0.70187  1.0000
  H   H1242     1.0  0.83564  0.11948  0.75300  1.0000
  H   H1243     1.0  0.96984  0.01916  0.65390  1.0000
  C   C724      1.0  0.78992  0.36515  0.74521  1.0000
  C   C725      1.0  0.80061  0.31868  0.73306  1.0000
  H   H1244     1.0  0.77482  0.22392  0.72817  1.0000
  N   N51       1.0  0.94593  0.50395  0.92977  1.0000
  H   H1245     1.0  0.82562  0.12251  0.81281  1.0000
  H   H1246     1.0  0.96201  0.42902  0.68514  1.0000
  H   H1247     1.0  0.87772  0.26909  0.56021  1.0000
  Fe  Fe104     1.0  0.68596  0.21123  0.62502  1.0000
  H   H1248     1.0  0.74733  0.35857  0.75354  1.0000
  H   H1249     1.0  0.83188  0.16812  0.62447  1.0000
  H   H1250     1.0  0.90758  0.27781  0.53219  1.0000
  C   C726      1.0  0.95015  0.45374  0.91004  1.0000
  C   C727      1.0  0.87943  0.25799  0.48613  1.0000
  C   C728      1.0  0.77470  0.34208  0.67274  1.0000
  N   N52       1.0  0.99885  0.38324  0.66435  1.0000
  H   H1251     1.0  0.75730  0.38251  0.67205  1.0000
  H   H1252     1.0  0.82349  0.34178  0.64783  1.0000
  H   H1253     1.0  0.98945  0.42035  0.84304  1.0000
  C   C729      1.0  0.71502  0.18817  0.97272  1.0000
  H   H1254     1.0  0.76224  0.13445  0.71523  1.0000
  H   H1255     1.0  0.70949  0.35797  0.49848  1.0000
  H   H1256     1.0  0.85139  0.14264  0.79011  1.0000
  N   N53       1.0  0.79660  0.34478  0.70804  1.0000
  N   N54       1.0  0.80918  0.16311  0.71795  1.0000
  C   C730      1.0  0.78742  0.18377  0.71256  1.0000
  C   C731      1.0  0.80247  0.13991  0.68779  1.0000
  C   C732      1.0  0.83524  0.17315  0.70182  1.0000
  C   C733      1.0  0.81136  0.15566  0.76951  1.0000
  C   C734      1.0  0.79213  0.21063  0.73545  1.0000
  C   C735      1.0  0.78045  0.12276  0.70718  1.0000
  C   C736      1.0  0.83603  0.18364  0.65051  1.0000
  C   C737      1.0  0.83226  0.13393  0.78165  1.0000
  H   H1257     1.0  0.78289  0.18750  0.67456  1.0000
  H   H1258     1.0  0.76876  0.17681  0.72806  1.0000
  H   H1259     1.0  0.82001  0.12678  0.68107  1.0000
  H   H1260     1.0  0.79611  0.14651  0.65179  1.0000
  H   H1261     1.0  0.84204  0.18879  0.72577  1.0000
  H   H1262     1.0  0.85087  0.15733  0.70420  1.0000
  H   H1263     1.0  0.81677  0.17287  0.79096  1.0000
  H   H1264     1.0  0.79203  0.15025  0.78473  1.0000
  H   H1265     1.0  0.93007  0.17332  0.92310  1.0000
  C   C738      1.0  0.97900  0.38994  0.70305  1.0000
  H   H1266     1.0  0.99126  0.43021  0.72095  1.0000
  H   H1267     1.0  0.96747  0.03971  0.73365  1.0000
  H   H1268     1.0  0.96974  0.44914  0.92581  1.0000
  C   C739      1.0  0.88612  0.27662  0.52660  1.0000
  C   C740      1.0  0.97059  0.00686  0.68521  1.0000
  H   H1269     1.0  0.72240  0.16739  0.97366  1.0000
  H   H1270     1.0  0.96703  0.19520  0.95469  1.0000
  H   H1271     1.0  0.68552  0.42011  0.95801  1.0000
  H   H1272     1.0  0.97138  0.36149  0.62273  1.0000
  H   H1273     1.0  0.75020  0.34283  0.98003  1.0000
  H   H1274     1.0  0.93109  0.22038  0.91926  1.0000
  H   H1275     1.0  0.92548  0.15644  0.97719  1.0000
  H   H1276     1.0  0.93674  0.47056  0.97459  1.0000
  H   H1277     1.0  0.95256  0.45732  0.87168  1.0000
  H   H1278     1.0  0.94856  0.25123  0.98139  1.0000
  C   C741      1.0  0.98808  0.33429  0.67429  1.0000
  C   C742      1.0  0.67495  0.22527  0.92152  1.0000
  H   H1279     1.0  0.67354  0.03604  0.85737  1.0000
  C   C743      1.0  0.96101  0.00493  0.96073  1.0000
  H   H1280     1.0  0.00428  0.42361  0.64185  1.0000
  H   H1281     1.0  0.00486  0.35183  0.61307  1.0000
  C   C744      1.0  0.67445  0.20497  0.88088  1.0000
  H   H1282     1.0  0.69964  0.79228  0.39037  1.0000
  H   H1283     1.0  0.75715  0.73415  0.14316  1.0000
  H   H1284     1.0  0.91051  0.53001  0.02689  1.0000
  Fe  Fe105     1.0  0.74021  0.68499  0.31189  1.0000
  S   S211      1.0  0.74173  0.70095  0.23726  1.0000
  S   S212      1.0  0.78122  0.67818  0.34427  1.0000
  Fe  Fe106     1.0  0.70748  0.72713  0.25772  1.0000
  H   H1285     1.0  0.76513  0.74510  0.05802  1.0000
  Fe  Fe107     1.0  0.71184  0.67144  0.21847  1.0000
  S   S213      1.0  0.71830  0.65216  0.14660  1.0000
  S   S214      1.0  0.70778  0.71388  0.33363  1.0000
  S   S215      1.0  0.71280  0.65297  0.29136  1.0000
  H   H1286     1.0  0.79416  0.88088  0.12894  1.0000
  H   H1287     1.0  0.76622  0.80819  0.23644  1.0000
  C   C745      1.0  0.92701  0.74139  0.99106  1.0000
  C   C746      1.0  0.74792  0.73306  0.06660  1.0000
  S   S216      1.0  0.72309  0.86826  0.34844  1.0000
  C   C747      1.0  0.95235  0.51158  0.17006  1.0000
  S   S217      1.0  0.95815  0.60344  0.13046  1.0000
  Fe  Fe108     1.0  0.98901  0.61157  0.07549  1.0000
  S   S218      1.0  0.92042  0.58745  0.04142  1.0000
  Fe  Fe109     1.0  0.93061  0.62436  0.07968  1.0000
  S   S219      1.0  0.90007  0.65591  0.09947  1.0000
  Fe  Fe110     1.0  0.95115  0.56715  0.08784  1.0000
  S   S220      1.0  0.94469  0.52516  0.11326  1.0000
  S   S221      1.0  0.96191  0.63492  0.02777  1.0000
  C   C748      1.0  0.70140  0.79255  0.09742  1.0000
  Fe  Fe111     1.0  0.87304  0.83425  0.11486  1.0000
  S   S222      1.0  0.88605  0.80494  0.17111  1.0000
  S   S223      1.0  0.83102  0.82941  0.08756  1.0000
  Fe  Fe112     1.0  0.92474  0.86309  0.12236  1.0000
  S   S224      1.0  0.94149  0.83555  0.17749  1.0000
  S   S225      1.0  0.94762  0.89952  0.10736  1.0000
  Fe  Fe113     1.0  0.92466  0.80397  0.13257  1.0000
  S   S226      1.0  0.95022  0.76758  0.11865  1.0000
  Fe  Fe114     1.0  0.90175  0.83900  0.21168  1.0000
  S   S227      1.0  0.89398  0.84523  0.29087  1.0000
  S   S228      1.0  0.91117  0.83128  0.07388  1.0000
  S   S229      1.0  0.88550  0.86842  0.15894  1.0000
  S   S230      1.0  0.98161  0.88299  0.43472  1.0000
  C   C749      1.0  0.91834  0.85690  0.32982  1.0000
  C   C750      1.0  0.94481  0.85749  0.31654  1.0000
  C   C751      1.0  0.96381  0.86565  0.34901  1.0000
  C   C752      1.0  0.95666  0.87328  0.39520  1.0000
  C   C753      1.0  0.93008  0.87345  0.40817  1.0000
  C   C754      1.0  0.91107  0.86508  0.37575  1.0000
  H   H1288     1.0  0.95074  0.85139  0.28135  1.0000
  H   H1289     1.0  0.98424  0.86581  0.33831  1.0000
  H   H1290     1.0  0.92419  0.87985  0.44321  1.0000
  H   H1291     1.0  0.89062  0.86495  0.38630  1.0000
  C   C755      1.0  0.92866  0.77728  0.40073  1.0000
  C   C756      1.0  0.96336  0.52640  0.20605  1.0000
  H   H1292     1.0  0.95239  0.51069  0.00468  1.0000
  C   C757      1.0  0.90116  0.77117  0.47317  1.0000
  H   H1293     1.0  0.96741  0.54680  0.19964  1.0000
  C   C758      1.0  0.72516  0.77280  0.09653  1.0000
  C   C759      1.0  0.96922  0.99346  0.42544  1.0000
  C   C760      1.0  0.91376  0.68689  0.10783  1.0000
  C   C761      1.0  0.89740  0.70963  0.11018  1.0000
  C   C762      1.0  0.90827  0.73451  0.11484  1.0000
  C   C763      1.0  0.93558  0.73674  0.11697  1.0000
  C   C764      1.0  0.95184  0.71398  0.11512  1.0000
  C   C765      1.0  0.94099  0.68916  0.11078  1.0000
  H   H1294     1.0  0.87635  0.70812  0.10761  1.0000
  H   H1295     1.0  0.89560  0.75199  0.11573  1.0000
  H   H1296     1.0  0.97297  0.71553  0.11677  1.0000
  H   H1297     1.0  0.95380  0.67178  0.10967  1.0000
  C   C766      1.0  0.97627  0.89759  0.07232  1.0000
  H   H1298     1.0  0.76097  0.80377  0.17500  1.0000
  H   H1299     1.0  0.97526  0.99691  0.06976  1.0000
  H   H1300     1.0  0.99984  0.91610  0.12485  1.0000
  H   H1301     1.0  0.83772  0.85811  0.23841  1.0000
  H   H1302     1.0  0.83049  0.83648  0.19156  1.0000
  C   C767      1.0  0.68221  0.80244  0.40692  1.0000
  C   C768      1.0  0.81822  0.83645  0.03001  1.0000
  H   H1303     1.0  0.67566  0.82312  0.47523  1.0000
  H   H1304     1.0  0.95534  0.96111  0.35221  1.0000
  H   H1305     1.0  0.78011  0.82185  0.04737  1.0000
  C   C769      1.0  0.79232  0.67697  0.40421  1.0000
  H   H1306     1.0  0.92651  0.99731  0.40803  1.0000
  C   C770      1.0  0.81939  0.67289  0.41316  1.0000
  C   C771      1.0  0.95518  0.94313  0.37438  1.0000
  H   H1307     1.0  0.83290  0.67056  0.38370  1.0000
  C   C772      1.0  0.67632  0.62903  0.03237  1.0000
  H   H1308     1.0  0.69805  0.76510  0.00672  1.0000
  H   H1309     1.0  0.70044  0.72998  0.11886  1.0000
  C   C773      1.0  0.71721  0.84030  0.31446  1.0000
  C   C774      1.0  0.73044  0.81637  0.32492  1.0000
  C   C775      1.0  0.72523  0.79371  0.29884  1.0000
  H   H1310     1.0  0.98026  0.78408  0.42905  1.0000
  H   H1311     1.0  0.92823  0.95673  0.42764  1.0000
  H   H1312     1.0  0.74418  0.81521  0.35406  1.0000
  H   H1313     1.0  0.73502  0.77514  0.30769  1.0000
  C   C776      1.0  0.70776  0.79531  0.26077  1.0000
  H   H1314     1.0  0.77255  0.70770  0.11138  1.0000
  H   H1315     1.0  0.75430  0.68294  0.43667  1.0000
  H   H1316     1.0  0.97736  0.72521  0.99699  1.0000
  C   C777      1.0  0.69693  0.63575  0.06278  1.0000
  C   C778      1.0  0.69977  0.84183  0.27643  1.0000
  H   H1317     1.0  0.79354  0.79932  0.19695  1.0000
  H   H1318     1.0  0.71704  0.63397  0.05035  1.0000
  H   H1319     1.0  0.67878  0.82076  0.38612  1.0000
  H   H1320     1.0  0.83699  0.82639  0.29550  1.0000
  C   C779      1.0  0.99424  0.95426  0.45115  1.0000
  S   S231      1.0  0.67762  0.69874  0.23426  1.0000
  H   H1321     1.0  0.93717  0.82327  0.43745  1.0000
  C   C780      1.0  0.99707  0.89176  0.99535  1.0000
  H   H1322     1.0  0.78844  0.84034  0.15417  1.0000
  H   H1323     1.0  0.75978  0.85045  0.18652  1.0000
  H   H1324     1.0  0.85213  0.69803  0.23405  1.0000
  H   H1325     1.0  0.76190  0.86432  0.26789  1.0000
  C   C781      1.0  0.92118  0.81322  0.45645  1.0000
  C   C782      1.0  0.79197  0.83060  0.02010  1.0000
  Fe  Fe115     1.0  0.68038  0.68295  0.30838  1.0000
  N   N55       1.0  0.92493  0.78385  0.45246  1.0000
  H   H1326     1.0  0.81705  0.86834  0.31274  1.0000
  H   H1327     1.0  0.68705  0.78704  0.12523  1.0000
  C   C783      1.0  0.79758  0.88298  0.20694  1.0000
  H   H1328     1.0  0.98329  0.94719  0.01006  1.0000
  H   H1329     1.0  0.78671  0.86826  0.34529  1.0000
  N   N56       1.0  0.79613  0.85502  0.22462  1.0000
  H   H1330     1.0  0.73861  0.70610  0.12570  1.0000
  H   H1331     1.0  0.99395  0.96650  0.07992  1.0000
  C   C784      1.0  0.79561  0.87265  0.31024  1.0000
  C   C785      1.0  0.77506  0.81131  0.20114  1.0000
  N   N57       1.0  0.72277  0.74960  0.06416  1.0000
  H   H1332     1.0  0.84325  0.80583  0.24649  1.0000
  H   H1333     1.0  0.70834  0.81249  0.10512  1.0000
  H   H1334     1.0  0.94348  0.79010  0.38420  1.0000
  N   N58       1.0  0.82259  0.65428  0.19686  1.0000
  C   C786      1.0  0.82112  0.66892  0.24328  1.0000
  C   C787      1.0  0.79497  0.64676  0.18494  1.0000
  C   C788      1.0  0.83288  0.67269  0.15957  1.0000
  C   C789      1.0  0.84111  0.63077  0.20349  1.0000
  C   C790      1.0  0.84640  0.68231  0.25892  1.0000
  C   C791      1.0  0.78160  0.62876  0.22112  1.0000
  C   C792      1.0  0.82720  0.66627  0.10733  1.0000
  C   C793      1.0  0.84343  0.61074  0.16277  1.0000
  H   H1335     1.0  0.80512  0.68447  0.24247  1.0000
  H   H1336     1.0  0.81603  0.65553  0.27293  1.0000
  H   H1337     1.0  0.79387  0.63682  0.15027  1.0000
  H   H1338     1.0  0.78200  0.66473  0.18081  1.0000
  H   H1339     1.0  0.82448  0.69297  0.16502  1.0000
  H   H1340     1.0  0.85460  0.67419  0.16269  1.0000
  H   H1341     1.0  0.86151  0.63723  0.20923  1.0000
  H   H1342     1.0  0.83668  0.61985  0.23667  1.0000
  H   H1343     1.0  0.86309  0.66803  0.26403  1.0000
  C   C794      1.0  0.69550  0.81950  0.24904  1.0000
  H   H1344     1.0  0.95139  0.96226  0.00715  1.0000
  H   H1345     1.0  0.76228  0.62318  0.20679  1.0000
  H   H1346     1.0  0.79327  0.61032  0.22756  1.0000
  H   H1347     1.0  0.77735  0.63894  0.25510  1.0000
  H   H1348     1.0  0.83437  0.64643  0.09700  1.0000
  H   H1349     1.0  0.83773  0.68022  0.08433  1.0000
  H   H1350     1.0  0.80598  0.66890  0.09900  1.0000
  H   H1351     1.0  0.85950  0.61582  0.13794  1.0000
  H   H1352     1.0  0.82511  0.60835  0.14277  1.0000
  H   H1353     1.0  0.84826  0.59097  0.17780  1.0000
  H   H1354     1.0  0.81085  0.80804  0.26973  1.0000
  C   C795      1.0  0.97808  0.70367  0.99169  1.0000
  H   H1355     1.0  0.98587  0.56396  0.34898  1.0000
  H   H1356     1.0  0.97418  0.80834  0.47490  1.0000
  C   C796      1.0  0.82918  0.67167  0.45992  1.0000
  Fe  Fe116     1.0  0.68606  0.89189  0.36672  1.0000
  C   C797      1.0  0.77514  0.67985  0.44282  1.0000
  C   C798      1.0  0.99925  0.90874  0.08900  1.0000
  H   H1357     1.0  0.96443  0.55897  0.47644  1.0000
  C   C799      1.0  0.94892  0.94928  0.42676  1.0000
  C   C800      1.0  0.94879  0.77400  0.47944  1.0000
  H   H1358     1.0  0.77780  0.89313  0.20821  1.0000
  H   H1359     1.0  0.72164  0.74123  0.98879  1.0000
  H   H1360     1.0  0.84260  0.69181  0.29377  1.0000
  C   C801      1.0  0.69170  0.64446  0.10918  1.0000
  C   C802      1.0  0.97540  0.88865  0.02564  1.0000
  H   H1361     1.0  0.97443  0.57448  0.40569  1.0000
  H   H1362     1.0  0.68979  0.86031  0.26776  1.0000
  C   C803      1.0  0.82368  0.84302  0.22727  1.0000
  H   H1363     1.0  0.88902  0.76568  0.37930  1.0000
  S   S232      1.0  0.98404  0.57401  0.03597  1.0000
  H   H1364     1.0  0.82738  0.87571  0.15075  1.0000
  C   C804      1.0  0.77951  0.84041  0.19013  1.0000
  H   H1365     1.0  0.81043  0.89452  0.23017  1.0000
  H   H1366     1.0  0.88253  0.77944  0.45772  1.0000
  C   C805      1.0  0.73684  0.77972  0.99531  1.0000
  S   S233      1.0  0.68588  0.93028  0.40591  1.0000
  C   C806      1.0  0.97577  0.97548  0.06427  1.0000
  H   H1367     1.0  0.70793  0.97161  0.48232  1.0000
  H   H1368     1.0  0.74341  0.78361  0.08941  1.0000
  H   H1369     1.0  0.95676  0.53125  0.38040  1.0000
  H   H1370     1.0  0.88374  0.67644  0.99796  1.0000
  C   C807      1.0  0.90118  0.74087  0.47088  1.0000
  C   C808      1.0  0.78237  0.85613  0.27205  1.0000
  C   C809      1.0  0.75401  0.71971  0.11470  1.0000
  C   C810      1.0  0.97250  0.96649  0.01241  1.0000
  H   H1371     1.0  0.69096  0.79425  0.06323  1.0000
  C   C811      1.0  0.90385  0.78023  0.36965  1.0000
  C   C812      1.0  0.82822  0.81966  0.26192  1.0000
  C   C813      1.0  0.98685  0.55933  0.38743  1.0000
  C   C814      1.0  0.95766  0.53851  0.47425  1.0000
  C   C815      1.0  0.80844  0.88662  0.15628  1.0000
  H   H1372     1.0  0.81209  0.90773  0.15014  1.0000
  N   N59       1.0  0.97691  0.52168  0.44603  1.0000
  H   H1373     1.0  0.79193  0.89396  0.30378  1.0000
  H   H1374     1.0  0.77987  0.83644  0.28761  1.0000
  H   H1375     1.0  0.98423  0.62941  0.44669  1.0000
  H   H1376     1.0  0.97751  0.52649  0.27802  1.0000
  H   H1377     1.0  0.68633  0.75509  0.43183  1.0000
  C   C816      1.0  0.97692  0.53138  0.39549  1.0000
  C   C817      1.0  0.71870  0.75815  0.01332  1.0000
  H   H1378     1.0  0.90270  0.82012  0.43880  1.0000
  H   H1379     1.0  0.93203  0.72750  0.01982  1.0000
  H   H1380     1.0  0.68067  0.62204  0.99698  1.0000
  H   H1381     1.0  0.94859  0.93022  0.44627  1.0000
  Fe  Fe117     1.0  0.95371  0.59686  0.99269  1.0000
  H   H1382     1.0  0.95947  0.96758  0.08581  1.0000
  S   S234      1.0  0.70095  0.76768  0.22663  1.0000
  C   C818      1.0  0.83325  0.84790  0.99437  1.0000
  H   H1383     1.0  0.74821  0.71736  0.03929  1.0000
  C   C819      1.0  0.69101  0.81109  0.45663  1.0000
  H   H1384     1.0  0.96880  0.69370  0.02192  1.0000
  H   H1385     1.0  0.99920  0.69735  0.99257  1.0000
  H   H1386     1.0  0.75794  0.77440  0.00023  1.0000
  N   N60       1.0  0.96722  0.96757  0.45100  1.0000
  C   C820      1.0  0.97479  0.78707  0.46672  1.0000
  H   H1387     1.0  0.85343  0.85259  0.00140  1.0000
  H   H1388     1.0  0.72759  0.76614  0.13384  1.0000
  H   H1389     1.0  0.93703  0.75701  0.39592  1.0000
  C   C821      1.0  0.96905  0.51481  0.25054  1.0000
  H   H1390     1.0  0.95754  0.88054  0.01225  1.0000
  H   H1391     1.0  0.90944  0.77656  0.33211  1.0000
  H   H1392     1.0  0.89485  0.80034  0.37094  1.0000
  C   C822      1.0  0.69951  0.73430  0.08015  1.0000
  H   H1393     1.0  0.85000  0.66843  0.46607  1.0000
  H   H1394     1.0  0.92826  0.68661  0.00692  1.0000
  H   H1395     1.0  0.73210  0.79887  0.01238  1.0000
  H   H1396     1.0  0.93962  0.93062  0.36017  1.0000
  H   H1397     1.0  0.98888  0.51793  0.37240  1.0000
  H   H1398     1.0  0.69746  0.79423  0.47920  1.0000
  H   H1399     1.0  0.88063  0.73436  0.46826  1.0000
  H   H1400     1.0  0.97394  0.93161  0.37019  1.0000
  H   H1401     1.0  0.70823  0.82374  0.45248  1.0000
  H   H1402     1.0  0.91157  0.73262  0.43958  1.0000
  H   H1403     1.0  0.97992  0.99117  0.39113  1.0000
  H   H1404     1.0  0.00225  0.95215  0.41461  1.0000
  H   H1405     1.0  0.68094  0.74625  0.07559  1.0000
  C   C823      1.0  0.91151  0.52075  0.99138  1.0000
  H   H1406     1.0  0.99325  0.93395  0.46547  1.0000
  H   H1407     1.0  0.93827  0.54094  0.45631  1.0000
  H   H1408     1.0  0.68050  0.96943  0.99042  1.0000
  H   H1409     1.0  0.68209  0.82086  0.21943  1.0000
  H   H1410     1.0  0.95218  0.75250  0.47421  1.0000
  H   H1411     1.0  0.71216  0.69384  0.05994  1.0000
  H   H1412     1.0  0.69266  0.71124  0.01554  1.0000
  H   H1413     1.0  0.90652  0.74893  0.99703  1.0000
  H   H1414     1.0  0.70902  0.00315  0.01384  1.0000
  C   C824      1.0  0.98610  0.61754  0.47847  1.0000
  C   C825      1.0  0.69562  0.70821  0.05404  1.0000
  H   H1415     1.0  0.93977  0.75846  0.99558  1.0000
  H   H1416     1.0  0.67420  0.76927  0.33908  1.0000
  H   H1417     1.0  0.67768  0.69904  0.06808  1.0000
  C   C826      1.0  0.00365  0.52362  0.46814  1.0000
  H   H1418     1.0  0.00475  0.79962  0.13122  1.0000
  C   C827      1.0  0.96664  0.69609  0.94340  1.0000
  H   H1419     1.0  0.81602  0.72376  0.70526  1.0000
  H   H1420     1.0  0.91140  0.73472  0.92165  1.0000
  C   C828      1.0  0.92241  0.68421  0.96961  1.0000
  H   H1421     1.0  0.93780  0.81943  0.52758  1.0000
  H   H1422     1.0  0.69316  0.86864  0.52154  1.0000
  H   H1423     1.0  0.71035  0.98983  0.53766  1.0000
  Fe  Fe118     1.0  0.74229  0.84473  0.85508  1.0000
  S   S235      1.0  0.74019  0.80966  0.80726  1.0000
  S   S236      1.0  0.78257  0.85584  0.88286  1.0000
  Fe  Fe119     1.0  0.71324  0.83529  0.76120  1.0000
  S   S237      1.0  0.71770  0.83565  0.68039  1.0000
  C   C829      1.0  0.98856  0.52922  0.91496  1.0000
  Fe  Fe120     1.0  0.70386  0.80040  0.84863  1.0000
  S   S238      1.0  0.71794  0.87105  0.80614  1.0000
  S   S239      1.0  0.70743  0.83414  0.89873  1.0000
  H   H1424     1.0  0.99597  0.88560  0.95881  1.0000
  Fe  Fe121     1.0  0.86481  0.66702  0.58822  1.0000
  S   S240      1.0  0.87776  0.69623  0.64265  1.0000
  S   S241      1.0  0.82310  0.67296  0.55846  1.0000
  Fe  Fe122     1.0  0.91514  0.63322  0.60135  1.0000
  S   S242      1.0  0.93174  0.65990  0.65549  1.0000
  S   S243      1.0  0.93966  0.59628  0.58770  1.0000
  Fe  Fe123     1.0  0.89132  0.66138  0.68699  1.0000
  S   S244      1.0  0.88288  0.66018  0.76658  1.0000
  Fe  Fe124     1.0  0.91714  0.69210  0.60695  1.0000
  S   S245      1.0  0.94607  0.72338  0.59060  1.0000
  S   S246      1.0  0.87522  0.63242  0.63579  1.0000
  S   S247      1.0  0.90369  0.66528  0.54959  1.0000
  S   S248      1.0  0.95330  0.59234  0.91242  1.0000
  C   C830      1.0  0.81199  0.67447  0.49853  1.0000
  S   S249      1.0  0.97967  0.88768  0.65381  1.0000
  H   H1425     1.0  0.99214  0.57393  0.59086  1.0000
  S   S250      1.0  0.94558  0.90314  0.55795  1.0000
  Fe  Fe125     1.0  0.97618  0.92188  0.60356  1.0000
  S   S251      1.0  0.97385  0.96564  0.62226  1.0000
  Fe  Fe126     1.0  0.95221  0.86761  0.60477  1.0000
  S   S252      1.0  0.91836  0.84306  0.62882  1.0000
  Fe  Fe127     1.0  0.97935  0.88612  0.51537  1.0000
  S   S253      1.0  0.98416  0.84955  0.55926  1.0000
  C   C831      1.0  0.97249  0.97938  0.68018  1.0000
  H   H1426     1.0  0.83527  0.61311  0.77163  1.0000
  C   C832      1.0  0.97326  0.96374  0.72104  1.0000
  H   H1427     1.0  0.00268  0.63505  0.60069  1.0000
  H   H1428     1.0  0.93642  0.67115  0.88230  1.0000
  C   C833      1.0  0.93782  0.75563  0.60840  1.0000
  C   C834      1.0  0.91160  0.76451  0.61317  1.0000
  C   C835      1.0  0.90566  0.79127  0.62154  1.0000
  C   C836      1.0  0.92590  0.80912  0.62527  1.0000
  C   C837      1.0  0.95206  0.79989  0.62283  1.0000
  C   C838      1.0  0.95800  0.77330  0.61393  1.0000
  H   H1429     1.0  0.89593  0.75099  0.60860  1.0000
  H   H1430     1.0  0.88538  0.79830  0.62344  1.0000
  H   H1431     1.0  0.96778  0.81328  0.62754  1.0000
  H   H1432     1.0  0.97830  0.76654  0.61058  1.0000
  C   C839      1.0  0.90225  0.64066  0.80648  1.0000
  C   C840      1.0  0.89476  0.63923  0.85444  1.0000
  C   C841      1.0  0.91021  0.62469  0.88746  1.0000
  C   C842      1.0  0.93325  0.61125  0.87266  1.0000
  C   C843      1.0  0.94042  0.61228  0.82457  1.0000
  C   C844      1.0  0.92512  0.62699  0.79170  1.0000
  H   H1433     1.0  0.87693  0.64946  0.86610  1.0000
  H   H1434     1.0  0.90418  0.62369  0.92418  1.0000
  H   H1435     1.0  0.95805  0.60176  0.81263  1.0000
  H   H1436     1.0  0.93106  0.62774  0.75489  1.0000
  C   C845      1.0  0.96687  0.60029  0.55035  1.0000
  S   S254      1.0  0.69342  0.76418  0.89010  1.0000
  C   C846      1.0  0.79583  0.84780  0.93970  1.0000
  C   C847      1.0  0.82208  0.85359  0.94960  1.0000
  C   C848      1.0  0.98829  0.96851  0.93016  1.0000
  H   H1437     1.0  0.83385  0.86267  0.92252  1.0000
  C   C849      1.0  0.97189  0.97545  0.76622  1.0000
  C   C850      1.0  0.96483  0.61624  0.51006  1.0000
  C   C851      1.0  0.70348  0.85427  0.59167  1.0000
  H   H1438     1.0  0.92648  0.98003  0.55039  1.0000
  H   H1439     1.0  0.96585  0.95462  0.52405  1.0000
  C   C852      1.0  0.99051  0.58627  0.55965  1.0000
  C   C853      1.0  0.78085  0.83616  0.97524  1.0000
  H   H1440     1.0  0.71597  0.83829  0.57851  1.0000
  C   C854      1.0  0.89220  0.68798  0.96844  1.0000
  H   H1441     1.0  0.99081  0.77794  0.48851  1.0000
  H   H1442     1.0  0.94097  0.72826  0.84608  1.0000
  H   H1443     1.0  0.89919  0.53337  0.96756  1.0000
  C   C855      1.0  0.68771  0.68587  0.88077  1.0000
  S   S255      1.0  0.67676  0.82219  0.79834  1.0000
  H   H1444     1.0  0.90979  0.69467  0.87940  1.0000
  H   H1445     1.0  0.92703  0.66309  0.96229  1.0000
  C   C856      1.0  0.94473  0.70673  0.84525  1.0000
  C   C857      1.0  0.70050  0.85764  0.64092  1.0000
  H   H1446     1.0  0.89917  0.77588  0.51147  1.0000
  C   C858      1.0  0.81377  0.70455  0.72329  1.0000
  C   C859      1.0  0.95888  0.97162  0.50196  1.0000
  C   C860      1.0  0.70577  0.72626  0.82277  1.0000
  C   C861      1.0  0.70609  0.70019  0.80627  1.0000
  H   H1447     1.0  0.71253  0.74188  0.80023  1.0000
  N   N61       1.0  0.98202  0.98458  0.97392  1.0000
  H   H1448     1.0  0.95780  0.50771  0.82970  1.0000
  H   H1449     1.0  0.97830  0.70702  0.91704  1.0000
  H   H1450     1.0  0.98735  0.54162  0.94702  1.0000
  H   H1451     1.0  0.00361  0.51544  0.50478  1.0000
  H   H1452     1.0  0.76061  0.83182  0.96827  1.0000
  H   H1453     1.0  0.70171  0.00215  0.93294  1.0000
  H   H1454     1.0  0.83351  0.69864  0.73713  1.0000
  H   H1455     1.0  0.90227  0.81808  0.52669  1.0000
  H   H1456     1.0  0.97301  0.94030  0.88078  1.0000
  H   H1457     1.0  0.73373  0.78268  0.95671  1.0000
  H   H1458     1.0  0.91004  0.51799  0.89545  1.0000
  H   H1459     1.0  0.68183  0.88144  0.69499  1.0000
  C   C862      1.0  0.68749  0.71173  0.89724  1.0000
  C   C863      1.0  0.95316  0.52998  0.52618  1.0000
  C   C864      1.0  0.93122  0.69242  0.88654  1.0000
  H   H1460     1.0  0.77140  0.68078  0.51904  1.0000
  H   H1461     1.0  0.96613  0.70199  0.84357  1.0000
  Fe  Fe128     1.0  0.68265  0.85666  0.84578  1.0000
  C   C865      1.0  0.69051  0.87145  0.55921  1.0000
  H   H1462     1.0  0.99680  0.98099  0.90180  1.0000
  H   H1463     1.0  0.98051  0.54033  0.88412  1.0000
  C   C866      1.0  0.93026  0.73015  0.94040  1.0000
  N   N62       1.0  0.81000  0.84326  0.72241  1.0000
  C   C867      1.0  0.78305  0.85547  0.71248  1.0000
  C   C868      1.0  0.81207  0.81782  0.69529  1.0000
  C   C869      1.0  0.83006  0.86179  0.70355  1.0000
  C   C870      1.0  0.81277  0.83950  0.77526  1.0000
  C   C871      1.0  0.77740  0.88322  0.73256  1.0000
  C   C872      1.0  0.79122  0.79761  0.70774  1.0000
  C   C873      1.0  0.85918  0.85267  0.70666  1.0000
  C   C874      1.0  0.83347  0.81871  0.79278  1.0000
  H   H1464     1.0  0.77919  0.85646  0.67363  1.0000
  H   H1465     1.0  0.76743  0.84321  0.72764  1.0000
  H   H1466     1.0  0.83145  0.80761  0.69965  1.0000
  H   H1467     1.0  0.81060  0.82177  0.65649  1.0000
  H   H1468     1.0  0.82596  0.86659  0.66565  1.0000
  H   H1469     1.0  0.82887  0.88076  0.72290  1.0000
  H   H1470     1.0  0.81700  0.85845  0.79267  1.0000
  H   H1471     1.0  0.79372  0.83351  0.79071  1.0000
  H   H1472     1.0  0.78865  0.89830  0.71362  1.0000
  H   H1473     1.0  0.75627  0.88858  0.72694  1.0000
  H   H1474     1.0  0.78102  0.88414  0.77122  1.0000
  H   H1475     1.0  0.77165  0.80360  0.69321  1.0000
  H   H1476     1.0  0.79687  0.77848  0.69122  1.0000
  H   H1477     1.0  0.78951  0.79428  0.74639  1.0000
  H   H1478     1.0  0.86366  0.83399  0.68794  1.0000
  H   H1479     1.0  0.86600  0.85161  0.74387  1.0000
  H   H1480     1.0  0.87131  0.86758  0.68896  1.0000
  H   H1481     1.0  0.84306  0.82632  0.82499  1.0000
  H   H1482     1.0  0.84936  0.81343  0.76753  1.0000
  H   H1483     1.0  0.82372  0.80064  0.80460  1.0000
  N   N63       1.0  0.79593  0.65839  0.70641  1.0000
  C   C875      1.0  0.80405  0.68459  0.68690  1.0000
  C   C876      1.0  0.79056  0.64125  0.66433  1.0000
  C   C877      1.0  0.81896  0.64680  0.73381  1.0000
  C   C878      1.0  0.77226  0.66291  0.73814  1.0000
  C   C879      1.0  0.76776  0.65095  0.63210  1.0000
  C   C880      1.0  0.81634  0.61901  0.75440  1.0000
  C   C881      1.0  0.75526  0.63898  0.74902  1.0000
  H   H1484     1.0  0.82007  0.68181  0.66015  1.0000
  H   H1485     1.0  0.78751  0.69475  0.66784  1.0000
  H   H1486     1.0  0.78626  0.62092  0.67464  1.0000
  H   H1487     1.0  0.80850  0.63903  0.64163  1.0000
  H   H1488     1.0  0.83694  0.64634  0.71118  1.0000
  H   H1489     1.0  0.82344  0.65922  0.76483  1.0000
  H   H1490     1.0  0.77831  0.67106  0.77279  1.0000
  H   H1491     1.0  0.75870  0.67826  0.72256  1.0000
  H   H1492     1.0  0.74921  0.65459  0.65202  1.0000
  H   H1493     1.0  0.77276  0.66882  0.61193  1.0000
  H   H1494     1.0  0.76411  0.63563  0.60527  1.0000
  H   H1495     1.0  0.93647  0.53933  0.88961  1.0000
  H   H1496     1.0  0.81297  0.60405  0.72701  1.0000
  H   H1497     1.0  0.71292  0.69576  0.77079  1.0000
  H   H1498     1.0  0.75171  0.63773  0.78783  1.0000
  H   H1499     1.0  0.76361  0.61968  0.73811  1.0000
  H   H1500     1.0  0.73550  0.64178  0.73274  1.0000
  C   C882      1.0  0.69645  0.68007  0.83496  1.0000
  H   H1501     1.0  0.95435  0.94243  0.93433  1.0000
  H   H1502     1.0  0.93384  0.53825  0.53855  1.0000
  H   H1503     1.0  0.97227  0.96310  0.79744  1.0000
  H   H1504     1.0  0.94564  0.77616  0.51816  1.0000
  N   N64       1.0  0.93756  0.70129  0.93610  1.0000
  H   H1505     1.0  0.96877  0.53711  0.54963  1.0000
  H   H1506     1.0  0.99918  0.69296  0.50238  1.0000
  C   C883      1.0  0.69615  0.73201  0.86819  1.0000
  H   H1507     1.0  0.91030  0.73200  0.50320  1.0000
  H   H1508     1.0  0.97470  0.94259  0.71784  1.0000
  H   H1509     1.0  0.98664  0.70715  0.65852  1.0000
  H   H1510     1.0  0.80117  0.61857  0.78260  1.0000
  H   H1511     1.0  0.79972  0.70777  0.75296  1.0000
  S   S256      1.0  0.69400  0.64806  0.81273  1.0000
  H   H1512     1.0  0.94655  0.62687  0.50243  1.0000
  C   C884      1.0  0.68433  0.87851  0.65729  1.0000
  H   H1513     1.0  0.94513  0.74207  0.92197  1.0000
  H   H1514     1.0  0.93644  0.69968  0.81139  1.0000
  H   H1515     1.0  0.88377  0.68033  0.93537  1.0000
  H   H1516     1.0  0.68947  0.95664  0.93381  1.0000
  H   H1517     1.0  0.00454  0.70523  0.58360  1.0000
  C   C885      1.0  0.93168  0.51819  0.89001  1.0000
  C   C886      1.0  0.67447  0.89241  0.57561  1.0000
  H   H1518     1.0  0.94295  0.99555  0.94818  1.0000
  C   C887      1.0  0.92917  0.97465  0.51251  1.0000
  C   C888      1.0  0.68025  0.99864  0.93165  1.0000
  H   H1519     1.0  0.96827  0.98907  0.51728  1.0000
  C   C889      1.0  0.91985  0.82439  0.50705  1.0000
  H   H1520     1.0  0.98634  0.67665  0.58089  1.0000
  H   H1521     1.0  0.95139  0.96803  0.88927  1.0000
  C   C890      1.0  0.69911  0.97537  0.51770  1.0000
  C   C891      1.0  0.96514  0.95418  0.90801  1.0000
  H   H1522     1.0  0.97178  0.67485  0.93780  1.0000
  H   H1523     1.0  0.88553  0.70866  0.97365  1.0000
  C   C892      1.0  0.67597  0.97094  0.95215  1.0000
  H   H1524     1.0  0.94639  0.53989  0.97111  1.0000
  H   H1525     1.0  0.68011  0.71606  0.93239  1.0000
  H   H1526     1.0  0.91930  0.95576  0.50774  1.0000
  H   H1527     1.0  0.91829  0.84615  0.50514  1.0000
  C   C893      1.0  0.93676  0.50753  0.83982  1.0000
  H   H1528     1.0  0.00398  0.70415  0.71289  1.0000
  C   C894      1.0  0.78493  0.67859  0.48959  1.0000
  H   H1529     1.0  0.68125  0.67035  0.90378  1.0000
  H   H1530     1.0  0.99970  0.66194  0.67029  1.0000
  C   C895      1.0  0.94051  0.51916  0.97480  1.0000
  H   H1531     1.0  0.91914  0.99019  0.49125  1.0000
  H   H1532     1.0  0.67557  0.99741  0.89331  1.0000
  H   H1533     1.0  0.95202  0.50851  0.53088  1.0000
  H   H1534     1.0  0.92600  0.52047  0.81409  1.0000
  H   H1535     1.0  0.70121  0.95650  0.53750  1.0000
  C   C896      1.0  0.96977  0.00291  0.77126  1.0000
  H   H1536     1.0  0.00346  0.95281  0.93793  1.0000
