data_image0
_chemical_formula_structural       FeHFeSH4SFe2S2FeS2CHFeS2HCSH3C2H2C6HFeHC7H4C6HFeH5C3HCNH3CHCH9C4HCH2NHC2HC5FeCH4SH6S2C2SH3CSH3CH10NHCHC2HCHSFeS2FeHFeS3FeS2FeHFeNS2CHC4HCH5CH2C7H4CH2C2H4C2H4CHCHCH5CH6CHSH5NHCH4CSCSCHNC4HCH2CHSH3CH2CH4CFeH6SFeS2FeSFeS2H4C3S3FeS2H3SH2NCSCFeHCFeSCH3SH3SHC6H4NHCH2CSH2C2H3C6H6CH3CH2C3H2CHCH2CH2C2HCHC2HCHC6HFeCNHC3HC3H3CH4SHSH3CH7CHCH2NHFeC3HC2H9CFeHCH2C2H3NC5H15C3H3FeSHC2NH3CH2CH4CHCHC2HSHCH3CHCH6CH5CSH5CHCNHSH5CHC2HCH3C2H4C2H2CH3CFeSCH4SCH2C2H8CH2CHNC2NHC3H3SHCH3C2H4NCH2CH8CHCH3CSH8SHCH2CHCH2FeHSHSH4S2H2CSH2FeS2HSCFeSHCSHFe2S2FeSFeS3FeS3FeS2C3HFeHC3H2CH2C6H4FeH2C7H4C2HC3HCHC6H7CHCH5CFeHC3HFeSC6H4CS2CHCH2CH4SH2CSCFeH5CFeH2C2NHCH6SHCHC2HCH4CH3SH2CSCS2H2C2HC4HNH4CH2CH7CH2FeHCNHC2SCH2NC8H20NC8H11CH4CH2NC8H10CHSHCFeCH7C4SH2CH3C3SHSC4H3CSH5CHSNHCHCHCH2SH4CH3SHCHFeH2NH2SFeH2C2H4CH2FeH2C2H4CH3SH2CH2CHCSC2SHCH6FeSCHFeS2CSHCS2H8C7H4CFeC4HFeHCHCH3NFeH9CH3C2HCHNSCH4CSH2CH3CHCH8SCSCHCH6C2HCSH5C2HCH3CHSH2FeSHS3HSH2CHNCH2CH2C6H4C2HCH2CHCH2SFeSC2H2CFeSHCH2C2H4CH2CSC2NH4CHCHSNCH2CH2CH3FeH2CHFeCH3CH3CH7C2NH3C2H3SH2FeH3S2CFeS2CHFeSCSH2CHSCSHFeS2FeHFeS3H2SFeSFeS2Fe2HSFeS2FeSFeS3HC2H2C7H4C6H3C2H3C3H3CH4C6H4C2HCH3FeH2C2H3C2HSH4CHSHSC6H4NH2CH2CH2C2H2CH2CH3SH4SHNC8H15C2H5CH2SCHSCH5CH2FeH5CHC2H5NC2HCH2CHFeHCHFeHCH2NHCHNC6H6CHCH3NHNCH4FeCH3CHCSHC5HSH2CFeCFeCH2NHC3H2CH5CHCHCH3CHCH2CH3CH2SH3C2H2C2HSC2HSHSCHSHCH2NCH3C2H3CNHC2FeH3CH5CHCHC2H2CH3CH7CSFeCHC2FeHC2HCH2CH2CHSCHFeSCFeS2CHFeHCSHCSCFeSHFeS2FeS2Fe2S3FeSHS2CH6SH11FeSCH2NC2H7C2H2C2H2C6H3C7H4C6H4C6H4C6H3CFeHFeSH3CH3CHFeH6C6HCHNC2HCFeC4H4CH2SHSC2HCH2CH7CHC2H6SH2NC8H21C2H4CH3CHSH2SC2HCHCNC7H18CH4CSH8SHC2HCH5CH2NC7H2FeH6CHFeSC2HNC7H10NH4C2H3SCHCSNCHNCH3CHCFeHFeH2CHFeSCFeS2FeS2CHFeHCHCFeHCH2C2H3CFeHC2H2C7H4C4HCH2CH4CH2SNS2HSH2CHC2HCH6SHCH3CSH3C3H3CHFeCS2H2S3H3CH4CH3SFeS2FeCFeCHSFeS2FeHFeCS2H6C2H4C2HC8H5C3H2SHSHC2H2CHCSHCHSC2H5SHC2HCH2C2NH6NHCHNCH2CHCHCH2CH4C2H3C2H4NFeS2FeSFeHSCSHC3S3HFeS2C3SH3FeSHFeCHFeS2H3S2H4C6H6C3H2NC3H2C7H4CHCSHCH2NHCH3C4HSH2C3HC3H3C6HFeH4C3H2CH5SH2CH2NC7H18NC5H14NC3H2SH6SH2CHC3H2CH2SHCSH2CH5CH2FeHSHCH2NCSHCHCHCHCH13CH2CHCHC3HCH2FeCSHCH2CH2C2HFeH3FeH4C2H2CH2CHCHCH3SH3CH3CH7SH3NHC2HNCHSH2CHC2HC2H2CH2S2CFeH3S2HFeCSHSCHNHS2CH3CSFeS2HSCFeSFe2SHFe2S2FeSFeS3FeS3FeS2C2SC9HC7H3CH2CHC6SH3C2SC3HFeHC6H5FeCHFeH7CH6C7H4S3CFeNC8H20NC2HCHC2H8CHCH6NC8H20CH5CH2CFeH3S2C3NC5H11CH2CH2SNSCSC2HCHCHC2H4CH3CH8CH6SCHCH3CSH3C2H14CH5CHC2H2C2HCH7CH3C3H2C3H3C3H4NHCH8CH2CH4C3H2CH3NHCH5NHCH4C2H6FeH4FeCHFeCH2CH2SH2FeSH2FeHSFeS2CHSHCH2CH2C8H4C6H2CFeSHCH2CHCH5CHNHC2H2C2H6CHSH2CH10SHNHC3HNSHCH4CSCH4FeHCH4C2S2HFeSHS2HCSH2SH5C2FeC6H5C3HCH4CH3C3HSHCH2CH7CH7NFeHCH2CHSCHCH2C2HCFeNH3SCH6CHC2HCH3SC2FeHCHNSHFeS2NH3S2HSHS2H3FeS2HSHSHSHCSFeCFeS2Fe3SFeS2FeSFeS3C3H3C6H4C6H7CHFeHCH2C3H2C6H8CSHSCHCH4CH12C6H8FeH2C2HNHFeNH2FeHCHC3HC2H4CHCHC2H2CSC4NCHC3HC2H11CH4FeH2CNC8H17CNHNC8H13S2HFe2H5CHCSFeSHC2H2CH2CHCH4CH2C3H2CHSH3CH2CSHCSC3H2CHC2H7C2HCHCHC2SHFeCHC2H2CH5CH2SH2CHNH4FeHFeC5H2SH2SH3CH2CHCH2CHCH4CH2FeHC2H3CH2NH2CH4C2H2CSC3SH4CH5S2HFeS2FeHFeCHSHFeHC2SHFeS2FeS2Fe2S3FeSCH3CHCH3SH3C2HC2SH2FeS2C2HCH2CHC2HC4H5C6H4C6H2NC7H4C6H4C6H2CSHSH2FeH3CHFeNH6SHC6H2SNC8H20NC4HCH2SH6CHNHCH4CH2SH2CHCH2C2H4C2H4CH2CH5C3H3CH3NCHCH2SNHCH3CH2SCHCHC2H2CFeH3C2H4CNCH3C2H4C3HCH2SH2FeCHSCH3CHCHS2HCHC2HCH6CHCHC2HSHNH3C2FeH2CH6FeHCSCH2CHCSC2H4CH2CSH5CH3SHCH3C2H2NH2C2H3C2FeHCH2
_chemical_formula_sum              "Fe192 H2304 S384 C1344 N96"
_cell_length_a       46.7157
_cell_length_b       47.7369
_cell_length_c       45.0228
_cell_angle_alpha    85.7901
_cell_angle_beta     87.6537
_cell_angle_gamma    86.2375

_space_group_name_H-M_alt    "P 1"
_space_group_IT_number       1

loop_
  _space_group_symop_operation_xyz
  'x, y, z'

loop_
  _atom_site_type_symbol
  _atom_site_label
  _atom_site_symmetry_multiplicity
  _atom_site_fract_x
  _atom_site_fract_y
  _atom_site_fract_z
  _atom_site_occupancy
  Fe  Fe1       1.0  0.23084  0.44987  0.45899  1.0000
  H   H1        1.0  0.12602  0.34316  0.43310  1.0000
  Fe  Fe2       1.0  0.23818  0.45450  0.02166  1.0000
  S   S1        1.0  0.20779  0.41890  0.03297  1.0000
  H   H2        1.0  0.02046  0.28330  0.98535  1.0000
  H   H3        1.0  0.17210  0.37248  0.04371  1.0000
  H   H4        1.0  0.09345  0.41877  0.21009  1.0000
  H   H5        1.0  0.07252  0.41248  0.10719  1.0000
  S   S2        1.0  0.02786  0.35761  0.43250  1.0000
  Fe  Fe3       1.0  0.24748  0.99951  0.00551  1.0000
  Fe  Fe4       1.0  0.05160  0.37204  0.39028  1.0000
  S   S3        1.0  0.09383  0.39374  0.38363  1.0000
  S   S4        1.0  0.04791  0.33129  0.36878  1.0000
  Fe  Fe5       1.0  0.04520  0.37444  0.06163  1.0000
  S   S5        1.0  0.06153  0.33378  0.08522  1.0000
  S   S6        1.0  0.07120  0.41104  0.04211  1.0000
  C   C1        1.0  0.14454  0.28960  0.44852  1.0000
  H   H6        1.0  0.04624  0.44603  0.37038  1.0000
  Fe  Fe6       1.0  0.02971  0.34482  0.12255  1.0000
  S   S7        1.0  0.04772  0.34317  0.16964  1.0000
  S   S8        1.0  0.19974  0.01385  0.01018  1.0000
  H   H7        1.0  0.12412  0.27759  0.39422  1.0000
  C   C2        1.0  0.10824  0.41977  0.19011  1.0000
  S   S9        1.0  0.03039  0.27225  0.42932  1.0000
  H   H8        1.0  0.14467  0.33546  0.13680  1.0000
  H   H9        1.0  0.10180  0.14402  0.01309  1.0000
  H   H10       1.0  0.13032  0.41887  0.19839  1.0000
  C   C3        1.0  0.02401  0.20159  0.99755  1.0000
  C   C4        1.0  0.10347  0.39461  0.17163  1.0000
  H   H11       1.0  0.15900  0.27896  0.43194  1.0000
  H   H12       1.0  0.14888  0.41575  0.37210  1.0000
  C   C5        1.0  0.10139  0.20261  0.00553  1.0000
  C   C6        1.0  0.02142  0.26061  0.98899  1.0000
  C   C7        1.0  0.02566  0.24809  0.01771  1.0000
  C   C8        1.0  0.10445  0.24842  0.42481  1.0000
  C   C9        1.0  0.15197  0.38993  0.14863  1.0000
  C   C10       1.0  0.17252  0.38717  0.12103  1.0000
  H   H13       1.0  0.10835  0.37532  0.18641  1.0000
  Fe  Fe7       1.0  0.02119  0.31798  0.40995  1.0000
  H   H14       1.0  0.08271  0.44783  0.10093  1.0000
  C   C11       1.0  0.11904  0.32752  0.41818  1.0000
  C   C12       1.0  0.16969  0.41757  0.03519  1.0000
  C   C13       1.0  0.15788  0.39125  0.04112  1.0000
  C   C14       1.0  0.12790  0.38888  0.04334  1.0000
  C   C15       1.0  0.10921  0.41288  0.03967  1.0000
  C   C16       1.0  0.12095  0.43926  0.03374  1.0000
  C   C17       1.0  0.15099  0.44163  0.03159  1.0000
  H   H15       1.0  0.01388  0.41424  0.45873  1.0000
  H   H16       1.0  0.11928  0.36841  0.04739  1.0000
  H   H17       1.0  0.10675  0.45798  0.03072  1.0000
  H   H18       1.0  0.15970  0.46201  0.02701  1.0000
  C   C18       1.0  0.11885  0.40505  0.40814  1.0000
  C   C19       1.0  0.11369  0.40445  0.43899  1.0000
  C   C20       1.0  0.09200  0.30256  0.45793  1.0000
  C   C21       1.0  0.16009  0.42432  0.44509  1.0000
  C   C22       1.0  0.16528  0.42465  0.41429  1.0000
  C   C23       1.0  0.14470  0.41520  0.39595  1.0000
  H   H19       1.0  0.09392  0.39667  0.44864  1.0000
  Fe  Fe8       1.0  0.02551  0.31382  0.06389  1.0000
  H   H20       1.0  0.15688  0.37204  0.16532  1.0000
  H   H21       1.0  0.11742  0.37058  0.10268  1.0000
  H   H22       1.0  0.08000  0.39462  0.16813  1.0000
  H   H23       1.0  0.13939  0.02912  0.01576  1.0000
  H   H24       1.0  0.15880  0.40848  0.15946  1.0000
  C   C24       1.0  0.08746  0.13784  0.99621  1.0000
  C   C25       1.0  0.02683  0.21846  0.02173  1.0000
  C   C26       1.0  0.01461  0.42895  0.47656  1.0000
  H   H25       1.0  0.16151  0.31703  0.39640  1.0000
  C   C27       1.0  0.09482  0.32598  0.47934  1.0000
  N   N1        1.0  0.11616  0.29919  0.43494  1.0000
  H   H26       1.0  0.04326  0.46249  0.06613  1.0000
  H   H27       1.0  0.13150  0.31988  0.37158  1.0000
  H   H28       1.0  0.08704  0.36953  0.12673  1.0000
  C   C28       1.0  0.10788  0.27909  0.41285  1.0000
  H   H29       1.0  0.12524  0.43809  0.13188  1.0000
  C   C29       1.0  0.07128  0.47882  0.44292  1.0000
  H   H30       1.0  0.14110  0.16016  0.99721  1.0000
  H   H31       1.0  0.02471  0.17893  0.00123  1.0000
  H   H32       1.0  0.07161  0.43522  0.13768  1.0000
  H   H33       1.0  0.18506  0.43242  0.40456  1.0000
  H   H34       1.0  0.01359  0.43073  0.99306  1.0000
  H   H35       1.0  0.05050  0.42725  0.42268  1.0000
  H   H36       1.0  0.08739  0.28696  0.40236  1.0000
  H   H37       1.0  0.09423  0.23726  0.40761  1.0000
  H   H38       1.0  0.05127  0.34578  0.27888  1.0000
  C   C30       1.0  0.14357  0.26962  0.47714  1.0000
  C   C31       1.0  0.11529  0.42010  0.12282  1.0000
  C   C32       1.0  0.03141  0.34552  0.20617  1.0000
  C   C33       1.0  0.13415  0.41422  0.45734  1.0000
  H   H39       1.0  0.10324  0.44032  0.17775  1.0000
  C   C34       1.0  0.05250  0.45954  0.38781  1.0000
  H   H40       1.0  0.09030  0.24655  0.44504  1.0000
  H   H41       1.0  0.11104  0.32342  0.12765  1.0000
  N   N2        1.0  0.12044  0.39345  0.14245  1.0000
  H   H42       1.0  0.04622  0.21521  0.45019  1.0000
  C   C35       1.0  0.14062  0.32830  0.39125  1.0000
  C   C36       1.0  0.04913  0.34493  0.23086  1.0000
  H   H43       1.0  0.14493  0.35055  0.38454  1.0000
  C   C37       1.0  0.12111  0.33945  0.13975  1.0000
  C   C38       1.0  0.08358  0.42913  0.11714  1.0000
  C   C39       1.0  0.14662  0.03709  0.99379  1.0000
  C   C40       1.0  0.01371  0.45142  0.00286  1.0000
  C   C41       1.0  0.11086  0.36905  0.12669  1.0000
  Fe  Fe9       1.0  0.00720  0.35132  0.34955  1.0000
  C   C42       1.0  0.03733  0.34647  0.26022  1.0000
  H   H44       1.0  0.19266  0.37510  0.12769  1.0000
  H   H45       1.0  0.12616  0.41801  0.10053  1.0000
  H   H46       1.0  0.17783  0.40819  0.11076  1.0000
  H   H47       1.0  0.13164  0.25072  0.47485  1.0000
  S   S10       1.0  0.01486  0.38626  0.09959  1.0000
  H   H48       1.0  0.07218  0.34303  0.22732  1.0000
  H   H49       1.0  0.11450  0.33579  0.16356  1.0000
  H   H50       1.0  0.08825  0.34688  0.46839  1.0000
  H   H51       1.0  0.16389  0.37524  0.10364  1.0000
  H   H52       1.0  0.06541  0.01850  0.98370  1.0000
  H   H53       1.0  0.12562  0.23717  0.42880  1.0000
  S   S11       1.0  0.18478  0.43696  0.46913  1.0000
  S   S12       1.0  0.02899  0.26809  0.04945  1.0000
  C   C43       1.0  0.03961  0.44857  0.41825  1.0000
  C   C44       1.0  0.17576  0.03268  0.98496  1.0000
  S   S13       1.0  0.01228  0.39295  0.36876  1.0000
  H   H54       1.0  0.06513  0.14159  0.00518  1.0000
  H   H55       1.0  0.09785  0.33615  0.40992  1.0000
  H   H56       1.0  0.08875  0.46176  0.44247  1.0000
  C   C45       1.0  0.00751  0.34853  0.26538  1.0000
  S   S14       1.0  0.01117  0.35405  0.03748  1.0000
  H   H57       1.0  0.15624  0.30793  0.45440  1.0000
  H   H58       1.0  0.10473  0.05585  0.98215  1.0000
  H   H59       1.0  0.07634  0.45778  0.38768  1.0000
  C   C46       1.0  0.02777  0.25440  0.46558  1.0000
  H   H60       1.0  0.07125  0.30749  0.44681  1.0000
  H   H61       1.0  0.04494  0.48136  0.38100  1.0000
  H   H62       1.0  0.03652  0.45651  0.00259  1.0000
  H   H63       1.0  0.08423  0.18941  0.01507  1.0000
  H   H64       1.0  0.01667  0.44483  0.41496  1.0000
  H   H65       1.0  0.02985  0.20843  0.04382  1.0000
  H   H66       1.0  0.12173  0.19740  0.01708  1.0000
  H   H67       1.0  0.09439  0.22453  0.01058  1.0000
  H   H68       1.0  0.08884  0.28273  0.47178  1.0000
  H   H69       1.0  0.06034  0.43254  0.47419  1.0000
  N   N3        1.0  0.04234  0.46634  0.44438  1.0000
  H   H70       1.0  0.01104  0.43000  0.04650  1.0000
  C   C47       1.0  0.03036  0.48127  0.05669  1.0000
  H   H71       1.0  0.09098  0.11471  0.99471  1.0000
  C   C48       1.0  0.04081  0.44723  0.47262  1.0000
  C   C49       1.0  0.03746  0.22580  0.46930  1.0000
  H   H72       1.0  0.25310  0.47690  0.30062  1.0000
  C   C50       1.0  0.17046  0.48096  0.58321  1.0000
  H   H73       1.0  0.05263  0.01102  0.89318  1.0000
  S   S15       1.0  0.22329  0.01448  0.59967  1.0000
  Fe  Fe10      1.0  0.07308  0.10780  0.58484  1.0000
  S   S16       1.0  0.07371  0.15082  0.60247  1.0000
  S   S17       1.0  0.11090  0.08802  0.55775  1.0000
  Fe  Fe11      1.0  0.03225  0.16097  0.57897  1.0000
  H   H74       1.0  0.04028  0.45956  0.49270  1.0000
  Fe  Fe12      1.0  0.04711  0.13312  0.64185  1.0000
  S   S18       1.0  0.05393  0.14678  0.68900  1.0000
  S   S19       1.0  0.03257  0.11889  0.55917  1.0000
  S   S20       1.0  0.04955  0.08941  0.62574  1.0000
  Fe  Fe13      1.0  0.06449  0.09654  0.92025  1.0000
  S   S21       1.0  0.05470  0.13555  0.89010  1.0000
  S   S22       1.0  0.11234  0.08213  0.92121  1.0000
  Fe  Fe14      1.0  0.02100  0.14739  0.92544  1.0000
  H   H75       1.0  0.15227  0.98942  0.86801  1.0000
  Fe  Fe15      1.0  0.02121  0.11173  0.86998  1.0000
  N   N4        1.0  0.11405  0.17343  0.95956  1.0000
  S   S23       1.0  0.03272  0.10949  0.95658  1.0000
  S   S24       1.0  0.03290  0.07212  0.89829  1.0000
  C   C51       1.0  0.22696  0.10086  0.59045  1.0000
  H   H76       1.0  0.07433  0.18634  0.91387  1.0000
  C   C52       1.0  0.15394  0.13337  0.96248  1.0000
  C   C53       1.0  0.04547  0.13279  0.72606  1.0000
  C   C54       1.0  0.04759  0.14986  0.75003  1.0000
  C   C55       1.0  0.03925  0.14051  0.77948  1.0000
  H   H77       1.0  0.21938  0.08751  0.57366  1.0000
  C   C56       1.0  0.12684  0.05210  0.97470  1.0000
  H   H78       1.0  0.04051  0.15416  0.79747  1.0000
  H   H79       1.0  0.12995  0.41388  0.48116  1.0000
  H   H80       1.0  0.00875  0.28957  0.48818  1.0000
  H   H81       1.0  0.11945  0.46135  0.56704  1.0000
  H   H82       1.0  0.00505  0.26280  0.53760  1.0000
  C   C57       1.0  0.23506  0.00541  0.89445  1.0000
  H   H83       1.0  0.11918  0.42801  0.55127  1.0000
  H   H84       1.0  0.03448  0.09218  0.71418  1.0000
  C   C58       1.0  0.12869  0.44883  0.54878  1.0000
  C   C59       1.0  0.19232  0.03496  0.58737  1.0000
  C   C60       1.0  0.17102  0.04304  0.60862  1.0000
  C   C61       1.0  0.14608  0.05941  0.60003  1.0000
  C   C62       1.0  0.14213  0.06785  0.57000  1.0000
  C   C63       1.0  0.16353  0.05985  0.54875  1.0000
  C   C64       1.0  0.18857  0.04365  0.55736  1.0000
  H   H85       1.0  0.17377  0.03660  0.63192  1.0000
  H   H86       1.0  0.12986  0.06541  0.61663  1.0000
  H   H87       1.0  0.16070  0.06638  0.52548  1.0000
  H   H88       1.0  0.20494  0.03795  0.54082  1.0000
  C   C65       1.0  0.02685  0.09665  0.76149  1.0000
  H   H89       1.0  0.24502  0.43601  0.56745  1.0000
  H   H90       1.0  0.09435  0.21757  0.91276  1.0000
  C   C66       1.0  0.13591  0.06257  0.94627  1.0000
  C   C67       1.0  0.02391  0.22374  0.52229  1.0000
  H   H91       1.0  0.02203  0.99784  0.96973  1.0000
  H   H92       1.0  0.12041  0.21748  0.96357  1.0000
  H   H93       1.0  0.22917  0.08847  0.61212  1.0000
  H   H94       1.0  0.20725  0.04088  0.94982  1.0000
  C   C68       1.0  0.01860  0.24374  0.96480  1.0000
  C   C69       1.0  0.02840  0.11393  0.78539  1.0000
  H   H95       1.0  0.06937  0.16393  0.95958  1.0000
  H   H96       1.0  0.20299  0.99972  0.48919  1.0000
  H   H97       1.0  0.13846  0.11695  0.96765  1.0000
  H   H98       1.0  0.13943  0.18983  0.92129  1.0000
  C   C70       1.0  0.03525  0.00715  0.95089  1.0000
  H   H99       1.0  0.24942  0.12657  0.55796  1.0000
  C   C71       1.0  0.01637  0.26765  0.49054  1.0000
  H   H100      1.0  0.08003  0.32250  0.49905  1.0000
  C   C72       1.0  0.20939  0.46203  0.54832  1.0000
  H   H101      1.0  0.12208  0.45885  0.52687  1.0000
  H   H102      1.0  0.17238  0.06647  0.91565  1.0000
  H   H103      1.0  0.05530  0.17071  0.74573  1.0000
  H   H104      1.0  0.22303  0.47970  0.55092  1.0000
  H   H105      1.0  0.08369  0.20959  0.96275  1.0000
  C   C73       1.0  0.11960  0.17828  0.92626  1.0000
  H   H106      1.0  0.12732  0.99946  0.55950  1.0000
  H   H107      1.0  0.12349  0.15791  0.91570  1.0000
  H   H108      1.0  0.16797  0.46284  0.59998  1.0000
  H   H109      1.0  0.21445  0.41683  0.56212  1.0000
  H   H110      1.0  0.21128  0.98715  0.94931  1.0000
  H   H111      1.0  0.08289  0.01343  0.91421  1.0000
  C   C74       1.0  0.03561  0.10583  0.73214  1.0000
  H   H112      1.0  0.16008  0.13419  0.93840  1.0000
  S   S25       1.0  0.00565  0.14630  0.61953  1.0000
  H   H113      1.0  0.11689  0.32653  0.48729  1.0000
  H   H114      1.0  0.17367  0.12648  0.97469  1.0000
  H   H115      1.0  0.01876  0.07596  0.76576  1.0000
  H   H116      1.0  0.17754  0.99572  0.53280  1.0000
  H   H117      1.0  0.01618  0.41576  0.49788  1.0000
  N   N5        1.0  0.17786  0.47033  0.55284  1.0000
  H   H118      1.0  0.16602  0.42835  0.56863  1.0000
  C   C75       1.0  0.05279  0.02855  0.96505  1.0000
  H   H119      1.0  0.10012  0.19335  0.88442  1.0000
  H   H120      1.0  0.21409  0.45624  0.52499  1.0000
  H   H121      1.0  0.09843  0.98984  0.87137  1.0000
  H   H122      1.0  0.20965  0.11758  0.59371  1.0000
  C   C76       1.0  0.16167  0.44432  0.54981  1.0000
  S   S26       1.0  0.01428  0.10209  0.82133  1.0000
  C   C77       1.0  0.06787  0.99810  0.90785  1.0000
  S   S27       1.0  0.01898  0.20523  0.55795  1.0000
  C   C78       1.0  0.09552  0.19486  0.90868  1.0000
  H   H123      1.0  0.23665  0.01257  0.91704  1.0000
  N   N6        1.0  0.05181  0.98462  0.93436  1.0000
  C   C79       1.0  0.03576  0.21062  0.49743  1.0000
  C   C80       1.0  0.18485  0.04343  0.95666  1.0000
  C   C81       1.0  0.16502  0.05811  0.93741  1.0000
  C   C82       1.0  0.01431  0.25237  0.51860  1.0000
  H   H124      1.0  0.10331  0.99958  0.95463  1.0000
  C   C83       1.0  0.09059  0.15313  0.96477  1.0000
  H   H125      1.0  0.16915  0.43378  0.52940  1.0000
  H   H126      1.0  0.14736  0.99076  0.51291  1.0000
  C   C84       1.0  0.01995  0.21410  0.96879  1.0000
  H   H127      1.0  0.03759  0.04452  0.97490  1.0000
  S   S28       1.0  0.01646  0.19403  0.93713  1.0000
  H   H128      1.0  0.25024  0.09724  0.52178  1.0000
  H   H129      1.0  0.01543  0.25377  0.94274  1.0000
  H   H130      1.0  0.21466  0.43947  0.59276  1.0000
  C   C85       1.0  0.22118  0.43716  0.56910  1.0000
  H   H131      1.0  0.04321  0.18865  0.49975  1.0000
  H   H132      1.0  0.13427  0.28051  0.49656  1.0000
  C   C86       1.0  0.10489  0.20153  0.97146  1.0000
  H   H133      1.0  0.09345  0.13629  0.94883  1.0000
  H   H134      1.0  0.21660  0.01698  0.88338  1.0000
  H   H135      1.0  0.18896  0.98467  0.85596  1.0000
  H   H136      1.0  0.15902  0.17747  0.96709  1.0000
  C   C87       1.0  0.14216  0.16225  0.97259  1.0000
  Fe  Fe16      1.0  0.00915  0.10355  0.60137  1.0000
  H   H137      1.0  0.01987  0.01923  0.93578  1.0000
  H   H138      1.0  0.17924  0.99776  0.91039  1.0000
  H   H139      1.0  0.06669  0.04026  0.94870  1.0000
  H   H140      1.0  0.16586  0.26217  0.48275  1.0000
  H   H141      1.0  0.17157  0.48256  0.50623  1.0000
  H   H142      1.0  0.23398  0.56887  0.23880  1.0000
  S   S29       1.0  0.01759  0.76616  0.29251  1.0000
  Fe  Fe17      1.0  0.04980  0.73796  0.36804  1.0000
  S   S30       1.0  0.07501  0.73688  0.32477  1.0000
  S   S31       1.0  0.07659  0.72435  0.40767  1.0000
  Fe  Fe18      1.0  0.05556  0.78055  0.31580  1.0000
  S   S32       1.0  0.08287  0.81694  0.30006  1.0000
  Fe  Fe19      1.0  0.03531  0.72216  0.30563  1.0000
  S   S33       1.0  0.03690  0.68233  0.28014  1.0000
  S   S34       1.0  0.03189  0.78222  0.36002  1.0000
  H   H143      1.0  0.05311  0.86207  0.17076  1.0000
  H   H144      1.0  0.05640  0.51170  0.07492  1.0000
  H   H145      1.0  0.12530  0.85645  0.28440  1.0000
  H   H146      1.0  0.19005  0.56673  0.28896  1.0000
  C   C88       1.0  0.20888  0.85784  0.03033  1.0000
  C   C89       1.0  0.16749  0.66667  0.15270  1.0000
  C   C90       1.0  0.19742  0.75202  0.42948  1.0000
  S   S35       1.0  0.21205  0.82190  0.33727  1.0000
  S   S36       1.0  0.18549  0.63416  0.24850  1.0000
  S   S37       1.0  0.20839  0.61143  0.32351  1.0000
  Fe  Fe20      1.0  0.18500  0.68076  0.24072  1.0000
  S   S38       1.0  0.14240  0.70504  0.24952  1.0000
  S   S39       1.0  0.21752  0.68376  0.27527  1.0000
  H   H147      1.0  0.21379  0.53360  0.21303  1.0000
  H   H148      1.0  0.23712  0.71565  0.06102  1.0000
  H   H149      1.0  0.23304  0.84060  0.98184  1.0000
  S   S40       1.0  0.04828  0.77308  0.16935  1.0000
  H   H150      1.0  0.14360  0.87836  0.37023  1.0000
  H   H151      1.0  0.22463  0.79235  0.18304  1.0000
  N   N7        1.0  0.22860  0.83156  0.02950  1.0000
  C   C91       1.0  0.01965  0.65614  0.19889  1.0000
  S   S41       1.0  0.02670  0.60167  0.12719  1.0000
  C   C92       1.0  0.17312  0.61819  0.99074  1.0000
  Fe  Fe21      1.0  0.01867  0.63767  0.04758  1.0000
  H   H152      1.0  0.13780  0.80918  0.24753  1.0000
  C   C93       1.0  0.00746  0.70614  0.19729  1.0000
  Fe  Fe22      1.0  0.06002  0.60599  0.08974  1.0000
  S   S42       1.0  0.04930  0.65208  0.07935  1.0000
  C   C94       1.0  0.21966  0.59528  0.46513  1.0000
  H   H153      1.0  0.17010  0.78180  0.35258  1.0000
  H   H154      1.0  0.02961  0.49879  0.10078  1.0000
  H   H155      1.0  0.11218  0.59126  0.20997  1.0000
  S   S43       1.0  0.21699  0.65220  0.07213  1.0000
  H   H156      1.0  0.11718  0.92431  0.23702  1.0000
  H   H157      1.0  0.17602  0.85886  0.29793  1.0000
  H   H158      1.0  0.06968  0.67553  0.16563  1.0000
  S   S44       1.0  0.10453  0.58499  0.09475  1.0000
  H   H159      1.0  0.20177  0.77912  0.46684  1.0000
  C   C95       1.0  0.13520  0.60457  0.08875  1.0000
  C   C96       1.0  0.13442  0.63057  0.07217  1.0000
  C   C97       1.0  0.15960  0.64526  0.06770  1.0000
  C   C98       1.0  0.18547  0.63430  0.08017  1.0000
  C   C99       1.0  0.18614  0.60841  0.09659  1.0000
  C   C100      1.0  0.16121  0.59337  0.10037  1.0000
  H   H160      1.0  0.11458  0.63917  0.06261  1.0000
  H   H161      1.0  0.15910  0.66517  0.05454  1.0000
  H   H162      1.0  0.20618  0.59974  0.10553  1.0000
  H   H163      1.0  0.16196  0.57299  0.11252  1.0000
  N   N8        1.0  0.17095  0.58690  0.98966  1.0000
  H   H164      1.0  0.13347  0.70926  0.34967  1.0000
  C   C101      1.0  0.03386  0.50545  0.07696  1.0000
  H   H165      1.0  0.14323  0.57179  0.19619  1.0000
  H   H166      1.0  0.05496  0.90008  0.16698  1.0000
  C   C102      1.0  0.09233  0.64549  0.40332  1.0000
  S   S45       1.0  0.03185  0.59185  0.05530  1.0000
  H   H167      1.0  0.19581  0.86052  0.01007  1.0000
  H   H168      1.0  0.05927  0.86155  0.40693  1.0000
  C   C103      1.0  0.17003  0.77463  0.25917  1.0000
  C   C104      1.0  0.10367  0.64379  0.22699  1.0000
  H   H169      1.0  0.12776  0.63396  0.99508  1.0000
  H   H170      1.0  0.09834  0.50640  0.46391  1.0000
  H   H171      1.0  0.10065  0.68182  0.37440  1.0000
  C   C105      1.0  0.07483  0.75484  0.19174  1.0000
  C   C106      1.0  0.06964  0.74843  0.22210  1.0000
  C   C107      1.0  0.09050  0.73290  0.23916  1.0000
  C   C108      1.0  0.11715  0.72417  0.22632  1.0000
  C   C109      1.0  0.12299  0.73150  0.19609  1.0000
  C   C110      1.0  0.10185  0.74676  0.17888  1.0000
  H   H172      1.0  0.04948  0.75548  0.23249  1.0000
  H   H173      1.0  0.08580  0.72742  0.26246  1.0000
  H   H174      1.0  0.14362  0.72538  0.18602  1.0000
  H   H175      1.0  0.10642  0.75233  0.15555  1.0000
  H   H176      1.0  0.07410  0.80640  0.22987  1.0000
  H   H177      1.0  0.12366  0.77789  0.26400  1.0000
  C   C111      1.0  0.24327  0.52272  0.29995  1.0000
  H   H178      1.0  0.17650  0.62360  0.01386  1.0000
  H   H179      1.0  0.13677  0.64956  0.12629  1.0000
  H   H180      1.0  0.15678  0.61923  0.19516  1.0000
  C   C112      1.0  0.12627  0.58837  0.18998  1.0000
  H   H181      1.0  0.04664  0.81661  0.02373  1.0000
  H   H182      1.0  0.16871  0.75169  0.26493  1.0000
  C   C113      1.0  0.23187  0.58765  0.34406  1.0000
  C   C114      1.0  0.22001  0.56733  0.36423  1.0000
  C   C115      1.0  0.23779  0.54765  0.38084  1.0000
  H   H183      1.0  0.19697  0.56672  0.36704  1.0000
  H   H184      1.0  0.22847  0.53225  0.39653  1.0000
  C   C116      1.0  0.02623  0.68228  0.24271  1.0000
  H   H185      1.0  0.25285  0.89377  0.44789  1.0000
  C   C117      1.0  0.19794  0.78098  0.44265  1.0000
  H   H186      1.0  0.01983  0.52439  0.07072  1.0000
  H   H187      1.0  0.12545  0.54187  0.03137  1.0000
  C   C118      1.0  0.02787  0.65686  0.22862  1.0000
  H   H188      1.0  0.21911  0.73986  0.25014  1.0000
  H   H189      1.0  0.04667  0.82467  0.20842  1.0000
  C   C119      1.0  0.05825  0.71525  0.44137  1.0000
  C   C120      1.0  0.02872  0.72136  0.44528  1.0000
  H   H190      1.0  0.22181  0.69793  0.41803  1.0000
  C   C121      1.0  0.23690  0.50924  0.24918  1.0000
  H   H191      1.0  0.24912  0.94252  0.10642  1.0000
  C   C122      1.0  0.07368  0.70123  0.46461  1.0000
  C   C123      1.0  0.23303  0.82645  0.08670  1.0000
  H   H192      1.0  0.06320  0.61965  0.00347  1.0000
  C   C124      1.0  0.14617  0.84764  0.40721  1.0000
  H   H193      1.0  0.09645  0.69613  0.46164  1.0000
  C   C125      1.0  0.11875  0.81777  0.31073  1.0000
  C   C126      1.0  0.13149  0.79674  0.33006  1.0000
  C   C127      1.0  0.16017  0.79828  0.33797  1.0000
  C   C128      1.0  0.17637  0.82063  0.32638  1.0000
  C   C129      1.0  0.16371  0.84153  0.30689  1.0000
  C   C130      1.0  0.13496  0.84017  0.29931  1.0000
  H   H194      1.0  0.11929  0.77930  0.33886  1.0000
  Fe  Fe23      1.0  0.22006  0.63677  0.28069  1.0000
  C   C131      1.0  0.14089  0.61536  0.17852  1.0000
  N   N9        1.0  0.19588  0.77979  0.23886  1.0000
  H   H195      1.0  0.20902  0.59554  0.03731  1.0000
  C   C132      1.0  0.19162  0.76877  0.20887  1.0000
  C   C133      1.0  0.01538  0.70675  0.22707  1.0000
  C   C134      1.0  0.20253  0.81035  0.23702  1.0000
  H   H196      1.0  0.20500  0.80061  0.98314  1.0000
  C   C135      1.0  0.21736  0.77068  0.18638  1.0000
  C   C136      1.0  0.14044  0.78600  0.24800  1.0000
  C   C137      1.0  0.18249  0.83163  0.21886  1.0000
  H   H197      1.0  0.22321  0.97593  0.46633  1.0000
  H   H198      1.0  0.13499  0.85211  0.47627  1.0000
  H   H199      1.0  0.17301  0.77937  0.19744  1.0000
  C   C138      1.0  0.14317  0.54579  0.01465  1.0000
  H   H200      1.0  0.20767  0.90116  0.04264  1.0000
  H   H201      1.0  0.16730  0.83866  0.39885  1.0000
  H   H202      1.0  0.20279  0.81795  0.25980  1.0000
  H   H203      1.0  0.22473  0.81302  0.22794  1.0000
  S   S46       1.0  0.01165  0.71956  0.35024  1.0000
  H   H204      1.0  0.20559  0.67804  0.44938  1.0000
  S   S47       1.0  0.01982  0.83936  0.45593  1.0000
  H   H205      1.0  0.03538  0.63762  0.24083  1.0000
  H   H206      1.0  0.22798  0.89523  0.00857  1.0000
  H   H207      1.0  0.13650  0.74630  0.39370  1.0000
  C   C139      1.0  0.04235  0.88247  0.17646  1.0000
  H   H208      1.0  0.17018  0.84568  0.23410  1.0000
  H   H209      1.0  0.16693  0.82233  0.20534  1.0000
  H   H210      1.0  0.19557  0.84524  0.20330  1.0000
  H   H211      1.0  0.18642  0.74621  0.21180  1.0000
  H   H212      1.0  0.18195  0.64776  0.15792  1.0000
  H   H213      1.0  0.22537  0.67235  0.98280  1.0000
  H   H214      1.0  0.17247  0.96378  0.47534  1.0000
  C   C140      1.0  0.09790  0.90964  0.34099  1.0000
  H   H215      1.0  0.05699  0.91505  0.39689  1.0000
  C   C141      1.0  0.19434  0.58078  0.46688  1.0000
  H   H216      1.0  0.09762  0.62074  0.14160  1.0000
  H   H217      1.0  0.11399  0.58021  0.17220  1.0000
  N   N10       1.0  0.04163  0.75007  0.06195  1.0000
  H   H218      1.0  0.24152  0.76774  0.23950  1.0000
  Fe  Fe24      1.0  0.01350  0.64689  0.11425  1.0000
  C   C142      1.0  0.05675  0.73259  0.03882  1.0000
  C   C143      1.0  0.06193  0.75273  0.08658  1.0000
  C   C144      1.0  0.05646  0.79610  0.03289  1.0000
  H   H219      1.0  0.22053  0.80751  0.09096  1.0000
  C   C145      1.0  0.03988  0.72988  0.01051  1.0000
  C   C146      1.0  0.07199  0.72487  0.10378  1.0000
  H   H220      1.0  0.01496  0.73897  0.12214  1.0000
  H   H221      1.0  0.06266  0.90376  0.43527  1.0000
  H   H222      1.0  0.02085  0.91757  0.25980  1.0000
  H   H223      1.0  0.22037  0.51930  0.30612  1.0000
  H   H224      1.0  0.07794  0.74076  0.03182  1.0000
  H   H225      1.0  0.06189  0.71075  0.04838  1.0000
  H   H226      1.0  0.08184  0.76233  0.07766  1.0000
  H   H227      1.0  0.05286  0.76773  0.10289  1.0000
  H   H228      1.0  0.20352  0.71581  0.47675  1.0000
  C   C147      1.0  0.22290  0.88607  0.03147  1.0000
  Fe  Fe25      1.0  0.24430  0.84936  0.31192  1.0000
  H   H229      1.0  0.05251  0.71561  0.99578  1.0000
  C   C148      1.0  0.22956  0.55936  0.26169  1.0000
  H   H230      1.0  0.19544  0.75590  0.40492  1.0000
  H   H231      1.0  0.24234  0.88477  0.04476  1.0000
  C   C149      1.0  0.14529  0.74818  0.44144  1.0000
  C   C150      1.0  0.24808  0.92675  0.15287  1.0000
  H   H232      1.0  0.09303  0.71654  0.09461  1.0000
  H   H233      1.0  0.05654  0.70837  0.10364  1.0000
  H   H234      1.0  0.07392  0.72844  0.12767  1.0000
  N   N11       1.0  0.12892  0.64814  0.35862  1.0000
  C   C151      1.0  0.15234  0.66605  0.34549  1.0000
  C   C152      1.0  0.14219  0.61985  0.36978  1.0000
  C   C153      1.0  0.10734  0.64370  0.33562  1.0000
  C   C154      1.0  0.16382  0.62016  0.39483  1.0000
  C   C155      1.0  0.11978  0.63404  0.30553  1.0000
  H   H235      1.0  0.12881  0.67120  0.39845  1.0000
  H   H236      1.0  0.16517  0.65520  0.32790  1.0000
  H   H237      1.0  0.16801  0.66949  0.36258  1.0000
  H   H238      1.0  0.12538  0.60529  0.37765  1.0000
  H   H239      1.0  0.15393  0.60923  0.35143  1.0000
  H   H240      1.0  0.09231  0.62766  0.34432  1.0000
  H   H241      1.0  0.08090  0.65928  0.41937  1.0000
  H   H242      1.0  0.16947  0.59816  0.40343  1.0000
  H   H243      1.0  0.15520  0.63161  0.41410  1.0000
  H   H244      1.0  0.18427  0.62883  0.38621  1.0000
  H   H245      1.0  0.13122  0.65090  0.29267  1.0000
  H   H246      1.0  0.10166  0.62925  0.29191  1.0000
  H   H247      1.0  0.13420  0.61472  0.30796  1.0000
  H   H248      1.0  0.15362  0.60941  0.15822  1.0000
  H   H249      1.0  0.17604  0.82200  0.99968  1.0000
  C   C156      1.0  0.20224  0.68756  0.42651  1.0000
  C   C157      1.0  0.11345  0.66295  0.38358  1.0000
  C   C158      1.0  0.19172  0.80379  0.00370  1.0000
  H   H250      1.0  0.15080  0.86297  0.42344  1.0000
  H   H251      1.0  0.12586  0.58749  0.00334  1.0000
  H   H252      1.0  0.13537  0.77877  0.22622  1.0000
  Fe  Fe26      1.0  0.22052  0.63132  0.21304  1.0000
  S   S48       1.0  0.21005  0.59465  0.18610  1.0000
  H   H253      1.0  0.19286  0.55412  0.14797  1.0000
  C   C159      1.0  0.07921  0.82518  0.38806  1.0000
  C   C160      1.0  0.13642  0.65978  0.14762  1.0000
  N   N12       1.0  0.12187  0.64171  0.17195  1.0000
  H   H254      1.0  0.08255  0.66929  0.12794  1.0000
  H   H255      1.0  0.09338  0.66319  0.33055  1.0000
  H   H256      1.0  0.06800  0.82928  0.36678  1.0000
  C   C161      1.0  0.09370  0.63440  0.16049  1.0000
  H   H257      1.0  0.08103  0.62188  0.17734  1.0000
  H   H258      1.0  0.16796  0.68161  0.17026  1.0000
  C   C162      1.0  0.01454  0.71261  0.47220  1.0000
  H   H259      1.0  0.01688  0.73277  0.42760  1.0000
  H   H260      1.0  0.09078  0.90048  0.19759  1.0000
  H   H261      1.0  0.08954  0.85155  0.20332  1.0000
  H   H262      1.0  0.12444  0.68058  0.14377  1.0000
  C   C163      1.0  0.07394  0.65951  0.14916  1.0000
  H   H263      1.0  0.10028  0.81394  0.38394  1.0000
  C   C164      1.0  0.14232  0.69559  0.33218  1.0000
  H   H264      1.0  0.01287  0.72616  0.23800  1.0000
  C   C165      1.0  0.01494  0.73598  0.07344  1.0000
  C   C166      1.0  0.11768  0.65837  0.19903  1.0000
  H   H265      1.0  0.23861  0.62504  0.00350  1.0000
  S   S49       1.0  0.21745  0.67878  0.20262  1.0000
  H   H266      1.0  0.22814  0.56228  0.03523  1.0000
  C   C167      1.0  0.04037  0.90949  0.27165  1.0000
  H   H267      1.0  0.24721  0.75377  0.29090  1.0000
  H   H268      1.0  0.19391  0.56132  0.45604  1.0000
  H   H269      1.0  0.06100  0.51537  0.46981  1.0000
  C   C168      1.0  0.23033  0.57311  0.16145  1.0000
  H   H270      1.0  0.11438  0.77133  0.41292  1.0000
  C   C169      1.0  0.07714  0.49736  0.46841  1.0000
  H   H271      1.0  0.05314  0.65153  0.14434  1.0000
  H   H272      1.0  0.20993  0.75837  0.30035  1.0000
  H   H273      1.0  0.08932  0.84690  0.42639  1.0000
  H   H274      1.0  0.12635  0.69483  0.31479  1.0000
  H   H275      1.0  0.21675  0.50059  0.25880  1.0000
  H   H276      1.0  0.17653  0.67728  0.13193  1.0000
  C   C170      1.0  0.03621  0.88382  0.21031  1.0000
  H   H277      1.0  0.03604  0.75033  0.99750  1.0000
  H   H278      1.0  0.19154  0.56334  0.04736  1.0000
  H   H279      1.0  0.08530  0.63171  0.22221  1.0000
  H   H280      1.0  0.15618  0.69515  0.43080  1.0000
  H   H281      1.0  0.21917  0.84579  0.09014  1.0000
  C   C171      1.0  0.20697  0.57368  0.03146  1.0000
  S   S50       1.0  0.00445  0.88701  0.38122  1.0000
  H   H282      1.0  0.13874  0.66435  0.20626  1.0000
  H   H283      1.0  0.22500  0.92567  0.15410  1.0000
  H   H284      1.0  0.10568  0.67887  0.19411  1.0000
  H   H285      1.0  0.10359  0.97476  0.98597  1.0000
  H   H286      1.0  0.07063  0.92383  0.21947  1.0000
  C   C172      1.0  0.22714  0.76639  0.28495  1.0000
  H   H287      1.0  0.01917  0.72028  0.01580  1.0000
  C   C173      1.0  0.05166  0.88044  0.26170  1.0000
  N   N13       1.0  0.06199  0.87965  0.22954  1.0000
  H   H288      1.0  0.04167  0.48697  0.03527  1.0000
  S   S51       1.0  0.22653  0.50104  0.02205  1.0000
  H   H289      1.0  0.10354  0.62807  0.41683  1.0000
  H   H290      1.0  0.19996  0.54967  0.99373  1.0000
  H   H291      1.0  0.11974  0.62989  0.23939  1.0000
  H   H292      1.0  0.09442  0.66017  0.24160  1.0000
  H   H293      1.0  0.07301  0.80099  0.04834  1.0000
  C   C174      1.0  0.08203  0.90256  0.22073  1.0000
  H   H294      1.0  0.17924  0.78477  0.00777  1.0000
  C   C175      1.0  0.17500  0.70773  0.42453  1.0000
  C   C176      1.0  0.13666  0.76189  0.41075  1.0000
  H   H295      1.0  0.16254  0.53371  0.02322  1.0000
  C   C177      1.0  0.07794  0.85163  0.22541  1.0000
  H   H296      1.0  0.16107  0.70587  0.32126  1.0000
  H   H297      1.0  0.15184  0.65935  0.98057  1.0000
  H   H298      1.0  0.19838  0.95381  0.99025  1.0000
  C   C178      1.0  0.01650  0.51205  0.42066  1.0000
  C   C179      1.0  0.10878  0.90299  0.23971  1.0000
  H   H299      1.0  0.06870  0.87225  0.27710  1.0000
  H   H300      1.0  0.21584  0.79248  0.43157  1.0000
  H   H301      1.0  0.21071  0.71359  0.01469  1.0000
  H   H302      1.0  0.06264  0.88679  0.36041  1.0000
  C   C180      1.0  0.21577  0.55530  0.14453  1.0000
  C   C181      1.0  0.24506  0.72612  0.04046  1.0000
  H   H303      1.0  0.03766  0.51987  0.41374  1.0000
  H   H304      1.0  0.03426  0.90719  0.29576  1.0000
  C   C182      1.0  0.08166  0.85255  0.40353  1.0000
  H   H305      1.0  0.07569  0.63716  0.39015  1.0000
  H   H306      1.0  0.12586  0.88723  0.23281  1.0000
  H   H307      1.0  0.10396  0.89940  0.26386  1.0000
  C   C183      1.0  0.24620  0.83155  0.00066  1.0000
  Fe  Fe27      1.0  0.25072  0.67986  0.23754  1.0000
  S   S52       1.0  0.01351  0.65972  0.00200  1.0000
  C   C184      1.0  0.24810  0.82751  0.05556  1.0000
  H   H308      1.0  0.19488  0.80678  0.05054  1.0000
  H   H309      1.0  0.12977  0.84611  0.36352  1.0000
  H   H310      1.0  0.19238  0.85610  0.04880  1.0000
  H   H311      1.0  0.14920  0.58538  0.03319  1.0000
  S   S53       1.0  0.23926  0.89621  0.30159  1.0000
  C   C185      1.0  0.08631  0.88317  0.35773  1.0000
  H   H312      1.0  0.00570  0.50533  0.40110  1.0000
  H   H313      1.0  0.11678  0.91371  0.39671  1.0000
  C   C186      1.0  0.22128  0.76271  0.25204  1.0000
  C   C187      1.0  0.05959  0.82578  0.22830  1.0000
  H   H314      1.0  0.17221  0.78403  0.28065  1.0000
  H   H315      1.0  0.21079  0.76451  0.16445  1.0000
  H   H316      1.0  0.13487  0.82995  0.41857  1.0000
  H   H317      1.0  0.21918  0.74154  0.43232  1.0000
  H   H318      1.0  0.11100  0.89071  0.42808  1.0000
  H   H319      1.0  0.08193  0.86218  0.47748  1.0000
  H   H320      1.0  0.02022  0.86818  0.21734  1.0000
  H   H321      1.0  0.12135  0.90717  0.33615  1.0000
  C   C188      1.0  0.19668  0.55846  0.26713  1.0000
  H   H322      1.0  0.07633  0.93610  0.41852  1.0000
  H   H323      1.0  0.08912  0.86610  0.34208  1.0000
  C   C189      1.0  0.19917  0.57219  0.99857  1.0000
  H   H324      1.0  0.00402  0.53072  0.42892  1.0000
  N   N14       1.0  0.09982  0.87397  0.38706  1.0000
  C   C190      1.0  0.07268  0.91391  0.41473  1.0000
  C   C191      1.0  0.23035  0.54031  0.12204  1.0000
  N   N15       1.0  0.24683  0.53186  0.26735  1.0000
  H   H325      1.0  0.08738  0.91327  0.31925  1.0000
  C   C192      1.0  0.21017  0.80655  0.03097  1.0000
  C   C193      1.0  0.10156  0.89820  0.40639  1.0000
  C   C194      1.0  0.12984  0.86182  0.38045  1.0000
  H   H326      1.0  0.01553  0.77824  0.03271  1.0000
  H   H327      1.0  0.17279  0.71419  0.40044  1.0000
  H   H328      1.0  0.09263  0.92870  0.35332  1.0000
  S   S54       1.0  0.25063  0.58082  0.44665  1.0000
  H   H329      1.0  0.23651  0.57535  0.27621  1.0000
  C   C195      1.0  0.14686  0.57776  0.01074  1.0000
  H   H330      1.0  0.06616  0.81080  0.40273  1.0000
  H   H331      1.0  0.12843  0.73337  0.44833  1.0000
  H   H332      1.0  0.04524  0.82504  0.24851  1.0000
  C   C196      1.0  0.03262  0.77917  0.04891  1.0000
  C   C197      1.0  0.01784  0.48846  0.44591  1.0000
  H   H333      1.0  0.18555  0.57169  0.24926  1.0000
  H   H334      1.0  0.21864  0.52801  0.10798  1.0000
  H   H335      1.0  0.02468  0.90460  0.21329  1.0000
  H   H336      1.0  0.25311  0.80958  0.99573  1.0000
  N   N16       1.0  0.17470  0.73320  0.44254  1.0000
  C   C198      1.0  0.23988  0.73825  0.98702  1.0000
  H   H337      1.0  0.06661  0.78552  0.01367  1.0000
  H   H338      1.0  0.07489  0.49201  0.42198  1.0000
  C   C199      1.0  0.23007  0.72490  0.01404  1.0000
  H   H339      1.0  0.09503  0.84756  0.24195  1.0000
  H   H340      1.0  0.15035  0.77911  0.40270  1.0000
  H   H341      1.0  0.01871  0.71270  0.07652  1.0000
  H   H342      1.0  0.22373  0.78650  0.03398  1.0000
  H   H343      1.0  0.19995  0.66984  0.41232  1.0000
  H   H344      1.0  0.13707  0.53736  0.99365  1.0000
  H   H345      1.0  0.02160  0.88470  0.16504  1.0000
  H   H346      1.0  0.01659  0.49845  0.46759  1.0000
  C   C200      1.0  0.18106  0.72474  0.47465  1.0000
  H   H347      1.0  0.23070  0.78848  0.28878  1.0000
  C   C201      1.0  0.00975  0.68095  0.18290  1.0000
  H   H348      1.0  0.21725  0.58078  0.98481  1.0000
  H   H349      1.0  0.23553  0.75569  0.19312  1.0000
  H   H350      1.0  0.02089  0.63643  0.18839  1.0000
  C   C202      1.0  0.23227  0.51796  0.21598  1.0000
  S   S55       1.0  0.24264  0.49264  0.47166  1.0000
  H   H351      1.0  0.18853  0.53732  0.26684  1.0000
  H   H352      1.0  0.01426  0.50814  0.00252  1.0000
  H   H353      1.0  0.22725  0.49925  0.20433  1.0000
  H   H354      1.0  0.05683  0.92525  0.26912  1.0000
  H   H355      1.0  0.14288  0.76474  0.45770  1.0000
  H   H356      1.0  0.13348  0.94054  0.47800  1.0000
  H   H357      1.0  0.24960  0.82489  0.10384  1.0000
  H   H358      1.0  0.03397  0.86610  0.26679  1.0000
  S   S56       1.0  0.24558  0.90482  0.21143  1.0000
  H   H359      1.0  0.02275  0.79239  0.06644  1.0000
  C   C203      1.0  0.06019  0.62772  0.98069  1.0000
  H   H360      1.0  0.17801  0.79435  0.43871  1.0000
  H   H361      1.0  0.24873  0.53961  0.31398  1.0000
  C   C204      1.0  0.14688  0.63695  0.98004  1.0000
  H   H362      1.0  0.25169  0.52644  0.20463  1.0000
  C   C205      1.0  0.22017  0.62041  0.47910  1.0000
  H   H363      1.0  0.25269  0.49070  0.24981  1.0000
  H   H364      1.0  0.23960  0.63161  0.47807  1.0000
  Fe  Fe28      1.0  0.05085  0.71086  0.66908  1.0000
  H   H365      1.0  0.15560  0.76794  0.94833  1.0000
  S   S57       1.0  0.09745  0.70277  0.65325  1.0000
  H   H366      1.0  0.08935  0.72978  0.94705  1.0000
  S   S58       1.0  0.03747  0.75651  0.67066  1.0000
  H   H367      1.0  0.02413  0.56249  0.82399  1.0000
  H   H368      1.0  0.20270  0.89331  0.69371  1.0000
  H   H369      1.0  0.22027  0.96082  0.72614  1.0000
  H   H370      1.0  0.14027  0.58768  0.85008  1.0000
  S   S59       1.0  0.18138  0.62988  0.74059  1.0000
  S   S60       1.0  0.19227  0.83802  0.66938  1.0000
  H   H371      1.0  0.23820  0.68135  0.81755  1.0000
  H   H372      1.0  0.18147  0.51281  0.61233  1.0000
  C   C206      1.0  0.19569  0.53010  0.80718  1.0000
  S   S61       1.0  0.04154  0.76499  0.88017  1.0000
  H   H373      1.0  0.14071  0.75703  0.84634  1.0000
  H   H374      1.0  0.16657  0.55601  0.95743  1.0000
  Fe  Fe29      1.0  0.02648  0.85683  0.93114  1.0000
  S   S62       1.0  0.05485  0.88994  0.94429  1.0000
  S   S63       1.0  0.03418  0.81175  0.94838  1.0000
  H   H375      1.0  0.13255  0.74142  0.96392  1.0000
  S   S64       1.0  0.04220  0.87973  0.52527  1.0000
  C   C207      1.0  0.19260  0.49890  0.59622  1.0000
  Fe  Fe30      1.0  0.05758  0.59328  0.57891  1.0000
  S   S65       1.0  0.05941  0.57039  0.62507  1.0000
  H   H376      1.0  0.12099  0.76760  0.93480  1.0000
  C   C208      1.0  0.19599  0.82686  0.77249  1.0000
  S   S66       1.0  0.07482  0.63516  0.56563  1.0000
  H   H377      1.0  0.09502  0.72784  0.52724  1.0000
  Fe  Fe31      1.0  0.04164  0.66986  0.81918  1.0000
  Fe  Fe32      1.0  0.10598  0.68324  0.80656  1.0000
  S   S67       1.0  0.12142  0.63828  0.81544  1.0000
  S   S68       1.0  0.13788  0.71784  0.79724  1.0000
  Fe  Fe33      1.0  0.08419  0.62827  0.78843  1.0000
  S   S69       1.0  0.08822  0.59114  0.75896  1.0000
  Fe  Fe34      1.0  0.09003  0.63826  0.85450  1.0000
  S   S70       1.0  0.10139  0.61929  0.90040  1.0000
  S   S71       1.0  0.06977  0.67348  0.77729  1.0000
  S   S72       1.0  0.07631  0.68381  0.84730  1.0000
  Fe  Fe35      1.0  0.20503  0.83720  0.55953  1.0000
  S   S73       1.0  0.18829  0.80445  0.59263  1.0000
  S   S74       1.0  0.17728  0.85288  0.52052  1.0000
  S   S75       1.0  0.22955  0.85821  0.59316  1.0000
  Fe  Fe36      1.0  0.21283  0.83500  0.91334  1.0000
  S   S76       1.0  0.19021  0.86677  0.94253  1.0000
  S   S77       1.0  0.18917  0.80042  0.89768  1.0000
  C   C209      1.0  0.21598  0.81511  0.72319  1.0000
  C   C210      1.0  0.21635  0.81188  0.75483  1.0000
  C   C211      1.0  0.16867  0.49185  0.52823  1.0000
  H   H378      1.0  0.23229  0.79777  0.76548  1.0000
  Fe  Fe37      1.0  0.21649  0.80606  0.85500  1.0000
  H   H379      1.0  0.23484  0.64995  0.95363  1.0000
  C   C212      1.0  0.07594  0.62930  0.92830  1.0000
  C   C213      1.0  0.05284  0.64849  0.92150  1.0000
  C   C214      1.0  0.03376  0.65755  0.94424  1.0000
  H   H380      1.0  0.20762  0.92210  0.58778  1.0000
  H   H381      1.0  0.20533  0.59795  0.94011  1.0000
  C   C215      1.0  0.07922  0.61859  0.95787  1.0000
  H   H382      1.0  0.04963  0.65652  0.89875  1.0000
  H   H383      1.0  0.16217  0.58511  0.68930  1.0000
  C   C216      1.0  0.06932  0.57912  0.66088  1.0000
  C   C217      1.0  0.07778  0.55667  0.68105  1.0000
  C   C218      1.0  0.08432  0.56124  0.71034  1.0000
  C   C219      1.0  0.08185  0.58830  0.72057  1.0000
  C   C220      1.0  0.07339  0.61107  0.70053  1.0000
  C   C221      1.0  0.06752  0.60657  0.67055  1.0000
  H   H384      1.0  0.07906  0.53541  0.67404  1.0000
  H   H385      1.0  0.09052  0.54344  0.72547  1.0000
  H   H386      1.0  0.07052  0.63193  0.70832  1.0000
  H   H387      1.0  0.06059  0.62415  0.65544  1.0000
  Fe  Fe38      1.0  0.09612  0.61410  0.52656  1.0000
  H   H388      1.0  0.00355  0.57706  0.69304  1.0000
  H   H389      1.0  0.17372  0.54659  0.85667  1.0000
  C   C222      1.0  0.13879  0.88963  0.96267  1.0000
  C   C223      1.0  0.07912  0.86856  0.52425  1.0000
  C   C224      1.0  0.09369  0.86189  0.49768  1.0000
  C   C225      1.0  0.12370  0.85624  0.49707  1.0000
  C   C226      1.0  0.13928  0.85644  0.52312  1.0000
  C   C227      1.0  0.12455  0.86193  0.54993  1.0000
  C   C228      1.0  0.09466  0.86834  0.55037  1.0000
  H   H390      1.0  0.11812  0.96419  0.95126  1.0000
  H   H391      1.0  0.13877  0.71263  0.49342  1.0000
  H   H392      1.0  0.13632  0.86240  0.57008  1.0000
  H   H393      1.0  0.08356  0.87361  0.57098  1.0000
  C   C229      1.0  0.09214  0.88119  0.94425  1.0000
  C   C230      1.0  0.21873  0.91891  0.87796  1.0000
  H   H394      1.0  0.02190  0.73079  0.78363  1.0000
  C   C231      1.0  0.15238  0.87127  0.94291  1.0000
  C   C232      1.0  0.13568  0.85754  0.92398  1.0000
  C   C233      1.0  0.10552  0.86230  0.92483  1.0000
  H   H395      1.0  0.14985  0.58849  0.79499  1.0000
  C   C234      1.0  0.16962  0.59139  0.48243  1.0000
  H   H396      1.0  0.20890  0.93100  0.85874  1.0000
  C   C235      1.0  0.23459  0.72672  0.81215  1.0000
  C   C236      1.0  0.21540  0.75005  0.80776  1.0000
  C   C237      1.0  0.18614  0.74681  0.80346  1.0000
  C   C238      1.0  0.17518  0.72003  0.80401  1.0000
  C   C239      1.0  0.19414  0.69638  0.80973  1.0000
  C   C240      1.0  0.22367  0.69974  0.81386  1.0000
  H   H397      1.0  0.22335  0.77071  0.80779  1.0000
  H   H398      1.0  0.17189  0.76543  0.80015  1.0000
  H   H399      1.0  0.18624  0.67554  0.81015  1.0000
  H   H400      1.0  0.14792  0.52364  0.84768  1.0000
  H   H401      1.0  0.13962  0.77839  0.87810  1.0000
  H   H402      1.0  0.17039  0.65625  0.57199  1.0000
  H   H403      1.0  0.19281  0.58595  0.83776  1.0000
  C   C241      1.0  0.17035  0.61636  0.49671  1.0000
  H   H404      1.0  0.20619  0.53328  0.78471  1.0000
  C   C242      1.0  0.00362  0.57285  0.81589  1.0000
  H   H405      1.0  0.24977  0.72099  0.63022  1.0000
  H   H406      1.0  0.18174  0.57135  0.63973  1.0000
  H   H407      1.0  0.21370  0.59011  0.80342  1.0000
  H   H408      1.0  0.15281  0.55549  0.58530  1.0000
  H   H409      1.0  0.14155  0.61437  0.67266  1.0000
  C   C243      1.0  0.24398  0.74941  0.50815  1.0000
  Fe  Fe39      1.0  0.21460  0.82362  0.62613  1.0000
  H   H410      1.0  0.18402  0.68396  0.90481  1.0000
  C   C244      1.0  0.03184  0.74562  0.82600  1.0000
  C   C245      1.0  0.03742  0.76889  0.84151  1.0000
  C   C246      1.0  0.03742  0.64734  0.97390  1.0000
  H   H411      1.0  0.11030  0.78002  0.85384  1.0000
  Fe  Fe40      1.0  0.04090  0.58436  0.51503  1.0000
  S   S78       1.0  0.24696  0.80645  0.93443  1.0000
  C   C247      1.0  0.12130  0.68420  0.67834  1.0000
  C   C248      1.0  0.15063  0.68048  0.67043  1.0000
  C   C249      1.0  0.16929  0.66318  0.68881  1.0000
  C   C250      1.0  0.15900  0.65101  0.71608  1.0000
  C   C251      1.0  0.13005  0.65602  0.72454  1.0000
  C   C252      1.0  0.11128  0.67231  0.70566  1.0000
  H   H412      1.0  0.15869  0.69031  0.64963  1.0000
  H   H413      1.0  0.19149  0.65911  0.68197  1.0000
  H   H414      1.0  0.12193  0.64660  0.74551  1.0000
  H   H415      1.0  0.08890  0.67530  0.71211  1.0000
  C   C253      1.0  0.18849  0.95641  0.49220  1.0000
  S   S79       1.0  0.05443  0.62395  0.82885  1.0000
  S   S80       1.0  0.19237  0.82196  0.81233  1.0000
  C   C254      1.0  0.19556  0.83367  0.70892  1.0000
  H   H416      1.0  0.06917  0.71641  0.91840  1.0000
  C   C255      1.0  0.03021  0.96654  0.92220  1.0000
  H   H417      1.0  0.17936  0.57654  0.77376  1.0000
  H   H418      1.0  0.17353  0.64684  0.62836  1.0000
  C   C256      1.0  0.02979  0.69778  0.49501  1.0000
  H   H419      1.0  0.17512  0.93391  0.73033  1.0000
  H   H420      1.0  0.22111  0.96016  0.68689  1.0000
  H   H421      1.0  0.04417  0.81316  0.83782  1.0000
  H   H422      1.0  0.17712  0.53161  0.50445  1.0000
  S   S81       1.0  0.01684  0.60262  0.55377  1.0000
  H   H423      1.0  0.02433  0.57490  0.77258  1.0000
  H   H424      1.0  0.22314  0.91736  0.92460  1.0000
  C   C257      1.0  0.15622  0.63796  0.61653  1.0000
  S   S82       1.0  0.01809  0.84736  0.88415  1.0000
  C   C258      1.0  0.25221  0.53825  0.58660  1.0000
  Fe  Fe41      1.0  0.01467  0.74487  0.71392  1.0000
  H   H425      1.0  0.11739  0.60035  0.61996  1.0000
  H   H426      1.0  0.24984  0.68280  0.54006  1.0000
  H   H427      1.0  0.03028  0.72536  0.83795  1.0000
  H   H428      1.0  0.19164  0.57928  0.58840  1.0000
  H   H429      1.0  0.01551  0.60399  0.71333  1.0000
  C   C259      1.0  0.18436  0.59177  0.93313  1.0000
  Fe  Fe42      1.0  0.22489  0.60953  0.72855  1.0000
  H   H430      1.0  0.17706  0.53315  0.54365  1.0000
  H   H431      1.0  0.14163  0.63369  0.95681  1.0000
  C   C260      1.0  0.02796  0.77525  0.78020  1.0000
  C   C261      1.0  0.19563  0.49819  0.81526  1.0000
  N   N17       1.0  0.16695  0.54623  0.80904  1.0000
  H   H432      1.0  0.11211  0.92124  0.50476  1.0000
  C   C262      1.0  0.23337  0.70399  0.67421  1.0000
  H   H433      1.0  0.18683  0.49339  0.83818  1.0000
  H   H434      1.0  0.23992  0.75232  0.75182  1.0000
  H   H435      1.0  0.25004  0.75755  0.68814  1.0000
  H   H436      1.0  0.17420  0.52060  0.75324  1.0000
  H   H437      1.0  0.16384  0.91089  0.51396  1.0000
  H   H438      1.0  0.23494  0.77004  0.51223  1.0000
  S   S83       1.0  0.01171  0.68314  0.52682  1.0000
  H   H439      1.0  0.18319  0.90383  0.56808  1.0000
  C   C263      1.0  0.18898  0.92516  0.57309  1.0000
  H   H440      1.0  0.03392  0.70964  0.57785  1.0000
  C   C264      1.0  0.24525  0.74081  0.70588  1.0000
  C   C265      1.0  0.13180  0.56665  0.84902  1.0000
  H   H441      1.0  0.14231  0.58598  0.95323  1.0000
  C   C266      1.0  0.21434  0.61595  0.59246  1.0000
  H   H442      1.0  0.17510  0.93495  0.69009  1.0000
  H   H443      1.0  0.18463  0.61523  0.81228  1.0000
  H   H444      1.0  0.01745  0.97877  0.90466  1.0000
  H   H445      1.0  0.13393  0.57905  0.66551  1.0000
  C   C267      1.0  0.15609  0.54469  0.84115  1.0000
  H   H446      1.0  0.00980  0.64451  0.73919  1.0000
  H   H447      1.0  0.24297  0.87159  0.77242  1.0000
  H   H448      1.0  0.15298  0.55342  0.74529  1.0000
  S   S84       1.0  0.05898  0.62462  0.49697  1.0000
  H   H449      1.0  0.15138  0.90005  0.97765  1.0000
  H   H450      1.0  0.14725  0.67881  0.59345  1.0000
  C   C268      1.0  0.00840  0.95346  0.94504  1.0000
  S   S85       1.0  0.14037  0.63069  0.51696  1.0000
  C   C269      1.0  0.22773  0.68727  0.74027  1.0000
  S   S86       1.0  0.24434  0.81092  0.54589  1.0000
  S   S87       1.0  0.22962  0.73375  0.56706  1.0000
  H   H451      1.0  0.20663  0.89929  0.74461  1.0000
  H   H452      1.0  0.20848  0.48554  0.60953  1.0000
  C   C270      1.0  0.15324  0.53220  0.75723  1.0000
  C   C271      1.0  0.14328  0.98111  0.56074  1.0000
  H   H453      1.0  0.14249  0.55109  0.62464  1.0000
  C   C272      1.0  0.18383  0.51963  0.52534  1.0000
  C   C273      1.0  0.14522  0.53393  0.79069  1.0000
  C   C274      1.0  0.18571  0.60215  0.58911  1.0000
  C   C275      1.0  0.17343  0.59347  0.64218  1.0000
  H   H454      1.0  0.00694  0.81095  0.57408  1.0000
  N   N18       1.0  0.23331  0.92002  0.71028  1.0000
  H   H455      1.0  0.23132  0.67114  0.75901  1.0000
  H   H456      1.0  0.22069  0.70728  0.75005  1.0000
  H   H457      1.0  0.21000  0.68038  0.72773  1.0000
  H   H458      1.0  0.07839  0.48511  0.49024  1.0000
  C   C276      1.0  0.05951  0.69261  0.49137  1.0000
  H   H459      1.0  0.23854  0.68205  0.66774  1.0000
  H   H460      1.0  0.04400  0.74839  0.52202  1.0000
  C   C277      1.0  0.08525  0.97753  0.88806  1.0000
  H   H461      1.0  0.12248  0.56083  0.87155  1.0000
  H   H462      1.0  0.12436  0.54652  0.79173  1.0000
  H   H463      1.0  0.20917  0.96064  0.55138  1.0000
  H   H464      1.0  0.14028  0.51247  0.79995  1.0000
  H   H465      1.0  0.23796  0.55631  0.58065  1.0000
  H   H466      1.0  0.19670  0.64977  0.50647  1.0000
  H   H467      1.0  0.17122  0.93561  0.58591  1.0000
  C   C278      1.0  0.19175  0.59252  0.81375  1.0000
  H   H468      1.0  0.07155  0.68133  0.50897  1.0000
  H   H469      1.0  0.18385  0.48739  0.79902  1.0000
  Fe  Fe43      1.0  0.22853  0.77893  0.58009  1.0000
  H   H470      1.0  0.11410  0.56810  0.83320  1.0000
  C   C279      1.0  0.18263  0.94524  0.70938  1.0000
  N   N19       1.0  0.16281  0.60705  0.61304  1.0000
  H   H471      1.0  0.01628  0.67261  0.93875  1.0000
  C   C280      1.0  0.19792  0.94250  0.54432  1.0000
  C   C281      1.0  0.17074  0.57608  0.79711  1.0000
  S   S88       1.0  0.03058  0.69925  0.71408  1.0000
  C   C282      1.0  0.03460  0.79837  0.79551  1.0000
  H   H472      1.0  0.21170  0.63722  0.60073  1.0000
  H   H473      1.0  0.19365  0.92671  0.96617  1.0000
  N   N20       1.0  0.11926  0.77920  0.71984  1.0000
  C   C283      1.0  0.13905  0.78521  0.69313  1.0000
  C   C284      1.0  0.09196  0.79720  0.71498  1.0000
  C   C285      1.0  0.11327  0.74853  0.72055  1.0000
  C   C286      1.0  0.13416  0.78525  0.74765  1.0000
  C   C287      1.0  0.16747  0.76695  0.69234  1.0000
  C   C288      1.0  0.09536  0.82923  0.71171  1.0000
  C   C289      1.0  0.08741  0.73936  0.73987  1.0000
  C   C290      1.0  0.11573  0.79168  0.77603  1.0000
  H   H474      1.0  0.12810  0.78270  0.67201  1.0000
  H   H475      1.0  0.14507  0.80738  0.69187  1.0000
  H   H476      1.0  0.07594  0.79325  0.73329  1.0000
  H   H477      1.0  0.08145  0.79141  0.69471  1.0000
  H   H478      1.0  0.10938  0.74239  0.69772  1.0000
  H   H479      1.0  0.13210  0.73481  0.72839  1.0000
  H   H480      1.0  0.14959  0.76745  0.75440  1.0000
  H   H481      1.0  0.14829  0.80284  0.74318  1.0000
  H   H482      1.0  0.16398  0.74460  0.68922  1.0000
  H   H483      1.0  0.18118  0.77479  0.67316  1.0000
  H   H484      1.0  0.17945  0.76856  0.71280  1.0000
  H   H485      1.0  0.10895  0.83623  0.72903  1.0000
  H   H486      1.0  0.10444  0.83584  0.68932  1.0000
  H   H487      1.0  0.07384  0.84039  0.71401  1.0000
  H   H488      1.0  0.06715  0.74655  0.72917  1.0000
  H   H489      1.0  0.08724  0.74615  0.76276  1.0000
  H   H490      1.0  0.08832  0.71623  0.74137  1.0000
  H   H491      1.0  0.11084  0.77235  0.78985  1.0000
  H   H492      1.0  0.09568  0.80469  0.77204  1.0000
  H   H493      1.0  0.12813  0.80458  0.78988  1.0000
  N   N21       1.0  0.08854  0.75516  0.56395  1.0000
  C   C291      1.0  0.08824  0.78647  0.56717  1.0000
  C   C292      1.0  0.08987  0.75037  0.53115  1.0000
  C   C293      1.0  0.11411  0.73967  0.57828  1.0000
  C   C294      1.0  0.06180  0.74426  0.57930  1.0000
  C   C295      1.0  0.09280  0.79549  0.59878  1.0000
  C   C296      1.0  0.06275  0.76032  0.51403  1.0000
  C   C297      1.0  0.14368  0.74852  0.56582  1.0000
  C   C298      1.0  0.05730  0.71272  0.57718  1.0000
  H   H494      1.0  0.10467  0.79648  0.55200  1.0000
  H   H495      1.0  0.06736  0.79703  0.56014  1.0000
  H   H496      1.0  0.07851  0.69453  0.95085  1.0000
  H   H497      1.0  0.10779  0.76154  0.51956  1.0000
  H   H498      1.0  0.11321  0.74158  0.60279  1.0000
  H   H499      1.0  0.11379  0.71667  0.57579  1.0000
  H   H500      1.0  0.06159  0.74726  0.60357  1.0000
  H   H501      1.0  0.04216  0.75661  0.57174  1.0000
  H   H502      1.0  0.07650  0.78755  0.61530  1.0000
  H   H503      1.0  0.11466  0.78902  0.60647  1.0000
  H   H504      1.0  0.09062  0.81884  0.59830  1.0000
  C   C299      1.0  0.23035  0.72292  0.64512  1.0000
  H   H505      1.0  0.05758  0.78320  0.51514  1.0000
  H   H506      1.0  0.16069  0.73791  0.57998  1.0000
  H   H507      1.0  0.14579  0.77146  0.56590  1.0000
  H   H508      1.0  0.14813  0.74184  0.54293  1.0000
  C   C300      1.0  0.15127  0.59317  0.66861  1.0000
  H   H509      1.0  0.06569  0.70437  0.55613  1.0000
  H   H510      1.0  0.17287  0.60982  0.92075  1.0000
  N   N22       1.0  0.13173  0.72071  0.90053  1.0000
  C   C301      1.0  0.14948  0.70513  0.87746  1.0000
  C   C302      1.0  0.11228  0.74250  0.88405  1.0000
  C   C303      1.0  0.11409  0.69969  0.91869  1.0000
  C   C304      1.0  0.15216  0.73363  0.91985  1.0000
  C   C305      1.0  0.16773  0.67876  0.88921  1.0000
  C   C306      1.0  0.12708  0.76557  0.86460  1.0000
  C   C307      1.0  0.08637  0.71118  0.93462  1.0000
  C   C308      1.0  0.13911  0.75349  0.94302  1.0000
  H   H511      1.0  0.13553  0.69821  0.86026  1.0000
  H   H512      1.0  0.16483  0.71911  0.86530  1.0000
  H   H513      1.0  0.09734  0.75379  0.89941  1.0000
  H   H514      1.0  0.09819  0.73223  0.86935  1.0000
  H   H515      1.0  0.10695  0.68361  0.90431  1.0000
  H   H516      1.0  0.12729  0.68769  0.93592  1.0000
  H   H517      1.0  0.16494  0.71694  0.93291  1.0000
  H   H518      1.0  0.16890  0.74475  0.90622  1.0000
  H   H519      1.0  0.15430  0.66214  0.89967  1.0000
  H   H520      1.0  0.17965  0.66955  0.87002  1.0000
  C   C309      1.0  0.18018  0.97552  0.90423  1.0000
  H   H521      1.0  0.06727  0.69978  0.59599  1.0000
  S   S89       1.0  0.01210  0.70230  0.64355  1.0000
  H   H522      1.0  0.18915  0.57571  0.91664  1.0000
  C   C310      1.0  0.22456  0.90036  0.68805  1.0000
  Fe  Fe44      1.0  0.03676  0.64235  0.53695  1.0000
  C   C311      1.0  0.13737  0.56242  0.60297  1.0000
  H   H523      1.0  0.13643  0.64141  0.63079  1.0000
  H   H524      1.0  0.09637  0.60311  0.96315  1.0000
  H   H525      1.0  0.04123  0.94846  0.91118  1.0000
  H   H526      1.0  0.13237  0.65098  0.57618  1.0000
  H   H527      1.0  0.14360  0.92428  0.54418  1.0000
  H   H528      1.0  0.03603  0.81882  0.78374  1.0000
  H   H529      1.0  0.14589  0.84368  0.90830  1.0000
  C   C312      1.0  0.12709  0.93848  0.50199  1.0000
  C   C313      1.0  0.02701  0.74873  0.79532  1.0000
  C   C314      1.0  0.22887  0.90624  0.74125  1.0000
  C   C315      1.0  0.13573  0.59465  0.60449  1.0000
  S   S90       1.0  0.08076  0.57129  0.54113  1.0000
  H   H530      1.0  0.01579  0.64682  0.77785  1.0000
  H   H531      1.0  0.19832  0.93588  0.48506  1.0000
  C   C316      1.0  0.17616  0.84592  0.75793  1.0000
  H   H532      1.0  0.23515  0.95666  0.95082  1.0000
  H   H533      1.0  0.21237  0.71596  0.63261  1.0000
  H   H534      1.0  0.21484  0.92883  0.53321  1.0000
  C   C317      1.0  0.25035  0.56276  0.88372  1.0000
  C   C318      1.0  0.17596  0.84930  0.72662  1.0000
  C   C319      1.0  0.03913  0.79524  0.82615  1.0000
  S   S91       1.0  0.24210  0.55255  0.64420  1.0000
  H   H535      1.0  0.02381  0.56705  0.72501  1.0000
  S   S92       1.0  0.22751  0.56246  0.73022  1.0000
  C   C320      1.0  0.10890  0.89465  0.96325  1.0000
  C   C321      1.0  0.24261  0.72752  0.53045  1.0000
  C   C322      1.0  0.19230  0.94986  0.96741  1.0000
  C   C323      1.0  0.16482  0.57929  0.95870  1.0000
  H   H536      1.0  0.18686  0.92189  0.91376  1.0000
  H   H537      1.0  0.23108  0.92141  0.75852  1.0000
  H   H538      1.0  0.24704  0.91579  0.64644  1.0000
  C   C324      1.0  0.17226  0.97583  0.87141  1.0000
  S   S93       1.0  0.01924  0.78097  0.74268  1.0000
  H   H539      1.0  0.21142  0.70428  0.68469  1.0000
  H   H540      1.0  0.19223  0.60421  0.64927  1.0000
  H   H541      1.0  0.01888  0.94261  0.96472  1.0000
  H   H542      1.0  0.16984  0.95845  0.96520  1.0000
  H   H543      1.0  0.12924  0.60369  0.58212  1.0000
  C   C325      1.0  0.22499  0.91204  0.65515  1.0000
  H   H544      1.0  0.02953  0.61702  0.75988  1.0000
  S   S94       1.0  0.22005  0.73663  0.95410  1.0000
  N   N23       1.0  0.17454  0.95256  0.52299  1.0000
  H   H545      1.0  0.09275  0.85197  0.90990  1.0000
  C   C326      1.0  0.21549  0.94753  0.70788  1.0000
  H   H546      1.0  0.23158  0.80347  0.70981  1.0000
  C   C327      1.0  0.19575  0.63069  0.49511  1.0000
  H   H547      1.0  0.21285  0.89683  0.87729  1.0000
  C   C328      1.0  0.21311  0.96457  0.94468  1.0000
  H   H548      1.0  0.17777  0.60822  0.56640  1.0000
  H   H549      1.0  0.22527  0.61893  0.57016  1.0000
  S   S95       1.0  0.25082  0.61387  0.68609  1.0000
  H   H550      1.0  0.06648  0.75654  0.49010  1.0000
  H   H551      1.0  0.07101  0.96555  0.87527  1.0000
  H   H552      1.0  0.16886  0.69788  0.51363  1.0000
  H   H553      1.0  0.16230  0.96567  0.91725  1.0000
  C   C329      1.0  0.24871  0.87991  0.74939  1.0000
  H   H554      1.0  0.17197  0.96677  0.70864  1.0000
  H   H555      1.0  0.20749  0.51663  0.52342  1.0000
  H   H556      1.0  0.11604  0.55592  0.59717  1.0000
  S   S96       1.0  0.23949  0.84140  0.87116  1.0000
  H   H557      1.0  0.21074  0.53837  0.82237  1.0000
  C   C330      1.0  0.15142  0.65670  0.58760  1.0000
  H   H558      1.0  0.13676  0.52068  0.74692  1.0000
  Fe  Fe45      1.0  0.22498  0.77171  0.91710  1.0000
  H   H559      1.0  0.22868  0.60266  0.60752  1.0000
  H   H560      1.0  0.22157  0.74249  0.70938  1.0000
  N   N24       1.0  0.20865  0.96076  0.91220  1.0000
  H   H561      1.0  0.16027  0.85767  0.77102  1.0000
  H   H562      1.0  0.15998  0.86371  0.71607  1.0000
  S   S97       1.0  0.24988  0.77289  0.87310  1.0000
  Fe  Fe46      1.0  0.02221  0.80238  0.90262  1.0000
  H   H563      1.0  0.14944  0.49341  0.58312  1.0000
  H   H564      1.0  0.14544  0.49829  0.53077  1.0000
  C   C331      1.0  0.20864  0.92951  0.90849  1.0000
  C   C332      1.0  0.25158  0.70014  0.52333  1.0000
  H   H565      1.0  0.10005  0.96268  0.90099  1.0000
  H   H566      1.0  0.22499  0.74524  0.64938  1.0000
  H   H567      1.0  0.16777  0.95448  0.86543  1.0000
  H   H568      1.0  0.21681  0.89599  0.64161  1.0000
  C   C333      1.0  0.15295  0.93053  0.52185  1.0000
  H   H569      1.0  0.21091  0.93142  0.65127  1.0000
  H   H570      1.0  0.15016  0.58023  0.48348  1.0000
  Fe  Fe47      1.0  0.01027  0.86963  0.49128  1.0000
  H   H571      1.0  0.07600  0.94551  0.94535  1.0000
  H   H572      1.0  0.17960  0.74338  0.48818  1.0000
  C   C334      1.0  0.07104  0.96620  0.95485  1.0000
  C   C335      1.0  0.16109  0.70355  0.49082  1.0000
  H   H573      1.0  0.24580  0.86281  0.73473  1.0000
  H   H574      1.0  0.24236  0.58208  0.89312  1.0000
  H   H575      1.0  0.23876  0.88068  0.68881  1.0000
  H   H576      1.0  0.13045  0.96258  0.56561  1.0000
  C   C336      1.0  0.23343  0.97322  0.89439  1.0000
  H   H577      1.0  0.23315  0.96900  0.87053  1.0000
  H   H578      1.0  0.00979  0.80598  0.51981  1.0000
  H   H579      1.0  0.20373  0.51263  0.57951  1.0000
  S   S98       1.0  0.24674  0.53934  0.94208  1.0000
  H   H580      1.0  0.11477  0.95781  0.50861  1.0000
  H   H581      1.0  0.21819  0.48917  0.81453  1.0000
  C   C337      1.0  0.16081  0.98056  0.53102  1.0000
  H   H582      1.0  0.19219  0.62546  0.97761  1.0000
  H   H583      1.0  0.24248  0.91878  0.87510  1.0000
  C   C338      1.0  0.00733  0.58275  0.71600  1.0000
  H   H584      1.0  0.22876  0.97352  0.50530  1.0000
  C   C339      1.0  0.01087  0.63220  0.76103  1.0000
  S   S99       1.0  0.01656  0.56292  0.48121  1.0000
  C   C340      1.0  0.21210  0.97772  0.48850  1.0000
  C   C341      1.0  0.24367  0.66016  0.97231  1.0000
  S   S100      1.0  0.25303  0.79405  0.61726  1.0000
  H   H585      1.0  0.25271  0.58186  0.83847  1.0000
  C   C342      1.0  0.10041  0.97726  0.96157  1.0000
  H   H586      1.0  0.05962  0.96124  0.97660  1.0000
  H   H587      1.0  0.00357  0.71978  0.91694  1.0000
  H   H588      1.0  0.15745  0.98338  0.57954  1.0000
  H   H589      1.0  0.09873  0.90883  0.97872  1.0000
  H   H590      1.0  0.16107  0.68365  0.47964  1.0000
  H   H591      1.0  0.33399  0.46848  0.07971  1.0000
  Fe  Fe48      1.0  0.49504  0.36412  0.41059  1.0000
  S   S101      1.0  0.32532  0.39667  0.42752  1.0000
  C   C343      1.0  0.40153  0.01579  0.08935  1.0000
  H   H592      1.0  0.40675  0.31292  0.47311  1.0000
  Fe  Fe49      1.0  0.30260  0.46348  0.00939  1.0000
  S   S102      1.0  0.35014  0.45004  0.00144  1.0000
  S   S103      1.0  0.28214  0.01295  0.03409  1.0000
  C   C344      1.0  0.39826  0.03231  0.11757  1.0000
  S   S104      1.0  0.46161  0.39251  0.43456  1.0000
  H   H593      1.0  0.40686  0.47642  0.42809  1.0000
  C   C345      1.0  0.38969  0.36328  0.17096  1.0000
  S   S105      1.0  0.49743  0.31864  0.09284  1.0000
  S   S106      1.0  0.43939  0.37952  0.08687  1.0000
  H   H594      1.0  0.38570  0.08741  0.03734  1.0000
  H   H595      1.0  0.39494  0.37311  0.14839  1.0000
  H   H596      1.0  0.41823  0.35499  0.26295  1.0000
  H   H597      1.0  0.46526  0.39572  0.18430  1.0000
  H   H598      1.0  0.35189  0.05001  0.04174  1.0000
  H   H599      1.0  0.44064  0.28767  0.15856  1.0000
  H   H600      1.0  0.41127  0.06733  0.05999  1.0000
  H   H601      1.0  0.47303  0.31283  0.20796  1.0000
  C   C346      1.0  0.44679  0.27862  0.45177  1.0000
  C   C347      1.0  0.37454  0.43039  0.02563  1.0000
  C   C348      1.0  0.40369  0.42701  0.01653  1.0000
  C   C349      1.0  0.42384  0.41150  0.03484  1.0000
  C   C350      1.0  0.41507  0.39926  0.06264  1.0000
  C   C351      1.0  0.38596  0.40291  0.07189  1.0000
  C   C352      1.0  0.36579  0.41821  0.05346  1.0000
  H   H602      1.0  0.40338  0.05681  0.02346  1.0000
  H   H603      1.0  0.44610  0.40893  0.02739  1.0000
  H   H604      1.0  0.37887  0.39349  0.09327  1.0000
  H   H605      1.0  0.34342  0.42031  0.06064  1.0000
  C   C353      1.0  0.36322  0.39662  0.42890  1.0000
  Fe  Fe50      1.0  0.29446  0.43030  0.44661  1.0000
  C   C354      1.0  0.41066  0.37803  0.41164  1.0000
  C   C355      1.0  0.42387  0.39436  0.43100  1.0000
  C   C356      1.0  0.40663  0.41208  0.44900  1.0000
  C   C357      1.0  0.37647  0.41321  0.44799  1.0000
  H   H606      1.0  0.42367  0.36432  0.39765  1.0000
  Fe  Fe51      1.0  0.31148  0.00943  0.99311  1.0000
  H   H607      1.0  0.38406  0.47035  0.07372  1.0000
  C   C358      1.0  0.45668  0.35571  0.16596  1.0000
  H   H608      1.0  0.43903  0.29818  0.21180  1.0000
  C   C359      1.0  0.40914  0.33643  0.17770  1.0000
  H   H609      1.0  0.42748  0.34062  0.45788  1.0000
  H   H610      1.0  0.46573  0.39681  0.14463  1.0000
  H   H611      1.0  0.45876  0.35714  0.22571  1.0000
  N   N25       1.0  0.37681  0.01870  0.06864  1.0000
  Fe  Fe52      1.0  0.48695  0.36479  0.08027  1.0000
  H   H612      1.0  0.39044  0.37896  0.18772  1.0000
  H   H613      1.0  0.36346  0.42656  0.46232  1.0000
  H   H614      1.0  0.47452  0.30403  0.15268  1.0000
  H   H615      1.0  0.47984  0.21342  0.01138  1.0000
  H   H616      1.0  0.32171  0.46652  0.33240  1.0000
  H   H617      1.0  0.47326  0.31398  0.45059  1.0000
  H   H618      1.0  0.47984  0.34951  0.16874  1.0000
  H   H619      1.0  0.35733  0.98566  0.09683  1.0000
  H   H620      1.0  0.43030  0.32084  0.25291  1.0000
  C   C360      1.0  0.46009  0.29345  0.16939  1.0000
  H   H621      1.0  0.34749  0.45654  0.11590  1.0000
  H   H622      1.0  0.42743  0.37692  0.21473  1.0000
  H   H623      1.0  0.36769  0.45134  0.35360  1.0000
  C   C361      1.0  0.38578  0.00324  0.04131  1.0000
  C   C362      1.0  0.45270  0.31124  0.19628  1.0000
  H   H624      1.0  0.43219  0.39737  0.16438  1.0000
  C   C363      1.0  0.43672  0.35502  0.21792  1.0000
  H   H625      1.0  0.46149  0.26409  0.43925  1.0000
  N   N26       1.0  0.43834  0.34015  0.18937  1.0000
  S   S107      1.0  0.48717  0.32564  0.38703  1.0000
  C   C364      1.0  0.38047  0.37905  0.41076  1.0000
  H   H626      1.0  0.47185  0.27351  0.17737  1.0000
  H   H627      1.0  0.39688  0.32132  0.19237  1.0000
  H   H628      1.0  0.45215  0.34973  0.14326  1.0000
  H   H629      1.0  0.38936  0.48107  0.10920  1.0000
  C   C365      1.0  0.41946  0.34097  0.24422  1.0000
  S   S108      1.0  0.30990  0.47077  0.45936  1.0000
  H   H630      1.0  0.35987  0.06140  0.07642  1.0000
  H   H631      1.0  0.38744  0.01987  0.13608  1.0000
  C   C366      1.0  0.36301  0.47446  0.34945  1.0000
  H   H632      1.0  0.31802  0.03976  0.08904  1.0000
  H   H633      1.0  0.36695  0.35765  0.17172  1.0000
  H   H634      1.0  0.37041  0.36609  0.39597  1.0000
  C   C367      1.0  0.45447  0.38819  0.16512  1.0000
  H   H635      1.0  0.43300  0.29064  0.43511  1.0000
  C   C368      1.0  0.42082  0.45318  0.37277  1.0000
  H   H636      1.0  0.41139  0.32626  0.15619  1.0000
  H   H637      1.0  0.41991  0.03682  0.12464  1.0000
  H   H638      1.0  0.40564  0.99341  0.09763  1.0000
  H   H639      1.0  0.42209  0.02098  0.07741  1.0000
  H   H640      1.0  0.36901  0.00685  0.02433  1.0000
  H   H641      1.0  0.34127  0.03271  0.12037  1.0000
  H   H642      1.0  0.41668  0.42469  0.46413  1.0000
  H   H643      1.0  0.38678  0.05320  0.11410  1.0000
  S   S109      1.0  0.27602  0.45558  0.05134  1.0000
  C   C369      1.0  0.35081  0.00518  0.08300  1.0000
  S   S110      1.0  0.34081  0.04531  0.98055  1.0000
  C   C370      1.0  0.33029  0.02317  0.10273  1.0000
  H   H644      1.0  0.39713  0.33779  0.23843  1.0000
  C   C371      1.0  0.39411  0.06564  0.04404  1.0000
  H   H645      1.0  0.44143  0.45187  0.38446  1.0000
  H   H646      1.0  0.42454  0.44321  0.35129  1.0000
  H   H647      1.0  0.37454  0.48185  0.44974  1.0000
  H   H648      1.0  0.41071  0.43625  0.99502  1.0000
  H   H649      1.0  0.31419  0.00942  0.11397  1.0000
  H   H650      1.0  0.40574  0.01121  0.03044  1.0000
  C   C372      1.0  0.46454  0.29864  0.46792  1.0000
  C   C373      1.0  0.36723  0.48062  0.40262  1.0000
  H   H651      1.0  0.33699  0.99833  0.06563  1.0000
  C   C374      1.0  0.36919  0.04894  0.05819  1.0000
  S   S111      1.0  0.25956  0.45033  0.41745  1.0000
  H   H652      1.0  0.40617  0.44018  0.38690  1.0000
  H   H653      1.0  0.32000  0.47161  0.37124  1.0000
  H   H654      1.0  0.43329  0.26568  0.46742  1.0000
  H   H655      1.0  0.49439  0.25700  0.03216  1.0000
  H   H656      1.0  0.36490  0.45752  0.40497  1.0000
  C   C375      1.0  0.50081  0.22094  0.00544  1.0000
  C   C376      1.0  0.33005  0.47908  0.34957  1.0000
  H   H657      1.0  0.48368  0.28616  0.47629  1.0000
  C   C377      1.0  0.34505  0.47484  0.09930  1.0000
  H   H658      1.0  0.37156  0.47953  0.32639  1.0000
  H   H659      1.0  0.50328  0.25807  0.11637  1.0000
  H   H660      1.0  0.42454  0.48293  0.05149  1.0000
  C   C378      1.0  0.42190  0.32847  0.47911  1.0000
  H   H661      1.0  0.48931  0.23275  0.93733  1.0000
  S   S112      1.0  0.49644  0.14086  0.62561  1.0000
  H   H662      1.0  0.47099  0.05465  0.75529  1.0000
  H   H663      1.0  0.41501  0.36866  0.50029  1.0000
  Fe  Fe53      1.0  0.32179  0.00362  0.54603  1.0000
  S   S113      1.0  0.35324  0.03720  0.53165  1.0000
  H   H664      1.0  0.39979  0.33901  0.52167  1.0000
  S   S114      1.0  0.30456  0.99870  0.59298  1.0000
  S   S115      1.0  0.27785  0.00311  0.52650  1.0000
  S   S116      1.0  0.29151  0.47196  0.54532  1.0000
  H   H665      1.0  0.44428  0.21855  0.89562  1.0000
  S   S117      1.0  0.45197  0.07518  0.61187  1.0000
  H   H666      1.0  0.36801  0.46798  0.54371  1.0000
  H   H667      1.0  0.32239  0.14494  0.53489  1.0000
  C   C379      1.0  0.25475  0.11466  0.57931  1.0000
  H   H668      1.0  0.37792  0.08985  0.96420  1.0000
  N   N27       1.0  0.44861  0.31389  0.49233  1.0000
  C   C380      1.0  0.44754  0.12615  0.69355  1.0000
  H   H669      1.0  0.46033  0.25258  0.50919  1.0000
  H   H670      1.0  0.31742  0.05097  0.63003  1.0000
  C   C381      1.0  0.46772  0.09923  0.69143  1.0000
  H   H671      1.0  0.43696  0.30609  0.53920  1.0000
  H   H672      1.0  0.46806  0.09419  0.66767  1.0000
  C   C382      1.0  0.38141  0.04666  0.55371  1.0000
  C   C383      1.0  0.38448  0.03569  0.58315  1.0000
  C   C384      1.0  0.40631  0.04454  0.60039  1.0000
  C   C385      1.0  0.42567  0.06415  0.58839  1.0000
  C   C386      1.0  0.42290  0.07482  0.55878  1.0000
  C   C387      1.0  0.40078  0.06622  0.54163  1.0000
  H   H673      1.0  0.36988  0.02054  0.59277  1.0000
  H   H674      1.0  0.40824  0.03604  0.62318  1.0000
  H   H675      1.0  0.43755  0.08994  0.54919  1.0000
  H   H676      1.0  0.39868  0.07483  0.51886  1.0000
  C   C388      1.0  0.39412  0.01942  0.96476  1.0000
  C   C389      1.0  0.43996  0.29437  0.51869  1.0000
  H   H677      1.0  0.42195  0.04552  0.67492  1.0000
  C   C390      1.0  0.43651  0.04573  0.95001  1.0000
  H   H678      1.0  0.26420  0.06378  0.51105  1.0000
  H   H679      1.0  0.49366  0.18377  0.87342  1.0000
  C   C391      1.0  0.46034  0.26818  0.52627  1.0000
  H   H680      1.0  0.32507  0.05456  0.59073  1.0000
  C   C392      1.0  0.47538  0.04792  0.69838  1.0000
  H   H681      1.0  0.41836  0.08336  0.66782  1.0000
  H   H682      1.0  0.30253  0.47285  0.60737  1.0000
  S   S118      1.0  0.48540  0.12784  0.91108  1.0000
  Fe  Fe54      1.0  0.49990  0.08334  0.92536  1.0000
  S   S119      1.0  0.26459  0.42604  0.48697  1.0000
  C   C393      1.0  0.31753  0.06621  0.61016  1.0000
  C   C394      1.0  0.30683  0.11125  0.56533  1.0000
  H   H683      1.0  0.46977  0.04699  0.67465  1.0000
  H   H684      1.0  0.41868  0.28599  0.51550  1.0000
  C   C395      1.0  0.41465  0.06562  0.68451  1.0000
  Fe  Fe55      1.0  0.26153  0.99464  0.57380  1.0000
  S   S120      1.0  0.26593  0.45847  0.97909  1.0000
  H   H685      1.0  0.44649  0.25276  0.84888  1.0000
  C   C396      1.0  0.30140  0.13771  0.54390  1.0000
  H   H686      1.0  0.32366  0.09720  0.55462  1.0000
  H   H687      1.0  0.46073  0.14458  0.69457  1.0000
  C   C397      1.0  0.45848  0.19974  0.90130  1.0000
  C   C398      1.0  0.28712  0.08059  0.60638  1.0000
  H   H688      1.0  0.43525  0.13026  0.67289  1.0000
  H   H689      1.0  0.41655  0.08629  0.72483  1.0000
  H   H690      1.0  0.28394  0.09580  0.62405  1.0000
  H   H691      1.0  0.46792  0.02824  0.71024  1.0000
  C   C399      1.0  0.37748  0.04459  0.96790  1.0000
  H   H692      1.0  0.25871  0.05913  0.56445  1.0000
  H   H693      1.0  0.49673  0.27299  0.88071  1.0000
  C   C400      1.0  0.47224  0.07531  0.74219  1.0000
  S   S121      1.0  0.27576  0.99952  0.96388  1.0000
  C   C401      1.0  0.41982  0.07086  0.95294  1.0000
  C   C402      1.0  0.40424  0.34876  0.49899  1.0000
  N   N28       1.0  0.49945  0.22824  0.87491  1.0000
  H   H694      1.0  0.39108  0.06512  0.68864  1.0000
  H   H695      1.0  0.44790  0.21502  0.84416  1.0000
  H   H696      1.0  0.31722  0.11939  0.58452  1.0000
  H   H697      1.0  0.46055  0.11931  0.75173  1.0000
  C   C403      1.0  0.39053  0.07025  0.96186  1.0000
  H   H698      1.0  0.43487  0.09443  0.76715  1.0000
  C   C404      1.0  0.42907  0.06907  0.71413  1.0000
  H   H699      1.0  0.43236  0.12641  0.71293  1.0000
  S   S122      1.0  0.47370  0.04527  0.93943  1.0000
  N   N29       1.0  0.46075  0.07366  0.71154  1.0000
  C   C405      1.0  0.45778  0.09775  0.76169  1.0000
  H   H700      1.0  0.45286  0.25741  0.54762  1.0000
  H   H701      1.0  0.38327  0.35474  0.48869  1.0000
  C   C406      1.0  0.46685  0.33644  0.50175  1.0000
  H   H702      1.0  0.48270  0.27330  0.52915  1.0000
  H   H703      1.0  0.28851  0.13416  0.52466  1.0000
  C   C407      1.0  0.42347  0.02003  0.95603  1.0000
  H   H704      1.0  0.45789  0.19569  0.92596  1.0000
  H   H705      1.0  0.42949  0.09078  0.94845  1.0000
  H   H706      1.0  0.42516  0.04998  0.72916  1.0000
  Fe  Fe56      1.0  0.27757  0.46864  0.49768  1.0000
  H   H707      1.0  0.46867  0.09637  0.78332  1.0000
  H   H708      1.0  0.29071  0.15524  0.55597  1.0000
  C   C408      1.0  0.49660  0.25194  0.92474  1.0000
  H   H709      1.0  0.49537  0.07976  0.74064  1.0000
  Fe  Fe57      1.0  0.49206  0.10052  0.60308  1.0000
  C   C409      1.0  0.48858  0.25324  0.89175  1.0000
  H   H710      1.0  0.44851  0.18169  0.89248  1.0000
  H   H711      1.0  0.48580  0.27024  0.93548  1.0000
  H   H712      1.0  0.45560  0.34856  0.51938  1.0000
  C   C410      1.0  0.45793  0.23511  0.83780  1.0000
  H   H713      1.0  0.47089  0.35199  0.48261  1.0000
  H   H714      1.0  0.48985  0.10515  0.69497  1.0000
  H   H715      1.0  0.46500  0.25693  0.89152  1.0000
  C   C411      1.0  0.49000  0.20060  0.88923  1.0000
  H   H716      1.0  0.45475  0.23943  0.81352  1.0000
  H   H717      1.0  0.43613  0.00046  0.95367  1.0000
  H   H718      1.0  0.33353  0.08166  0.61394  1.0000
  H   H719      1.0  0.29553  0.05738  0.55392  1.0000
  H   H720      1.0  0.27174  0.06399  0.61243  1.0000
  H   H721      1.0  0.49117  0.16796  0.76784  1.0000
  H   H722      1.0  0.38440  0.99951  0.96901  1.0000
  C   C412      1.0  0.49627  0.32669  0.51429  1.0000
  C   C413      1.0  0.27633  0.07226  0.55539  1.0000
  N   N30       1.0  0.28113  0.09495  0.57596  1.0000
  H   H723      1.0  0.49400  0.31586  0.53681  1.0000
  H   H724      1.0  0.28811  0.09121  0.51106  1.0000
  H   H725      1.0  0.25879  0.13091  0.59495  1.0000
  C   C414      1.0  0.26931  0.08220  0.52310  1.0000
  C   C415      1.0  0.49039  0.23251  0.84301  1.0000
  H   H726      1.0  0.25478  0.01161  0.88167  1.0000
  H   H727      1.0  0.49869  0.21449  0.83005  1.0000
  H   H728      1.0  0.49980  0.25162  0.83189  1.0000
  S   S123      1.0  0.44868  0.76160  0.34648  1.0000
  H   H729      1.0  0.49784  0.65481  0.47652  1.0000
  H   H730      1.0  0.41155  0.61389  0.26333  1.0000
  Fe  Fe58      1.0  0.49100  0.83650  0.42535  1.0000
  H   H731      1.0  0.39825  0.53234  0.32712  1.0000
  H   H732      1.0  0.45234  0.73239  0.26455  1.0000
  H   H733      1.0  0.36204  0.80415  0.01123  1.0000
  S   S124      1.0  0.48550  0.83482  0.18367  1.0000
  S   S125      1.0  0.31035  0.94696  0.08922  1.0000
  C   C416      1.0  0.29838  0.86282  0.12499  1.0000
  Fe  Fe59      1.0  0.30635  0.84562  0.28700  1.0000
  S   S126      1.0  0.30579  0.89219  0.27517  1.0000
  S   S127      1.0  0.34460  0.81852  0.27098  1.0000
  C   C417      1.0  0.49642  0.83859  0.29354  1.0000
  H   H734      1.0  0.38090  0.55299  0.02461  1.0000
  Fe  Fe60      1.0  0.28338  0.89612  0.32038  1.0000
  S   S128      1.0  0.29933  0.92655  0.35193  1.0000
  C   C418      1.0  0.49567  0.83904  0.34781  1.0000
  S   S129      1.0  0.28723  0.84981  0.33298  1.0000
  H   H735      1.0  0.41685  0.49091  0.34423  1.0000
  H   H736      1.0  0.45259  0.67008  0.98422  1.0000
  C   C419      1.0  0.27415  0.84712  0.99855  1.0000
  H   H737      1.0  0.41893  0.51749  0.09132  1.0000
  S   S130      1.0  0.27897  0.71814  0.23615  1.0000
  C   C420      1.0  0.29381  0.92014  0.17631  1.0000
  S   S131      1.0  0.26344  0.68054  0.13353  1.0000
  H   H738      1.0  0.30640  0.91390  0.19561  1.0000
  Fe  Fe61      1.0  0.43648  0.77087  0.18649  1.0000
  S   S132      1.0  0.41920  0.81502  0.19185  1.0000
  S   S133      1.0  0.40578  0.73617  0.18097  1.0000
  Fe  Fe62      1.0  0.44977  0.82693  0.15440  1.0000
  H   H739      1.0  0.42182  0.49747  0.38131  1.0000
  Fe  Fe63      1.0  0.45676  0.81816  0.22098  1.0000
  S   S134      1.0  0.44668  0.84255  0.26168  1.0000
  S   S135      1.0  0.46578  0.78268  0.14714  1.0000
  S   S136      1.0  0.47243  0.77275  0.21800  1.0000
  H   H740      1.0  0.36514  0.85687  0.41638  1.0000
  H   H741      1.0  0.32431  0.75682  0.13082  1.0000
  S   S137      1.0  0.28060  0.64230  0.39393  1.0000
  Fe  Fe64      1.0  0.30043  0.66953  0.42541  1.0000
  S   S138      1.0  0.28166  0.71272  0.43704  1.0000
  Fe  Fe65      1.0  0.32616  0.62976  0.37885  1.0000
  S   S139      1.0  0.33113  0.59387  0.41457  1.0000
  S   S140      1.0  0.34523  0.61698  0.33327  1.0000
  Fe  Fe66      1.0  0.28678  0.60862  0.43105  1.0000
  Fe  Fe67      1.0  0.34828  0.62545  0.44294  1.0000
  H   H742      1.0  0.35928  0.70744  0.31657  1.0000
  S   S141      1.0  0.34557  0.66072  0.40704  1.0000
  Fe  Fe68      1.0  0.32450  0.64376  0.08588  1.0000
  S   S142      1.0  0.33302  0.67557  0.11782  1.0000
  S   S143      1.0  0.35856  0.62547  0.05454  1.0000
  Fe  Fe69      1.0  0.30210  0.65198  0.14900  1.0000
  S   S144      1.0  0.32011  0.63014  0.19296  1.0000
  Fe  Fe70      1.0  0.29396  0.70046  0.09939  1.0000
  S   S145      1.0  0.28866  0.74335  0.07384  1.0000
  S   S146      1.0  0.29415  0.61993  0.11585  1.0000
  S   S147      1.0  0.28856  0.67001  0.06560  1.0000
  H   H743      1.0  0.26316  0.89247  0.39329  1.0000
  C   C421      1.0  0.27001  0.74095  0.04040  1.0000
  C   C422      1.0  0.27996  0.75416  0.01340  1.0000
  H   H744      1.0  0.36118  0.52708  0.31927  1.0000
  H   H745      1.0  0.29948  0.76523  0.01278  1.0000
  C   C423      1.0  0.31257  0.79981  0.14163  1.0000
  C   C424      1.0  0.33655  0.62187  0.29480  1.0000
  C   C425      1.0  0.32093  0.64569  0.28243  1.0000
  C   C426      1.0  0.31685  0.64905  0.25126  1.0000
  C   C427      1.0  0.32691  0.62830  0.23217  1.0000
  C   C428      1.0  0.34279  0.60471  0.24470  1.0000
  C   C429      1.0  0.34793  0.60178  0.27548  1.0000
  H   H746      1.0  0.31236  0.66175  0.29667  1.0000
  H   H747      1.0  0.30469  0.66709  0.24208  1.0000
  H   H748      1.0  0.35125  0.58861  0.23047  1.0000
  H   H749      1.0  0.36062  0.58360  0.28441  1.0000
  C   C430      1.0  0.44109  0.58716  0.09642  1.0000
  C   C431      1.0  0.41651  0.59252  0.11455  1.0000
  C   C432      1.0  0.39118  0.60492  0.10203  1.0000
  C   C433      1.0  0.39008  0.61093  0.07118  1.0000
  C   C434      1.0  0.41443  0.60491  0.05302  1.0000
  C   C435      1.0  0.43992  0.59333  0.06561  1.0000
  H   H750      1.0  0.37241  0.60947  0.11622  1.0000
  H   H751      1.0  0.41369  0.60941  0.02914  1.0000
  H   H752      1.0  0.45862  0.58881  0.05136  1.0000
  C   C436      1.0  0.46071  0.59177  0.45323  1.0000
  C   C437      1.0  0.43105  0.59971  0.45338  1.0000
  H   H753      1.0  0.36595  0.51238  0.14159  1.0000
  H   H754      1.0  0.37281  0.68378  0.23928  1.0000
  H   H755      1.0  0.41856  0.59653  0.43434  1.0000
  C   C438      1.0  0.46660  0.83713  0.29435  1.0000
  C   C439      1.0  0.45164  0.83602  0.32199  1.0000
  C   C440      1.0  0.46605  0.83667  0.34865  1.0000
  H   H756      1.0  0.26699  0.57991  0.00247  1.0000
  H   H757      1.0  0.42871  0.83464  0.32270  1.0000
  H   H758      1.0  0.45414  0.83581  0.36972  1.0000
  C   C441      1.0  0.44891  0.83910  0.08374  1.0000
  H   H759      1.0  0.29125  0.79282  0.37005  1.0000
  H   H760      1.0  0.45073  0.65521  0.45377  1.0000
  H   H761      1.0  0.36716  0.78255  0.47209  1.0000
  H   H762      1.0  0.40741  0.62184  0.30203  1.0000
  C   C442      1.0  0.31480  0.72189  0.22167  1.0000
  C   C443      1.0  0.33138  0.74227  0.23253  1.0000
  C   C444      1.0  0.35923  0.74693  0.22047  1.0000
  C   C445      1.0  0.37090  0.73122  0.19734  1.0000
  C   C446      1.0  0.35446  0.71058  0.18683  1.0000
  C   C447      1.0  0.32657  0.70615  0.19866  1.0000
  H   H763      1.0  0.32276  0.75452  0.25051  1.0000
  H   H764      1.0  0.37160  0.76267  0.22917  1.0000
  H   H765      1.0  0.36325  0.69777  0.16947  1.0000
  H   H766      1.0  0.31404  0.69067  0.18978  1.0000
  C   C448      1.0  0.29190  0.92604  0.39109  1.0000
  C   C449      1.0  0.30488  0.94519  0.40782  1.0000
  H   H767      1.0  0.45831  0.69987  0.28554  1.0000
  C   C450      1.0  0.28025  0.92748  0.45346  1.0000
  H   H768      1.0  0.29801  0.55769  0.13403  1.0000
  H   H769      1.0  0.31042  0.89580  0.00902  1.0000
  H   H770      1.0  0.32348  0.76136  0.16957  1.0000
  Fe  Fe71      1.0  0.26228  0.88801  0.25725  1.0000
  H   H771      1.0  0.35966  0.85168  0.19444  1.0000
  H   H772      1.0  0.30922  0.96084  0.45131  1.0000
  C   C451      1.0  0.29160  0.93756  0.12356  1.0000
  C   C452      1.0  0.36731  0.82572  0.00274  1.0000
  H   H773      1.0  0.37248  0.96045  0.05595  1.0000
  H   H774      1.0  0.49867  0.71777  0.45828  1.0000
  H   H775      1.0  0.44526  0.51289  0.04422  1.0000
  C   C453      1.0  0.49288  0.74486  0.40833  1.0000
  C   C454      1.0  0.37561  0.53498  0.33526  1.0000
  H   H776      1.0  0.42936  0.80058  0.09814  1.0000
  S   S148      1.0  0.43661  0.85625  0.11525  1.0000
  H   H777      1.0  0.43451  0.89606  0.35261  1.0000
  H   H778      1.0  0.43180  0.88698  0.29636  1.0000
  H   H779      1.0  0.40381  0.91686  0.97989  1.0000
  H   H780      1.0  0.42511  0.85876  0.00884  1.0000
  C   C455      1.0  0.37083  0.52157  0.36716  1.0000
  H   H781      1.0  0.30258  0.56956  0.35497  1.0000
  S   S149      1.0  0.49567  0.63503  0.06387  1.0000
  H   H782      1.0  0.31772  0.87513  0.12217  1.0000
  S   S150      1.0  0.29066  0.52354  0.39746  1.0000
  C   C456      1.0  0.41941  0.77709  0.32567  1.0000
  C   C457      1.0  0.42174  0.78139  0.29469  1.0000
  C   C458      1.0  0.39840  0.79346  0.27848  1.0000
  C   C459      1.0  0.37274  0.80258  0.29299  1.0000
  C   C460      1.0  0.37022  0.79854  0.32413  1.0000
  C   C461      1.0  0.39339  0.78554  0.34036  1.0000
  H   H783      1.0  0.44190  0.77625  0.28318  1.0000
  H   H784      1.0  0.40079  0.79678  0.25454  1.0000
  H   H785      1.0  0.35041  0.80514  0.33556  1.0000
  H   H786      1.0  0.39140  0.78236  0.36435  1.0000
  N   N31       1.0  0.31866  0.82277  0.16141  1.0000
  H   H787      1.0  0.33059  0.93031  0.14779  1.0000
  H   H788      1.0  0.27951  0.87810  0.12278  1.0000
  C   C462      1.0  0.39153  0.97102  0.04629  1.0000
  H   H789      1.0  0.28211  0.80400  0.45000  1.0000
  H   H790      1.0  0.40804  0.54481  0.06501  1.0000
  C   C463      1.0  0.38664  0.96187  0.31960  1.0000
  H   H791      1.0  0.29025  0.79306  0.22898  1.0000
  H   H792      1.0  0.42836  0.72348  0.29533  1.0000
  C   C464      1.0  0.40705  0.87314  0.00024  1.0000
  C   C465      1.0  0.47345  0.80952  0.03662  1.0000
  H   H793      1.0  0.48517  0.71302  0.37900  1.0000
  H   H794      1.0  0.36693  0.50098  0.03341  1.0000
  C   C466      1.0  0.43244  0.65218  0.27384  1.0000
  H   H795      1.0  0.44892  0.71309  0.44235  1.0000
  H   H796      1.0  0.29082  0.83601  0.01270  1.0000
  C   C467      1.0  0.38072  0.93105  0.32930  1.0000
  H   H797      1.0  0.38278  0.97487  0.33903  1.0000
  H   H798      1.0  0.27072  0.86929  0.00379  1.0000
  H   H799      1.0  0.44513  0.65715  0.29292  1.0000
  S   S151      1.0  0.44739  0.82085  0.43682  1.0000
  H   H800      1.0  0.34367  0.88583  0.42987  1.0000
  H   H801      1.0  0.31960  0.83031  0.20827  1.0000
  H   H802      1.0  0.40971  0.89256  0.24994  1.0000
  H   H803      1.0  0.40696  0.71752  0.24624  1.0000
  S   S152      1.0  0.30445  0.63627  0.46265  1.0000
  H   H804      1.0  0.40906  0.96411  0.31119  1.0000
  N   N32       1.0  0.42889  0.70005  0.09673  1.0000
  C   C468      1.0  0.42927  0.69036  0.12948  1.0000
  C   C469      1.0  0.41401  0.72913  0.09438  1.0000
  C   C470      1.0  0.45979  0.70247  0.08634  1.0000
  C   C471      1.0  0.41431  0.67880  0.08038  1.0000
  C   C472      1.0  0.43830  0.65899  0.13711  1.0000
  C   C473      1.0  0.38119  0.73083  0.10019  1.0000
  C   C474      1.0  0.46596  0.70799  0.05262  1.0000
  C   C475      1.0  0.40450  0.68782  0.04844  1.0000
  H   H805      1.0  0.44355  0.70322  0.14154  1.0000
  H   H806      1.0  0.40772  0.69343  0.14035  1.0000
  H   H807      1.0  0.41794  0.74015  0.07227  1.0000
  H   H808      1.0  0.42321  0.74271  0.11029  1.0000
  H   H809      1.0  0.46940  0.71947  0.09768  1.0000
  H   H810      1.0  0.47293  0.68312  0.09303  1.0000
  H   H811      1.0  0.42857  0.65925  0.07892  1.0000
  H   H812      1.0  0.39492  0.67193  0.09349  1.0000
  H   H813      1.0  0.45691  0.65084  0.12363  1.0000
  H   H814      1.0  0.44415  0.65603  0.16083  1.0000
  H   H815      1.0  0.42001  0.64582  0.13452  1.0000
  H   H816      1.0  0.37508  0.72412  0.12348  1.0000
  H   H817      1.0  0.37298  0.75311  0.09645  1.0000
  H   H818      1.0  0.36987  0.71868  0.08483  1.0000
  H   H819      1.0  0.32703  0.90675  0.04115  1.0000
  C   C476      1.0  0.26170  0.58830  0.34064  1.0000
  C   C477      1.0  0.28856  0.80002  0.20498  1.0000
  H   H820      1.0  0.41542  0.67372  0.03234  1.0000
  H   H821      1.0  0.40826  0.70975  0.04060  1.0000
  H   H822      1.0  0.38112  0.68518  0.04710  1.0000
  H   H823      1.0  0.41355  0.51083  0.02404  1.0000
  H   H824      1.0  0.49109  0.64617  0.42951  1.0000
  C   C478      1.0  0.34859  0.83180  0.15396  1.0000
  H   H825      1.0  0.34801  0.83551  0.99162  1.0000
  H   H826      1.0  0.29068  0.51595  0.25763  1.0000
  S   S153      1.0  0.32544  0.96418  0.00499  1.0000
  C   C479      1.0  0.35764  0.85706  0.17016  1.0000
  H   H827      1.0  0.27179  0.58596  0.17190  1.0000
  S   S154      1.0  0.29411  0.51037  0.00811  1.0000
  C   C480      1.0  0.41921  0.90222  0.99232  1.0000
  H   H828      1.0  0.28403  0.78121  0.19338  1.0000
  H   H829      1.0  0.35179  0.83683  0.12961  1.0000
  H   H830      1.0  0.36478  0.81426  0.15951  1.0000
  H   H831      1.0  0.48915  0.71158  0.04893  1.0000
  H   H832      1.0  0.49406  0.75943  0.38811  1.0000
  C   C481      1.0  0.35244  0.71563  0.47332  1.0000
  H   H833      1.0  0.31068  0.64165  0.01380  1.0000
  H   H834      1.0  0.43941  0.93220  0.34019  1.0000
  Fe  Fe72      1.0  0.25794  0.64987  0.09873  1.0000
  H   H835      1.0  0.26119  0.60862  0.04823  1.0000
  H   H836      1.0  0.37923  0.86274  0.16131  1.0000
  H   H837      1.0  0.27026  0.81588  0.20322  1.0000
  H   H838      1.0  0.38829  0.51109  0.42771  1.0000
  H   H839      1.0  0.32254  0.77570  0.38591  1.0000
  C   C482      1.0  0.30527  0.79964  0.45486  1.0000
  H   H840      1.0  0.34871  0.69325  0.47086  1.0000
  C   C483      1.0  0.28416  0.59380  0.00743  1.0000
  C   C484      1.0  0.27495  0.55707  0.13675  1.0000
  H   H841      1.0  0.42643  0.91195  0.01209  1.0000
  H   H842      1.0  0.38628  0.65146  0.20070  1.0000
  H   H843      1.0  0.37028  0.55799  0.33548  1.0000
  H   H844      1.0  0.36524  0.81001  0.40853  1.0000
  H   H845      1.0  0.44515  0.70358  0.40552  1.0000
  N   N33       1.0  0.48710  0.69201  0.42327  1.0000
  C   C485      1.0  0.30748  0.92952  0.14910  1.0000
  C   C486      1.0  0.31690  0.81272  0.19391  1.0000
  H   H846      1.0  0.35111  0.77890  0.42354  1.0000
  C   C487      1.0  0.38937  0.88607  0.04957  1.0000
  H   H847      1.0  0.41728  0.58783  0.13840  1.0000
  H   H848      1.0  0.35316  0.77329  0.14606  1.0000
  C   C488      1.0  0.26076  0.49558  0.31042  1.0000
  H   H849      1.0  0.43236  0.92334  0.28828  1.0000
  Fe  Fe73      1.0  0.26600  0.50224  0.04912  1.0000
  H   H850      1.0  0.33220  0.87016  0.39813  1.0000
  C   C489      1.0  0.42317  0.70120  0.25480  1.0000
  H   H851      1.0  0.31605  0.55596  0.26918  1.0000
  Fe  Fe74      1.0  0.49297  0.75291  0.32385  1.0000
  H   H852      1.0  0.37840  0.72558  0.28686  1.0000
  C   C490      1.0  0.44139  0.71486  0.27664  1.0000
  H   H853      1.0  0.28410  0.57671  0.27778  1.0000
  H   H854      1.0  0.49143  0.73188  0.99001  1.0000
  N   N34       1.0  0.40926  0.67507  0.26725  1.0000
  H   H855      1.0  0.43769  0.69669  0.23526  1.0000
  C   C491      1.0  0.26534  0.75232  0.98682  1.0000
  H   H856      1.0  0.44833  0.65078  0.25477  1.0000
  N   N35       1.0  0.32379  0.81597  0.43229  1.0000
  C   C492      1.0  0.30961  0.81739  0.40262  1.0000
  C   C493      1.0  0.32518  0.84575  0.44100  1.0000
  C   C494      1.0  0.26592  0.71736  0.47291  1.0000
  C   C495      1.0  0.35309  0.80116  0.42851  1.0000
  C   C496      1.0  0.30278  0.78884  0.39120  1.0000
  C   C497      1.0  0.34267  0.86537  0.41973  1.0000
  H   H857      1.0  0.28277  0.57676  0.05347  1.0000
  H   H858      1.0  0.45402  0.72696  0.04282  1.0000
  H   H859      1.0  0.28906  0.83068  0.40337  1.0000
  H   H860      1.0  0.32336  0.82761  0.38476  1.0000
  H   H861      1.0  0.33444  0.84637  0.46308  1.0000
  H   H862      1.0  0.30312  0.85592  0.44346  1.0000
  C   C498      1.0  0.43854  0.67019  0.43857  1.0000
  H   H863      1.0  0.34692  0.56297  0.04302  1.0000
  C   C499      1.0  0.40326  0.65820  0.21475  1.0000
  H   H864      1.0  0.38967  0.92641  0.35172  1.0000
  H   H865      1.0  0.29522  0.54580  0.30146  1.0000
  H   H866      1.0  0.47087  0.58239  0.43401  1.0000
  N   N36       1.0  0.37770  0.49021  0.37163  1.0000
  H   H867      1.0  0.33620  0.51337  0.05365  1.0000
  N   N37       1.0  0.39183  0.90959  0.30800  1.0000
  C   C500      1.0  0.32963  0.77143  0.14762  1.0000
  H   H868      1.0  0.28939  0.79548  0.14301  1.0000
  H   H869      1.0  0.40469  0.86426  0.35628  1.0000
  H   H870      1.0  0.28852  0.77669  0.40687  1.0000
  H   H871      1.0  0.28401  0.49699  0.30535  1.0000
  Fe  Fe75      1.0  0.44353  0.85338  0.47065  1.0000
  C   C501      1.0  0.36932  0.70518  0.29401  1.0000
  H   H872      1.0  0.45204  0.77420  0.05708  1.0000
  H   H873      1.0  0.35173  0.70132  0.27931  1.0000
  H   H874      1.0  0.40644  0.96374  0.47093  1.0000
  C   C502      1.0  0.44102  0.91026  0.33350  1.0000
  H   H875      1.0  0.29734  0.86241  0.17316  1.0000
  C   C503      1.0  0.26001  0.54175  0.11756  1.0000
  S   S155      1.0  0.25530  0.63179  0.24591  1.0000
  H   H876      1.0  0.38048  0.66154  0.30369  1.0000
  C   C504      1.0  0.30981  0.63529  0.99066  1.0000
  C   C505      1.0  0.39222  0.68030  0.29574  1.0000
  C   C506      1.0  0.26398  0.91834  0.17831  1.0000
  C   C507      1.0  0.46610  0.85277  0.06179  1.0000
  C   C508      1.0  0.26016  0.57309  0.15831  1.0000
  H   H877      1.0  0.34191  0.72780  0.45433  1.0000
  S   S156      1.0  0.49120  0.78975  0.00944  1.0000
  H   H878      1.0  0.40664  0.68362  0.31407  1.0000
  H   H879      1.0  0.34301  0.87607  0.16655  1.0000
  C   C509      1.0  0.45481  0.69619  0.42719  1.0000
  Fe  Fe76      1.0  0.27391  0.49106  0.43201  1.0000
  C   C510      1.0  0.37277  0.79950  0.45522  1.0000
  Fe  Fe77      1.0  0.46952  0.79386  0.47279  1.0000
  C   C511      1.0  0.47844  0.83793  0.03822  1.0000
  H   H880      1.0  0.37690  0.64886  0.25411  1.0000
  H   H881      1.0  0.44098  0.60788  0.28740  1.0000
  N   N38       1.0  0.28282  0.62042  0.98699  1.0000
  H   H882      1.0  0.34981  0.87979  0.07779  1.0000
  C   C512      1.0  0.42207  0.62243  0.28204  1.0000
  C   C513      1.0  0.38924  0.66656  0.24470  1.0000
  C   C514      1.0  0.32780  0.89032  0.02489  1.0000
  H   H883      1.0  0.47099  0.87438  0.06380  1.0000
  H   H884      1.0  0.38651  0.90940  0.04635  1.0000
  C   C515      1.0  0.29369  0.55482  0.27817  1.0000
  H   H885      1.0  0.36536  0.55766  0.08914  1.0000
  H   H886      1.0  0.41298  0.67627  0.20226  1.0000
  H   H887      1.0  0.37948  0.89075  0.09663  1.0000
  H   H888      1.0  0.30474  0.58119  0.00382  1.0000
  H   H889      1.0  0.41952  0.64035  0.21742  1.0000
  C   C516      1.0  0.26172  0.93641  0.12574  1.0000
  H   H890      1.0  0.39515  0.79469  0.44714  1.0000
  C   C517      1.0  0.48625  0.65672  0.38265  1.0000
  H   H891      1.0  0.35303  0.88213  0.98473  1.0000
  C   C518      1.0  0.29656  0.84685  0.15602  1.0000
  H   H892      1.0  0.32946  0.62095  0.98858  1.0000
  H   H893      1.0  0.39470  0.83054  0.03933  1.0000
  H   H894      1.0  0.39666  0.96236  0.02431  1.0000
  C   C519      1.0  0.42295  0.50601  0.04618  1.0000
  H   H895      1.0  0.38381  0.53307  0.38187  1.0000
  C   C520      1.0  0.42423  0.90728  0.30518  1.0000
  H   H896      1.0  0.39540  0.53448  0.13088  1.0000
  H   H897      1.0  0.34514  0.48982  0.40725  1.0000
  C   C521      1.0  0.29915  0.94591  0.43881  1.0000
  H   H898      1.0  0.41251  0.88144  0.05407  1.0000
  H   H899      1.0  0.36172  0.91139  0.00235  1.0000
  H   H900      1.0  0.37837  0.90743  0.23184  1.0000
  C   C522      1.0  0.36168  0.53573  0.09768  1.0000
  H   H901      1.0  0.25797  0.49220  0.33506  1.0000
  H   H902      1.0  0.32290  0.50141  0.34416  1.0000
  S   S157      1.0  0.48547  0.87196  0.45579  1.0000
  H   H903      1.0  0.47164  0.74975  0.41921  1.0000
  H   H904      1.0  0.37999  0.85528  0.08678  1.0000
  H   H905      1.0  0.43081  0.65928  0.41977  1.0000
  C   C523      1.0  0.26748  0.90813  0.43678  1.0000
  C   C524      1.0  0.35910  0.51751  0.04854  1.0000
  H   H906      1.0  0.46389  0.66491  0.37881  1.0000
  H   H907      1.0  0.37246  0.88570  0.36590  1.0000
  C   C525      1.0  0.28178  0.59775  0.04119  1.0000
  C   C526      1.0  0.40638  0.52194  0.07083  1.0000
  H   H908      1.0  0.35796  0.83964  0.04622  1.0000
  S   S158      1.0  0.47342  0.57346  0.11223  1.0000
  C   C527      1.0  0.38000  0.88142  0.31747  1.0000
  C   C528      1.0  0.44302  0.81104  0.08144  1.0000
  H   H909      1.0  0.37049  0.85123  0.35414  1.0000
  S   S159      1.0  0.27956  0.52533  0.08828  1.0000
  H   H910      1.0  0.41878  0.67729  0.45112  1.0000
  S   S160      1.0  0.26390  0.84100  0.26677  1.0000
  C   C529      1.0  0.38639  0.89775  0.25335  1.0000
  H   H911      1.0  0.35662  0.92344  0.27941  1.0000
  S   S161      1.0  0.25766  0.95360  0.01870  1.0000
  H   H912      1.0  0.48737  0.63355  0.38114  1.0000
  C   C530      1.0  0.37336  0.87729  0.07908  1.0000
  H   H913      1.0  0.31727  0.80634  0.11781  1.0000
  H   H914      1.0  0.29780  0.84880  0.10655  1.0000
  N   N39       1.0  0.37552  0.51509  0.07680  1.0000
  C   C531      1.0  0.27950  0.56872  0.35745  1.0000
  H   H915      1.0  0.37514  0.87806  0.25822  1.0000
  H   H916      1.0  0.38940  0.93869  0.26855  1.0000
  H   H917      1.0  0.35708  0.93019  0.33289  1.0000
  C   C532      1.0  0.45558  0.79618  0.05810  1.0000
  C   C533      1.0  0.38028  0.91876  0.27771  1.0000
  H   H918      1.0  0.35668  0.88201  0.31298  1.0000
  H   H919      1.0  0.31934  0.95971  0.39672  1.0000
  H   H920      1.0  0.39029  0.86449  0.30411  1.0000
  C   C534      1.0  0.47737  0.59620  0.47763  1.0000
  N   N40       1.0  0.38150  0.87259  0.02189  1.0000
  H   H921      1.0  0.27112  0.60410  0.32546  1.0000
  C   C535      1.0  0.35901  0.54640  0.03071  1.0000
  C   C536      1.0  0.37195  0.53252  0.12991  1.0000
  Fe  Fe78      1.0  0.29391  0.96681  0.04438  1.0000
  H   H922      1.0  0.37163  0.97063  0.30228  1.0000
  H   H923      1.0  0.46198  0.68937  0.04043  1.0000
  H   H924      1.0  0.32254  0.86992  0.03625  1.0000
  C   C537      1.0  0.27331  0.90732  0.40582  1.0000
  H   H925      1.0  0.33492  0.79713  0.19958  1.0000
  H   H926      1.0  0.27449  0.83936  0.15864  1.0000
  H   H927      1.0  0.38528  0.82310  0.98609  1.0000
  H   H928      1.0  0.33793  0.53512  0.09864  1.0000
  H   H929      1.0  0.30967  0.77654  0.45338  1.0000
  C   C538      1.0  0.38240  0.87063  0.35041  1.0000
  H   H930      1.0  0.46414  0.90467  0.32863  1.0000
  C   C539      1.0  0.37555  0.84209  0.02917  1.0000
  H   H931      1.0  0.34817  0.52731  0.37400  1.0000
  C   C540      1.0  0.49693  0.71394  0.39985  1.0000
  C   C541      1.0  0.35667  0.88908  0.00720  1.0000
  H   H932      1.0  0.30377  0.68109  0.98144  1.0000
  H   H933      1.0  0.34797  0.54497  0.00956  1.0000
  C   C542      1.0  0.26761  0.54838  0.37763  1.0000
  H   H934      1.0  0.37339  0.81967  0.46565  1.0000
  H   H935      1.0  0.35653  0.53820  0.46762  1.0000
  H   H936      1.0  0.30854  0.54900  0.45537  1.0000
  C   C543      1.0  0.27779  0.53635  0.25844  1.0000
  H   H937      1.0  0.49305  0.84807  0.02234  1.0000
  H   H938      1.0  0.29994  0.60881  0.04870  1.0000
  H   H939      1.0  0.37562  0.71935  0.47067  1.0000
  H   H940      1.0  0.27955  0.54644  0.23537  1.0000
  H   H941      1.0  0.36124  0.54973  0.14248  1.0000
  H   H942      1.0  0.41030  0.96528  0.06027  1.0000
  H   H943      1.0  0.26073  0.65024  0.01568  1.0000
  C   C544      1.0  0.38557  0.48818  0.42824  1.0000
  S   S162      1.0  0.40001  0.87717  0.47752  1.0000
  Fe  Fe79      1.0  0.25606  0.50527  0.98060  1.0000
  C   C545      1.0  0.37496  0.48522  0.09006  1.0000
  H   H944      1.0  0.33094  0.49063  0.11051  1.0000
  C   C546      1.0  0.41775  0.61181  0.47819  1.0000
  C   C547      1.0  0.25650  0.63845  0.99605  1.0000
  Fe  Fe80      1.0  0.50023  0.78950  0.17913  1.0000
  H   H945      1.0  0.49515  0.64969  0.19855  1.0000
  C   C548      1.0  0.49700  0.66344  0.41306  1.0000
  C   C549      1.0  0.50210  0.69598  0.45157  1.0000
  H   H946      1.0  0.50055  0.66544  0.36454  1.0000
  C   C550      1.0  0.50283  0.66845  0.18674  1.0000
  H   H947      1.0  0.26187  0.80758  0.05408  1.0000
  H   H948      1.0  0.26346  0.84426  0.05531  1.0000
  C   C551      1.0  0.40965  0.48435  0.36739  1.0000
  H   H949      1.0  0.25731  0.76173  0.46301  1.0000
  H   H950      1.0  0.40233  0.53324  0.47848  1.0000
  C   C552      1.0  0.49316  0.67753  0.47932  1.0000
  H   H951      1.0  0.38142  0.80242  0.71793  1.0000
  S   S163      1.0  0.46355  0.74187  0.69689  1.0000
  C   C553      1.0  0.27110  0.51340  0.85880  1.0000
  H   H952      1.0  0.34047  0.64024  0.55688  1.0000
  Fe  Fe81      1.0  0.47900  0.69640  0.69971  1.0000
  S   S164      1.0  0.45075  0.66319  0.72245  1.0000
  C   C554      1.0  0.27809  0.94333  0.72635  1.0000
  Fe  Fe82      1.0  0.28965  0.61208  0.71434  1.0000
  S   S165      1.0  0.29634  0.56486  0.71524  1.0000
  S   S166      1.0  0.32043  0.64491  0.69582  1.0000
  C   C555      1.0  0.41454  0.96102  0.55769  1.0000
  H   H953      1.0  0.26911  0.67388  0.48947  1.0000
  Fe  Fe83      1.0  0.26687  0.56503  0.75714  1.0000
  H   H954      1.0  0.42126  0.94428  0.60466  1.0000
  C   C556      1.0  0.49200  0.60036  0.71799  1.0000
  S   S167      1.0  0.26271  0.61220  0.75726  1.0000
  H   H955      1.0  0.34047  0.54002  0.56244  1.0000
  C   C557      1.0  0.38291  0.54886  0.52088  1.0000
  S   S168      1.0  0.28257  0.91646  0.95211  1.0000
  C   C558      1.0  0.46399  0.60825  0.50239  1.0000
  Fe  Fe84      1.0  0.31258  0.95238  0.58876  1.0000
  S   S169      1.0  0.33688  0.93082  0.62751  1.0000
  H   H956      1.0  0.30500  0.57058  0.95617  1.0000
  Fe  Fe85      1.0  0.35908  0.78196  0.78240  1.0000
  S   S170      1.0  0.32150  0.76739  0.76001  1.0000
  S   S171      1.0  0.40525  0.76723  0.77085  1.0000
  Fe  Fe86      1.0  0.32223  0.82851  0.81273  1.0000
  S   S172      1.0  0.28112  0.81633  0.79339  1.0000
  S   S173      1.0  0.33319  0.87081  0.82977  1.0000
  Fe  Fe87      1.0  0.29698  0.77091  0.80381  1.0000
  Fe  Fe88      1.0  0.30721  0.81276  0.75074  1.0000
  S   S174      1.0  0.28926  0.82690  0.70585  1.0000
  S   S175      1.0  0.33649  0.78315  0.82697  1.0000
  S   S176      1.0  0.34678  0.82711  0.76873  1.0000
  Fe  Fe89      1.0  0.46606  0.85302  0.92123  1.0000
  S   S177      1.0  0.47102  0.80643  0.93016  1.0000
  H   H957      1.0  0.44570  0.95849  0.50428  1.0000
  S   S178      1.0  0.46422  0.82577  0.50707  1.0000
  S   S179      1.0  0.45669  0.74969  0.48562  1.0000
  C   C559      1.0  0.39993  0.68722  0.52209  1.0000
  H   H958      1.0  0.29662  0.82664  0.49227  1.0000
  H   H959      1.0  0.36132  0.61427  0.73602  1.0000
  H   H960      1.0  0.33747  0.66547  0.96782  1.0000
  H   H961      1.0  0.45110  0.70758  0.97767  1.0000
  H   H962      1.0  0.49457  0.54441  0.74210  1.0000
  H   H963      1.0  0.47035  0.68210  0.48606  1.0000
  S   S180      1.0  0.31557  0.82832  0.58052  1.0000
  H   H964      1.0  0.41977  0.79882  0.71500  1.0000
  H   H965      1.0  0.36107  0.68214  0.66803  1.0000
  H   H966      1.0  0.39593  0.68400  0.49864  1.0000
  H   H967      1.0  0.31373  0.70211  0.71644  1.0000
  H   H968      1.0  0.40160  0.82886  0.69694  1.0000
  H   H969      1.0  0.39686  0.83540  0.60943  1.0000
  H   H970      1.0  0.41967  0.79290  0.66154  1.0000
  H   H971      1.0  0.32311  0.66814  0.57656  1.0000
  H   H972      1.0  0.30227  0.77785  0.67093  1.0000
  H   H973      1.0  0.41145  0.69076  0.67863  1.0000
  H   H974      1.0  0.42425  0.62461  0.52225  1.0000
  Fe  Fe90      1.0  0.27181  0.80825  0.89143  1.0000
  S   S181      1.0  0.31942  0.79568  0.89821  1.0000
  C   C560      1.0  0.43432  0.61569  0.50277  1.0000
  H   H975      1.0  0.31362  0.80487  0.64505  1.0000
  H   H976      1.0  0.33478  0.49837  0.51297  1.0000
  N   N41       1.0  0.35399  0.53806  0.51591  1.0000
  C   C561      1.0  0.27979  0.49626  0.57189  1.0000
  C   C562      1.0  0.46036  0.71505  0.90494  1.0000
  H   H977      1.0  0.43509  0.92470  0.49633  1.0000
  H   H978      1.0  0.38615  0.74042  0.60814  1.0000
  H   H979      1.0  0.46897  0.74543  0.94704  1.0000
  H   H980      1.0  0.28464  0.50444  0.64651  1.0000
  H   H981      1.0  0.38449  0.94115  0.49354  1.0000
  H   H982      1.0  0.27870  0.63008  0.93916  1.0000
  H   H983      1.0  0.31199  0.53883  0.53812  1.0000
  C   C563      1.0  0.45058  0.75940  0.58375  1.0000
  C   C564      1.0  0.30487  0.59173  0.94413  1.0000
  H   H984      1.0  0.31576  0.68116  0.52504  1.0000
  H   H985      1.0  0.46760  0.75973  0.89106  1.0000
  C   C565      1.0  0.28363  0.71269  0.67966  1.0000
  C   C566      1.0  0.25989  0.53254  0.61645  1.0000
  H   H986      1.0  0.48234  0.55202  0.77800  1.0000
  H   H987      1.0  0.42865  0.91022  0.83316  1.0000
  C   C567      1.0  0.37585  0.86358  0.50564  1.0000
  C   C568      1.0  0.38483  0.84135  0.52565  1.0000
  C   C569      1.0  0.36591  0.83076  0.54808  1.0000
  C   C570      1.0  0.33754  0.84202  0.55070  1.0000
  C   C571      1.0  0.32828  0.86435  0.53072  1.0000
  C   C572      1.0  0.34756  0.87537  0.50853  1.0000
  H   H988      1.0  0.40661  0.83270  0.52429  1.0000
  H   H989      1.0  0.37341  0.81379  0.56359  1.0000
  H   H990      1.0  0.30657  0.87363  0.53280  1.0000
  C   C573      1.0  0.45208  0.68761  0.96652  1.0000
  C   C574      1.0  0.39337  0.85019  0.91620  1.0000
  C   C575      1.0  0.39879  0.82400  0.90443  1.0000
  C   C576      1.0  0.37598  0.80728  0.89952  1.0000
  C   C577      1.0  0.34764  0.81615  0.90741  1.0000
  C   C578      1.0  0.34279  0.84064  0.92251  1.0000
  C   C579      1.0  0.36526  0.85837  0.92546  1.0000
  H   H991      1.0  0.27429  0.76130  0.96605  1.0000
  H   H992      1.0  0.38014  0.78777  0.88888  1.0000
  H   H993      1.0  0.32160  0.84612  0.93134  1.0000
  H   H994      1.0  0.36070  0.87863  0.93440  1.0000
  C   C580      1.0  0.42975  0.74177  0.78832  1.0000
  C   C581      1.0  0.45747  0.73791  0.77556  1.0000
  C   C582      1.0  0.47726  0.71700  0.78744  1.0000
  C   C583      1.0  0.47020  0.70055  0.81313  1.0000
  C   C584      1.0  0.44248  0.70450  0.82627  1.0000
  C   C585      1.0  0.42246  0.72533  0.81415  1.0000
  H   H995      1.0  0.46387  0.75139  0.75652  1.0000
  H   H996      1.0  0.41829  0.51732  0.51260  1.0000
  H   H997      1.0  0.43667  0.69173  0.84610  1.0000
  H   H998      1.0  0.40160  0.72904  0.82483  1.0000
  C   C586      1.0  0.32332  0.90189  0.64891  1.0000
  C   C587      1.0  0.30185  0.88645  0.63853  1.0000
  C   C588      1.0  0.29166  0.86342  0.65620  1.0000
  C   C589      1.0  0.30273  0.85578  0.68436  1.0000
  C   C590      1.0  0.32409  0.87132  0.69484  1.0000
  C   C591      1.0  0.33453  0.89413  0.67701  1.0000
  H   H999      1.0  0.29343  0.89192  0.61667  1.0000
  H   H1000     1.0  0.27521  0.85140  0.64791  1.0000
  H   H1001     1.0  0.33261  0.86576  0.71658  1.0000
  H   H1002     1.0  0.35118  0.90599  0.68513  1.0000
  C   C592      1.0  0.29548  0.90681  0.91639  1.0000
  C   C593      1.0  0.31579  0.92161  0.89883  1.0000
  C   C594      1.0  0.32695  0.91099  0.87183  1.0000
  C   C595      1.0  0.31832  0.88532  0.86266  1.0000
  C   C596      1.0  0.29811  0.87110  0.88012  1.0000
  C   C597      1.0  0.28596  0.88211  0.90623  1.0000
  H   H1003     1.0  0.32346  0.94066  0.90636  1.0000
  H   H1004     1.0  0.34296  0.92216  0.85858  1.0000
  H   H1005     1.0  0.29376  0.85044  0.87428  1.0000
  C   C598      1.0  0.44900  0.74903  0.52380  1.0000
  Fe  Fe91      1.0  0.25602  0.56667  0.68873  1.0000
  H   H1006     1.0  0.27905  0.49404  0.84939  1.0000
  Fe  Fe92      1.0  0.28712  0.95608  0.52663  1.0000
  S   S182      1.0  0.26826  0.94757  0.57337  1.0000
  H   H1007     1.0  0.30642  0.66205  0.94800  1.0000
  H   H1008     1.0  0.29541  0.78990  0.50200  1.0000
  H   H1009     1.0  0.31037  0.58461  0.55753  1.0000
  C   C599      1.0  0.26431  0.92590  0.70387  1.0000
  H   H1010     1.0  0.37029  0.49847  0.49890  1.0000
  H   H1011     1.0  0.25895  0.67572  0.96353  1.0000
  H   H1012     1.0  0.25567  0.52474  0.54165  1.0000
  C   C600      1.0  0.43407  0.77740  0.56439  1.0000
  H   H1013     1.0  0.41351  0.83813  0.64467  1.0000
  Fe  Fe93      1.0  0.48268  0.74242  0.65076  1.0000
  H   H1014     1.0  0.43698  0.54959  0.76360  1.0000
  H   H1015     1.0  0.38731  0.86444  0.63150  1.0000
  H   H1016     1.0  0.39067  0.96277  0.55816  1.0000
  H   H1017     1.0  0.34223  0.79723  0.69247  1.0000
  H   H1018     1.0  0.28294  0.84732  0.97520  1.0000
  H   H1019     1.0  0.43922  0.58080  0.73978  1.0000
  C   C601      1.0  0.41495  0.65769  0.71361  1.0000
  C   C602      1.0  0.40052  0.63607  0.72963  1.0000
  C   C603      1.0  0.37204  0.63102  0.72355  1.0000
  C   C604      1.0  0.35736  0.64807  0.70189  1.0000
  C   C605      1.0  0.37191  0.66936  0.68546  1.0000
  C   C606      1.0  0.40054  0.67421  0.69128  1.0000
  H   H1020     1.0  0.41117  0.62340  0.74717  1.0000
  C   C607      1.0  0.34410  0.54907  0.48547  1.0000
  H   H1021     1.0  0.47562  0.71149  0.53519  1.0000
  N   N42       1.0  0.42604  0.93529  0.54210  1.0000
  C   C608      1.0  0.42860  0.94337  0.50906  1.0000
  C   C609      1.0  0.45567  0.92575  0.55251  1.0000
  H   H1022     1.0  0.32613  0.60058  0.94506  1.0000
  C   C610      1.0  0.40572  0.91199  0.54660  1.0000
  Fe  Fe94      1.0  0.28793  0.95441  0.97847  1.0000
  C   C611      1.0  0.47102  0.90061  0.53736  1.0000
  C   C612      1.0  0.25609  0.74449  0.47984  1.0000
  C   C613      1.0  0.40008  0.90020  0.57874  1.0000
  C   C614      1.0  0.28030  0.61173  0.95569  1.0000
  H   H1023     1.0  0.26798  0.96499  0.72641  1.0000
  H   H1024     1.0  0.45534  0.91949  0.57674  1.0000
  H   H1025     1.0  0.47007  0.94354  0.54929  1.0000
  H   H1026     1.0  0.31564  0.72743  0.50115  1.0000
  C   C615      1.0  0.36586  0.49095  0.54657  1.0000
  H   H1027     1.0  0.38428  0.91885  0.53797  1.0000
  H   H1028     1.0  0.41353  0.89401  0.53363  1.0000
  S   S183      1.0  0.27221  0.73069  0.81487  1.0000
  H   H1029     1.0  0.45889  0.88137  0.54049  1.0000
  S   S184      1.0  0.33221  0.95727  0.54231  1.0000
  C   C616      1.0  0.31412  0.66250  0.97080  1.0000
  C   C617      1.0  0.27868  0.50924  0.62364  1.0000
  H   H1030     1.0  0.32947  0.80480  0.49555  1.0000
  C   C618      1.0  0.42389  0.96354  0.58989  1.0000
  H   H1031     1.0  0.27769  0.93311  0.74926  1.0000
  H   H1032     1.0  0.42119  0.98076  0.54522  1.0000
  C   C619      1.0  0.49013  0.73474  0.94107  1.0000
  H   H1033     1.0  0.38508  0.88310  0.57837  1.0000
  H   H1034     1.0  0.38914  0.91630  0.59243  1.0000
  H   H1035     1.0  0.36224  0.63648  0.86420  1.0000
  H   H1036     1.0  0.44655  0.96927  0.58997  1.0000
  H   H1037     1.0  0.44883  0.54751  0.72539  1.0000
  H   H1038     1.0  0.50223  0.60629  0.81098  1.0000
  H   H1039     1.0  0.32193  0.59077  0.51943  1.0000
  C   C620      1.0  0.50198  0.58067  0.69327  1.0000
  H   H1040     1.0  0.27172  0.88432  0.74906  1.0000
  C   C621      1.0  0.48048  0.60416  0.80289  1.0000
  C   C622      1.0  0.46320  0.72933  0.54357  1.0000
  H   H1041     1.0  0.28887  0.69245  0.66920  1.0000
  H   H1042     1.0  0.42524  0.55197  0.49943  1.0000
  H   H1043     1.0  0.29932  0.64883  0.79384  1.0000
  H   H1044     1.0  0.50164  0.75016  0.92613  1.0000
  H   H1045     1.0  0.25421  0.96305  0.90235  1.0000
  H   H1046     1.0  0.47607  0.66519  0.93288  1.0000
  S   S185      1.0  0.27294  0.53587  0.80019  1.0000
  H   H1047     1.0  0.47229  0.58356  0.81069  1.0000
  H   H1048     1.0  0.42035  0.81724  0.89780  1.0000
  N   N43       1.0  0.42344  0.85335  0.81275  1.0000
  C   C623      1.0  0.43192  0.86418  0.84154  1.0000
  C   C624      1.0  0.40767  0.82704  0.82100  1.0000
  C   C625      1.0  0.40246  0.87462  0.79735  1.0000
  C   C626      1.0  0.44977  0.84648  0.79368  1.0000
  C   C627      1.0  0.44496  0.89306  0.83935  1.0000
  C   C628      1.0  0.42586  0.80107  0.83389  1.0000
  C   C629      1.0  0.41501  0.89649  0.77425  1.0000
  C   C630      1.0  0.44423  0.83203  0.76497  1.0000
  H   H1049     1.0  0.41281  0.86608  0.85708  1.0000
  H   H1050     1.0  0.44776  0.84928  0.85311  1.0000
  H   H1051     1.0  0.39736  0.81986  0.80143  1.0000
  H   H1052     1.0  0.38942  0.83152  0.83713  1.0000
  H   H1053     1.0  0.38644  0.86423  0.78512  1.0000
  H   H1054     1.0  0.38916  0.88634  0.81405  1.0000
  H   H1055     1.0  0.46176  0.86541  0.78726  1.0000
  H   H1056     1.0  0.46504  0.83243  0.80693  1.0000
  H   H1057     1.0  0.45208  0.89731  0.86175  1.0000
  H   H1058     1.0  0.46409  0.89380  0.82403  1.0000
  H   H1059     1.0  0.46643  0.62058  0.81352  1.0000
  H   H1060     1.0  0.43850  0.80534  0.85303  1.0000
  H   H1061     1.0  0.41121  0.78439  0.84155  1.0000
  H   H1062     1.0  0.44068  0.79205  0.81672  1.0000
  H   H1063     1.0  0.39770  0.91264  0.76788  1.0000
  H   H1064     1.0  0.42260  0.88663  0.75357  1.0000
  H   H1065     1.0  0.43267  0.90758  0.78276  1.0000
  H   H1066     1.0  0.45708  0.84152  0.74598  1.0000
  H   H1067     1.0  0.42145  0.83389  0.75872  1.0000
  H   H1068     1.0  0.29804  0.56243  0.49032  1.0000
  H   H1069     1.0  0.26101  0.66848  0.71213  1.0000
  C   C631      1.0  0.48152  0.56047  0.75442  1.0000
  C   C632      1.0  0.38312  0.74837  0.63069  1.0000
  H   H1070     1.0  0.27069  0.87018  0.91977  1.0000
  H   H1071     1.0  0.47649  0.61155  0.52141  1.0000
  H   H1072     1.0  0.38229  0.57212  0.51693  1.0000
  H   H1073     1.0  0.32890  0.71815  0.68331  1.0000
  C   C633      1.0  0.30939  0.71839  0.69814  1.0000
  H   H1074     1.0  0.36178  0.66542  0.57185  1.0000
  H   H1075     1.0  0.35043  0.66866  0.51379  1.0000
  H   H1076     1.0  0.40172  0.76653  0.68302  1.0000
  C   C634      1.0  0.31927  0.64894  0.77962  1.0000
  H   H1077     1.0  0.42419  0.79693  0.57172  1.0000
  S   S186      1.0  0.49584  0.67584  0.83006  1.0000
  H   H1078     1.0  0.31793  0.66723  0.76302  1.0000
  H   H1079     1.0  0.25997  0.60106  0.95393  1.0000
  S   S187      1.0  0.42120  0.87328  0.91860  1.0000
  C   C635      1.0  0.33312  0.54782  0.53998  1.0000
  C   C636      1.0  0.32813  0.58003  0.54106  1.0000
  H   H1080     1.0  0.45683  0.61373  0.76349  1.0000
  C   C637      1.0  0.43259  0.77166  0.53463  1.0000
  H   H1081     1.0  0.30718  0.73949  0.70677  1.0000
  C   C638      1.0  0.44999  0.55989  0.74521  1.0000
  N   N44       1.0  0.34938  0.67315  0.81571  1.0000
  C   C639      1.0  0.34904  0.69987  0.79552  1.0000
  C   C640      1.0  0.32459  0.67544  0.83813  1.0000
  C   C641      1.0  0.34629  0.64787  0.79831  1.0000
  C   C642      1.0  0.37764  0.66954  0.83089  1.0000
  C   C643      1.0  0.36926  0.69939  0.76744  1.0000
  C   C644      1.0  0.32686  0.69714  0.86157  1.0000
  C   C645      1.0  0.38219  0.64305  0.85243  1.0000
  H   H1082     1.0  0.32701  0.70595  0.78781  1.0000
  H   H1083     1.0  0.35490  0.71790  0.80783  1.0000
  H   H1084     1.0  0.32069  0.65481  0.85017  1.0000
  H   H1085     1.0  0.30424  0.68123  0.82666  1.0000
  H   H1086     1.0  0.36546  0.64414  0.78333  1.0000
  H   H1087     1.0  0.34555  0.62840  0.81347  1.0000
  H   H1088     1.0  0.39577  0.66827  0.81415  1.0000
  H   H1089     1.0  0.38171  0.68828  0.84294  1.0000
  H   H1090     1.0  0.36257  0.68483  0.75140  1.0000
  H   H1091     1.0  0.36835  0.72063  0.75560  1.0000
  H   H1092     1.0  0.39205  0.69423  0.77261  1.0000
  H   H1093     1.0  0.33011  0.71854  0.85120  1.0000
  H   H1094     1.0  0.30629  0.69876  0.87484  1.0000
  H   H1095     1.0  0.34405  0.69068  0.87738  1.0000
  H   H1096     1.0  0.39196  0.62511  0.84032  1.0000
  H   H1097     1.0  0.39673  0.64758  0.87016  1.0000
  H   H1098     1.0  0.34745  0.58938  0.54864  1.0000
  H   H1099     1.0  0.48818  0.56272  0.69284  1.0000
  C   C646      1.0  0.46242  0.74014  0.88138  1.0000
  H   H1100     1.0  0.44037  0.71997  0.91831  1.0000
  H   H1101     1.0  0.50006  0.59283  0.67132  1.0000
  H   H1102     1.0  0.32010  0.62980  0.76696  1.0000
  H   H1103     1.0  0.26725  0.76988  0.73088  1.0000
  C   C647      1.0  0.34136  0.66281  0.56095  1.0000
  S   S188      1.0  0.49131  0.86282  0.96012  1.0000
  H   H1104     1.0  0.45646  0.69614  0.89293  1.0000
  H   H1105     1.0  0.47602  0.90564  0.51337  1.0000
  H   H1106     1.0  0.41990  0.89097  0.58923  1.0000
  H   H1107     1.0  0.39783  0.66703  0.53551  1.0000
  H   H1108     1.0  0.30136  0.58837  0.92041  1.0000
  H   H1109     1.0  0.27290  0.69154  0.73656  1.0000
  H   H1110     1.0  0.45183  0.80944  0.76714  1.0000
  H   H1111     1.0  0.34037  0.89294  0.49348  1.0000
  S   S189      1.0  0.27143  0.92798  0.49228  1.0000
  H   H1112     1.0  0.40285  0.74138  0.64277  1.0000
  C   C648      1.0  0.35586  0.50634  0.51710  1.0000
  C   C649      1.0  0.26555  0.51350  0.88997  1.0000
  H   H1113     1.0  0.27757  0.90597  0.70237  1.0000
  C   C650      1.0  0.25563  0.68942  0.72099  1.0000
  H   H1114     1.0  0.42271  0.69236  0.52294  1.0000
  H   H1115     1.0  0.30441  0.52525  0.48727  1.0000
  H   H1116     1.0  0.36448  0.73827  0.64181  1.0000
  H   H1117     1.0  0.26721  0.93744  0.68166  1.0000
  H   H1118     1.0  0.28334  0.72936  0.66108  1.0000
  C   C651      1.0  0.26642  0.53790  0.83971  1.0000
  H   H1119     1.0  0.42079  0.78614  0.51935  1.0000
  H   H1120     1.0  0.34829  0.57168  0.48089  1.0000
  N   N45       1.0  0.34840  0.71027  0.53110  1.0000
  C   C652      1.0  0.33248  0.72419  0.55656  1.0000
  C   C653      1.0  0.33868  0.68073  0.53111  1.0000
  C   C654      1.0  0.33942  0.72648  0.50262  1.0000
  C   C655      1.0  0.38038  0.71114  0.53489  1.0000
  C   C656      1.0  0.33739  0.75563  0.55897  1.0000
  C   C657      1.0  0.47892  0.68388  0.94567  1.0000
  C   C658      1.0  0.25614  0.56270  0.85255  1.0000
  H   H1121     1.0  0.30885  0.72233  0.55536  1.0000
  H   H1122     1.0  0.33870  0.71352  0.57837  1.0000
  Fe  Fe95      1.0  0.26694  0.82760  0.58275  1.0000
  H   H1123     1.0  0.34523  0.74864  0.50230  1.0000
  H   H1124     1.0  0.38824  0.73136  0.52477  1.0000
  H   H1125     1.0  0.38555  0.71084  0.55886  1.0000
  H   H1126     1.0  0.36045  0.76000  0.55759  1.0000
  H   H1127     1.0  0.32565  0.76923  0.54191  1.0000
  H   H1128     1.0  0.32844  0.76215  0.58083  1.0000
  C   C659      1.0  0.25499  0.53817  0.90277  1.0000
  H   H1129     1.0  0.39173  0.97545  0.50537  1.0000
  Fe  Fe96      1.0  0.49833  0.81602  0.96701  1.0000
  S   S190      1.0  0.45669  0.77056  0.61881  1.0000
  C   C660      1.0  0.40813  0.53676  0.50143  1.0000
  C   C661      1.0  0.46361  0.73436  0.57392  1.0000
  H   H1130     1.0  0.32236  0.76842  0.63825  1.0000
  N   N46       1.0  0.37364  0.79508  0.65601  1.0000
  C   C662      1.0  0.37874  0.78078  0.62743  1.0000
  C   C663      1.0  0.36820  0.82621  0.64855  1.0000
  C   C664      1.0  0.34786  0.78429  0.67329  1.0000
  C   C665      1.0  0.39960  0.78912  0.67484  1.0000
  C   C666      1.0  0.39322  0.84148  0.63267  1.0000
  C   C667      1.0  0.32029  0.78388  0.65550  1.0000
  C   C668      1.0  0.40020  0.80601  0.70265  1.0000
  H   H1131     1.0  0.36112  0.78673  0.61185  1.0000
  H   H1132     1.0  0.39822  0.78831  0.61549  1.0000
  H   H1133     1.0  0.36204  0.83709  0.66895  1.0000
  H   H1134     1.0  0.34966  0.83061  0.63385  1.0000
  H   H1135     1.0  0.35272  0.76269  0.68357  1.0000
  H   H1136     1.0  0.49702  0.67732  0.96003  1.0000
  H   H1137     1.0  0.26930  0.49436  0.90407  1.0000
  H   H1138     1.0  0.49806  0.71352  0.77675  1.0000
  H   H1139     1.0  0.44124  0.74458  0.87116  1.0000
  H   H1140     1.0  0.47802  0.73547  0.86289  1.0000
  N   N47       1.0  0.48561  0.70894  0.92483  1.0000
  H   H1141     1.0  0.48890  0.63100  0.76384  1.0000
  H   H1142     1.0  0.47566  0.72005  0.58917  1.0000
  H   H1143     1.0  0.46942  0.60746  0.71324  1.0000
  H   H1144     1.0  0.38860  0.54423  0.54458  1.0000
  C   C669      1.0  0.47971  0.61007  0.76891  1.0000
  C   C670      1.0  0.40104  0.95669  0.49443  1.0000
  H   H1145     1.0  0.40171  0.86525  0.97870  1.0000
  H   H1146     1.0  0.43209  0.68623  0.95437  1.0000
  H   H1147     1.0  0.34972  0.49386  0.56503  1.0000
  S   S191      1.0  0.49587  0.69641  0.65207  1.0000
  C   C671      1.0  0.25755  0.74928  0.73499  1.0000
  H   H1148     1.0  0.27384  0.73435  0.74532  1.0000
  C   C672      1.0  0.28858  0.49123  0.60142  1.0000
  S   S192      1.0  0.38065  0.62239  0.47987  1.0000
  N   N48       1.0  0.49480  0.58844  0.74987  1.0000
  C   C673      1.0  0.30722  0.80572  0.48792  1.0000
  H   H1149     1.0  0.30105  0.94526  0.71950  1.0000
  N   N49       1.0  0.25477  0.71215  0.69583  1.0000
  C   C674      1.0  0.26290  0.69506  0.49461  1.0000
  H   H1150     1.0  0.38704  0.49718  0.55300  1.0000
  H   H1151     1.0  0.43836  0.89939  0.97714  1.0000
  H   H1152     1.0  0.41054  0.98073  0.59992  1.0000
  C   C675      1.0  0.26203  0.52022  0.56443  1.0000
  H   H1153     1.0  0.49200  0.89530  0.54785  1.0000
  C   C676      1.0  0.31205  0.54608  0.47967  1.0000
  Fe  Fe97      1.0  0.72811  0.46004  0.45758  1.0000
  H   H1154     1.0  0.62933  0.44660  0.07851  1.0000
  Fe  Fe98      1.0  0.73382  0.45936  0.99992  1.0000
  H   H1155     1.0  0.65182  0.39393  0.98903  1.0000
  H   H1156     1.0  0.53004  0.29739  0.27990  1.0000
  C   C677      1.0  0.53038  0.32316  0.20653  1.0000
  H   H1157     1.0  0.55098  0.27632  0.11923  1.0000
  Fe  Fe99      1.0  0.52620  0.30588  0.41096  1.0000
  S   S193      1.0  0.53244  0.34382  0.43646  1.0000
  C   C678      1.0  0.64950  0.05114  0.98491  1.0000
  Fe  Fe100     1.0  0.56044  0.35851  0.39696  1.0000
  S   S194      1.0  0.60276  0.38078  0.39262  1.0000
  S   S195      1.0  0.55664  0.31915  0.37255  1.0000
  Fe  Fe101     1.0  0.55115  0.37713  0.07515  1.0000
  S   S196      1.0  0.56500  0.33210  0.08803  1.0000
  S   S197      1.0  0.58222  0.41267  0.07227  1.0000
  C   C679      1.0  0.70565  0.35573  0.44738  1.0000
  H   H1158     1.0  0.51987  0.36649  0.19221  1.0000
  Fe  Fe102     1.0  0.52953  0.33330  0.12353  1.0000
  H   H1159     1.0  0.70218  0.36517  0.46913  1.0000
  C   C680      1.0  0.56360  0.19322  0.14439  1.0000
  H   H1160     1.0  0.51806  0.22416  0.10788  1.0000
  C   C681      1.0  0.52195  0.35125  0.21111  1.0000
  Fe  Fe103     1.0  0.51816  0.34177  0.35063  1.0000
  H   H1161     1.0  0.70700  0.08099  0.98858  1.0000
  C   C682      1.0  0.61373  0.23918  0.06775  1.0000
  H   H1162     1.0  0.72571  0.36371  0.40445  1.0000
  H   H1163     1.0  0.71137  0.33287  0.45078  1.0000
  C   C683      1.0  0.52799  0.31256  0.26092  1.0000
  C   C684      1.0  0.54927  0.25314  0.12232  1.0000
  H   H1164     1.0  0.60693  0.38024  0.45797  1.0000
  H   H1165     1.0  0.68454  0.35801  0.43660  1.0000
  H   H1166     1.0  0.64643  0.05456  0.00835  1.0000
  C   C685      1.0  0.51576  0.35968  0.24027  1.0000
  Fe  Fe104     1.0  0.53184  0.32073  0.05641  1.0000
  H   H1167     1.0  0.54503  0.24898  0.14671  1.0000
  C   C686      1.0  0.52226  0.24678  0.10603  1.0000
  C   C687      1.0  0.52546  0.24345  0.46851  1.0000
  H   H1168     1.0  0.59953  0.20449  0.47122  1.0000
  H   H1169     1.0  0.57996  0.27084  0.07626  1.0000
  C   C688      1.0  0.57447  0.20657  0.11408  1.0000
  C   C689      1.0  0.66630  0.42498  0.01647  1.0000
  C   C690      1.0  0.64706  0.40547  0.00864  1.0000
  C   C691      1.0  0.62168  0.40072  0.02590  1.0000
  C   C692      1.0  0.61508  0.41569  0.05111  1.0000
  C   C693      1.0  0.63429  0.43521  0.05893  1.0000
  C   C694      1.0  0.65981  0.43976  0.04187  1.0000
  H   H1170     1.0  0.50859  0.38131  0.24340  1.0000
  H   H1171     1.0  0.60704  0.38581  0.01942  1.0000
  H   H1172     1.0  0.75220  0.05534  0.99095  1.0000
  H   H1173     1.0  0.67452  0.45458  0.04831  1.0000
  C   C695      1.0  0.62595  0.39621  0.41635  1.0000
  C   C696      1.0  0.64810  0.41205  0.40316  1.0000
  C   C697      1.0  0.66799  0.42372  0.42066  1.0000
  C   C698      1.0  0.66628  0.41938  0.45172  1.0000
  H   H1174     1.0  0.58155  0.46334  0.02683  1.0000
  C   C699      1.0  0.62378  0.39243  0.44748  1.0000
  H   H1175     1.0  0.64999  0.41513  0.37912  1.0000
  H   H1176     1.0  0.68499  0.43558  0.41002  1.0000
  C   C700      1.0  0.53591  0.25601  0.00966  1.0000
  H   H1177     1.0  0.59428  0.23864  0.15588  1.0000
  H   H1178     1.0  0.54159  0.20136  0.15068  1.0000
  H   H1179     1.0  0.65249  0.48057  0.40713  1.0000
  H   H1180     1.0  0.62051  0.23160  0.12813  1.0000
  C   C701      1.0  0.53366  0.30399  0.23169  1.0000
  H   H1181     1.0  0.74828  0.40198  0.46594  1.0000
  H   H1182     1.0  0.58151  0.02397  0.99087  1.0000
  S   S198      1.0  0.54776  0.28718  0.02392  1.0000
  N   N50       1.0  0.57686  0.23801  0.11219  1.0000
  S   S199      1.0  0.52393  0.26016  0.43160  1.0000
  S   S200      1.0  0.69261  0.43142  0.47446  1.0000
  H   H1183     1.0  0.72020  0.39389  0.42490  1.0000
  S   S201      1.0  0.51955  0.36630  0.04161  1.0000
  H   H1184     1.0  0.74713  0.08771  0.02993  1.0000
  H   H1185     1.0  0.67735  0.44937  0.15350  1.0000
  C   C702      1.0  0.60724  0.27582  0.13173  1.0000
  H   H1186     1.0  0.64034  0.45736  0.14631  1.0000
  C   C703      1.0  0.64394  0.40385  0.46503  1.0000
  C   C704      1.0  0.55929  0.01920  0.98598  1.0000
  H   H1187     1.0  0.61153  0.18690  0.43890  1.0000
  C   C705      1.0  0.72774  0.37125  0.42695  1.0000
  H   H1188     1.0  0.60689  0.28673  0.10924  1.0000
  H   H1189     1.0  0.62952  0.27714  0.13898  1.0000
  H   H1190     1.0  0.59569  0.19560  0.10913  1.0000
  H   H1191     1.0  0.57529  0.24865  0.98393  1.0000
  H   H1192     1.0  0.54020  0.28222  0.22860  1.0000
  H   H1193     1.0  0.62103  0.14162  0.46873  1.0000
  S   S202      1.0  0.74547  0.46137  0.41061  1.0000
  H   H1194     1.0  0.64225  0.16842  0.47823  1.0000
  C   C706      1.0  0.55442  0.24098  0.99006  1.0000
  H   H1195     1.0  0.56811  0.23915  0.06519  1.0000
  H   H1196     1.0  0.63055  0.24947  0.07890  1.0000
  H   H1197     1.0  0.66714  0.45738  0.11602  1.0000
  C   C707      1.0  0.66239  0.46293  0.13927  1.0000
  S   S203      1.0  0.52345  0.38159  0.37335  1.0000
  H   H1198     1.0  0.54469  0.03637  0.99452  1.0000
  H   H1199     1.0  0.57953  0.17677  0.45855  1.0000
  H   H1200     1.0  0.59222  0.28758  0.14683  1.0000
  C   C708      1.0  0.60137  0.18373  0.46154  1.0000
  C   C709      1.0  0.51503  0.21645  0.47415  1.0000
  C   C710      1.0  0.51856  0.34044  0.26544  1.0000
  H   H1201     1.0  0.52353  0.25455  0.08221  1.0000
  H   H1202     1.0  0.61829  0.21607  0.06923  1.0000
  H   H1203     1.0  0.57829  0.19597  0.16252  1.0000
  C   C711      1.0  0.60025  0.24460  0.13220  1.0000
  H   H1204     1.0  0.61520  0.24651  0.04374  1.0000
  Fe  Fe105     1.0  0.74325  0.99847  0.99335  1.0000
  C   C712      1.0  0.58338  0.24762  0.08011  1.0000
  S   S204      1.0  0.53503  0.31043  0.17006  1.0000
  S   S205      1.0  0.70045  0.02330  0.00119  1.0000
  H   H1205     1.0  0.56027  0.20036  0.09671  1.0000
  H   H1206     1.0  0.71804  0.11403  0.99724  1.0000
  S   S206      1.0  0.50661  0.35164  0.30122  1.0000
  S   S207      1.0  0.51761  0.37895  0.11276  1.0000
  S   S208      1.0  0.69749  0.43071  0.99330  1.0000
  H   H1207     1.0  0.56268  0.17019  0.14273  1.0000
  H   H1208     1.0  0.74602  0.32016  0.40510  1.0000
  H   H1209     1.0  0.50637  0.20630  0.45607  1.0000
  C   C713      1.0  0.51926  0.20595  0.98576  1.0000
  H   H1210     1.0  0.62026  0.46932  0.99702  1.0000
  H   H1211     1.0  0.74941  0.40323  0.37919  1.0000
  H   H1212     1.0  0.55399  0.99919  0.99840  1.0000
  H   H1213     1.0  0.62430  0.48088  0.47066  1.0000
  C   C714      1.0  0.50901  0.24573  0.01731  1.0000
  H   H1214     1.0  0.57837  0.12601  0.47837  1.0000
  H   H1215     1.0  0.62060  0.11182  0.51262  1.0000
  H   H1216     1.0  0.54414  0.13676  0.49317  1.0000
  S   S209      1.0  0.72414  0.04470  0.57963  1.0000
  Fe  Fe106     1.0  0.55694  0.09558  0.58572  1.0000
  S   S210      1.0  0.56528  0.13476  0.60767  1.0000
  S   S211      1.0  0.59002  0.06940  0.55872  1.0000
  Fe  Fe107     1.0  0.52510  0.15349  0.58536  1.0000
  C   C715      1.0  0.56719  0.99637  0.90523  1.0000
  Fe  Fe108     1.0  0.53611  0.11925  0.64593  1.0000
  C   C716      1.0  0.54807  0.20723  0.85357  1.0000
  H   H1217     1.0  0.67455  0.12335  0.97287  1.0000
  S   S212      1.0  0.53067  0.07857  0.62494  1.0000
  Fe  Fe109     1.0  0.56342  0.09530  0.91439  1.0000
  S   S213      1.0  0.55323  0.14116  0.89980  1.0000
  S   S214      1.0  0.60750  0.07233  0.90782  1.0000
  Fe  Fe110     1.0  0.52105  0.14091  0.93870  1.0000
  H   H1218     1.0  0.56069  0.20506  0.96307  1.0000
  Fe  Fe111     1.0  0.51850  0.12526  0.87305  1.0000
  C   C717      1.0  0.61801  0.18187  0.52854  1.0000
  S   S215      1.0  0.53380  0.09597  0.95513  1.0000
  S   S216      1.0  0.53040  0.07978  0.88549  1.0000
  H   H1219     1.0  0.72576  0.08946  0.92111  1.0000
  H   H1220     1.0  0.61669  0.12427  0.54848  1.0000
  H   H1221     1.0  0.51644  0.04034  0.72122  1.0000
  H   H1222     1.0  0.68392  0.10091  0.94382  1.0000
  H   H1223     1.0  0.54584  0.25230  0.53906  1.0000
  H   H1224     1.0  0.57097  0.20427  0.85954  1.0000
  C   C718      1.0  0.56652  0.13036  0.49943  1.0000
  C   C719      1.0  0.62873  0.06245  0.96474  1.0000
  H   H1225     1.0  0.69682  0.01927  0.93673  1.0000
  H   H1226     1.0  0.53287  0.02337  0.94777  1.0000
  H   H1227     1.0  0.56649  0.11043  0.51377  1.0000
  H   H1228     1.0  0.56480  0.09035  0.75353  1.0000
  C   C720      1.0  0.53666  0.25614  0.49220  1.0000
  C   C721      1.0  0.52648  0.21526  0.52672  1.0000
  H   H1229     1.0  0.73025  0.05773  0.94418  1.0000
  C   C722      1.0  0.51536  0.20251  0.50300  1.0000
  C   C723      1.0  0.61990  0.16153  0.48025  1.0000
  C   C724      1.0  0.68697  0.05128  0.57298  1.0000
  C   C725      1.0  0.67396  0.04106  0.54887  1.0000
  C   C726      1.0  0.64424  0.04667  0.54496  1.0000
  C   C727      1.0  0.62722  0.06249  0.56506  1.0000
  C   C728      1.0  0.64025  0.07272  0.58913  1.0000
  C   C729      1.0  0.66992  0.06708  0.59306  1.0000
  H   H1230     1.0  0.68677  0.02890  0.53324  1.0000
  H   H1231     1.0  0.63437  0.03872  0.52622  1.0000
  H   H1232     1.0  0.62748  0.08494  0.60474  1.0000
  H   H1233     1.0  0.67976  0.07506  0.61180  1.0000
  H   H1234     1.0  0.58040  0.01438  0.89758  1.0000
  C   C730      1.0  0.67801  0.03135  0.94466  1.0000
  C   C731      1.0  0.65739  0.04290  0.92446  1.0000
  C   C732      1.0  0.63270  0.05854  0.93435  1.0000
  H   H1235     1.0  0.58941  0.18021  0.56866  1.0000
  H   H1236     1.0  0.56652  0.17414  0.50978  1.0000
  S   S217      1.0  0.52772  0.19878  0.56374  1.0000
  H   H1237     1.0  0.66055  0.03962  0.90099  1.0000
  S   S218      1.0  0.51786  0.11463  0.56176  1.0000
  H   H1238     1.0  0.66545  0.00428  0.64137  1.0000
  C   C733      1.0  0.53766  0.00185  0.89120  1.0000
  C   C734      1.0  0.53694  0.12227  0.73122  1.0000
  H   H1239     1.0  0.61054  0.00494  0.94135  1.0000
  H   H1240     1.0  0.57210  0.14961  0.53990  1.0000
  C   C735      1.0  0.68555  0.99502  0.63102  1.0000
  H   H1241     1.0  0.64666  0.47017  0.94576  1.0000
  C   C736      1.0  0.54851  0.10718  0.75652  1.0000
  S   S219      1.0  0.50629  0.14498  0.82652  1.0000
  H   H1242     1.0  0.50700  0.18191  0.50687  1.0000
  C   C737      1.0  0.51603  0.14412  0.73561  1.0000
  H   H1243     1.0  0.66501  0.14527  0.54183  1.0000
  S   S220      1.0  0.54965  0.11293  0.69496  1.0000
  C   C738      1.0  0.57860  0.15396  0.51606  1.0000
  C   C739      1.0  0.53191  0.22746  0.87467  1.0000
  H   H1244     1.0  0.54771  0.21604  0.83005  1.0000
  H   H1245     1.0  0.50836  0.34559  0.51698  1.0000
  H   H1246     1.0  0.70222  0.01020  0.63308  1.0000
  H   H1247     1.0  0.51997  0.25328  0.92728  1.0000
  H   H1248     1.0  0.60544  0.20120  0.52000  1.0000
  S   S221      1.0  0.50697  0.17533  0.97077  1.0000
  H   H1249     1.0  0.51672  0.02826  0.68459  1.0000
  C   C740      1.0  0.51861  0.13563  0.79013  1.0000
  C   C741      1.0  0.62529  0.12992  0.52555  1.0000
  H   H1250     1.0  0.53927  0.18621  0.85510  1.0000
  C   C742      1.0  0.53708  0.24219  0.52103  1.0000
  H   H1251     1.0  0.60982  0.07440  0.97267  1.0000
  H   H1252     1.0  0.52411  0.01877  0.90131  1.0000
  C   C743      1.0  0.53933  0.11364  0.78571  1.0000
  C   C744      1.0  0.50847  0.04556  0.69847  1.0000
  N   N51       1.0  0.56722  0.99166  0.93875  1.0000
  H   H1253     1.0  0.62413  0.16146  0.57402  1.0000
  H   H1254     1.0  0.66850  0.13352  0.50429  1.0000
  H   H1255     1.0  0.50968  0.31363  0.49915  1.0000
  H   H1256     1.0  0.66664  0.10873  0.53581  1.0000
  H   H1257     1.0  0.56684  0.03684  0.94129  1.0000
  H   H1258     1.0  0.64241  0.40029  0.48903  1.0000
  N   N52       1.0  0.74515  0.09403  0.96345  1.0000
  H   H1259     1.0  0.54854  0.10178  0.80479  1.0000
  C   C745      1.0  0.54621  0.21618  0.97817  1.0000
  H   H1260     1.0  0.62058  0.19895  0.57170  1.0000
  N   N53       1.0  0.61046  0.15676  0.51260  1.0000
  C   C746      1.0  0.61264  0.17999  0.56263  1.0000
  H   H1261     1.0  0.64090  0.18642  0.52405  1.0000
  H   H1262     1.0  0.53975  0.24875  0.86848  1.0000
  C   C747      1.0  0.55590  0.01848  0.95210  1.0000
  H   H1263     1.0  0.50718  0.15623  0.71653  1.0000
  C   C748      1.0  0.65823  0.12982  0.52673  1.0000
  H   H1264     1.0  0.68149  0.99343  0.60713  1.0000
  C   C749      1.0  0.74059  0.07758  0.93685  1.0000
  H   H1265     1.0  0.54091  0.00872  0.86726  1.0000
  H   H1266     1.0  0.53996  0.22131  0.89734  1.0000
  C   C750      1.0  0.67429  0.03564  0.97499  1.0000
  H   H1267     1.0  0.51782  0.06499  0.68879  1.0000
  H   H1268     1.0  0.60009  0.47667  0.96545  1.0000
  H   H1269     1.0  0.74647  0.36776  0.48394  1.0000
  H   H1270     1.0  0.54533  0.27659  0.48822  1.0000
  C   C751      1.0  0.50711  0.15083  0.76483  1.0000
  C   C752      1.0  0.69287  0.11566  0.95848  1.0000
  H   H1271     1.0  0.74937  0.13088  0.93295  1.0000
  H   H1272     1.0  0.73868  0.99212  0.66835  1.0000
  H   H1273     1.0  0.70082  0.13409  0.94497  1.0000
  C   C753      1.0  0.59811  0.98609  0.94740  1.0000
  C   C754      1.0  0.71611  0.10053  0.97838  1.0000
  H   H1274     1.0  0.50365  0.19342  0.90837  1.0000
  H   H1275     1.0  0.75295  0.13703  0.97101  1.0000
  H   H1276     1.0  0.74019  0.98476  0.61191  1.0000
  H   H1277     1.0  0.68015  0.63334  0.43024  1.0000
  N   N54       1.0  0.62935  0.52111  0.44548  1.0000
  Fe  Fe112     1.0  0.54818  0.71486  0.33266  1.0000
  S   S222      1.0  0.56517  0.72465  0.28657  1.0000
  S   S223      1.0  0.57456  0.68128  0.35835  1.0000
  Fe  Fe113     1.0  0.55153  0.76942  0.29547  1.0000
  S   S224      1.0  0.57912  0.80725  0.28574  1.0000
  Fe  Fe114     1.0  0.52022  0.72085  0.27193  1.0000
  H   H1278     1.0  0.52012  0.79041  0.06767  1.0000
  S   S225      1.0  0.53607  0.75937  0.34265  1.0000
  C   C755      1.0  0.52539  0.77515  0.08646  1.0000
  S   S226      1.0  0.50736  0.76666  0.27734  1.0000
  H   H1279     1.0  0.61547  0.85333  0.28091  1.0000
  C   C756      1.0  0.64708  0.65789  0.29818  1.0000
  C   C757      1.0  0.65483  0.55401  0.16182  1.0000
  C   C758      1.0  0.63655  0.49592  0.39660  1.0000
  S   S227      1.0  0.72731  0.89649  0.28617  1.0000
  S   S228      1.0  0.71303  0.81396  0.30476  1.0000
  S   S229      1.0  0.69674  0.64631  0.23640  1.0000
  H   H1280     1.0  0.63363  0.50273  0.02751  1.0000
  Fe  Fe115     1.0  0.68957  0.69209  0.22183  1.0000
  S   S230      1.0  0.64930  0.71792  0.23554  1.0000
  S   S231      1.0  0.72892  0.70301  0.24405  1.0000
  C   C759      1.0  0.50890  0.66882  0.15584  1.0000
  C   C760      1.0  0.66917  0.60802  0.47012  1.0000
  C   C761      1.0  0.68194  0.50892  0.07900  1.0000
  S   S232      1.0  0.54753  0.78290  0.16308  1.0000
  H   H1281     1.0  0.56001  0.82285  0.07264  1.0000
  H   H1282     1.0  0.64709  0.83300  0.36132  1.0000
  H   H1283     1.0  0.62380  0.80630  0.35613  1.0000
  Fe  Fe116     1.0  0.53394  0.65153  0.08291  1.0000
  S   S233      1.0  0.54729  0.61164  0.10943  1.0000
  H   H1284     1.0  0.64088  0.49141  0.08791  1.0000
  Fe  Fe117     1.0  0.52536  0.62117  0.02700  1.0000
  C   C762      1.0  0.59506  0.61608  0.20896  1.0000
  H   H1285     1.0  0.57311  0.82244  0.47820  1.0000
  Fe  Fe118     1.0  0.57274  0.60139  0.06761  1.0000
  S   S234      1.0  0.56233  0.64290  0.04274  1.0000
  S   S235      1.0  0.74058  0.62559  0.41969  1.0000
  H   H1286     1.0  0.67654  0.76797  0.31000  1.0000
  H   H1287     1.0  0.66506  0.67155  0.47363  1.0000
  H   H1288     1.0  0.55980  0.72209  0.05478  1.0000
  S   S236      1.0  0.71120  0.65833  0.11016  1.0000
  S   S237      1.0  0.71157  0.68787  0.17718  1.0000
  H   H1289     1.0  0.66754  0.85703  0.28837  1.0000
  H   H1290     1.0  0.59832  0.81606  0.06605  1.0000
  H   H1291     1.0  0.57432  0.53213  0.13320  1.0000
  H   H1292     1.0  0.57606  0.88214  0.40815  1.0000
  C   C763      1.0  0.64410  0.60661  0.07210  1.0000
  C   C764      1.0  0.63578  0.63031  0.08759  1.0000
  C   C765      1.0  0.65674  0.64669  0.09781  1.0000
  C   C766      1.0  0.68602  0.63942  0.09290  1.0000
  C   C767      1.0  0.69420  0.61700  0.07538  1.0000
  C   C768      1.0  0.67331  0.60028  0.06549  1.0000
  H   H1293     1.0  0.61329  0.63556  0.09244  1.0000
  H   H1294     1.0  0.65040  0.66463  0.11038  1.0000
  H   H1295     1.0  0.71665  0.61215  0.07016  1.0000
  H   H1296     1.0  0.67991  0.58220  0.05317  1.0000
  H   H1297     1.0  0.62676  0.66458  0.30986  1.0000
  H   H1298     1.0  0.65970  0.81099  0.41164  1.0000
  C   C769      1.0  0.71765  0.61036  0.44791  1.0000
  C   C770      1.0  0.58732  0.64939  0.16574  1.0000
  C   C771      1.0  0.68884  0.79154  0.19680  1.0000
  H   H1299     1.0  0.67915  0.77397  0.18652  1.0000
  H   H1300     1.0  0.67204  0.52524  0.42487  1.0000
  N   N55       1.0  0.60375  0.51274  0.99196  1.0000
  C   C772      1.0  0.66720  0.49406  0.14349  1.0000
  C   C773      1.0  0.64854  0.79939  0.39559  1.0000
  C   C774      1.0  0.59547  0.87728  0.42133  1.0000
  H   H1301     1.0  0.73018  0.88844  0.01729  1.0000
  H   H1302     1.0  0.67261  0.54503  0.17589  1.0000
  C   C775      1.0  0.71342  0.57097  0.32641  1.0000
  C   C776      1.0  0.57545  0.76419  0.18326  1.0000
  C   C777      1.0  0.57692  0.76535  0.21401  1.0000
  C   C778      1.0  0.60050  0.75209  0.22904  1.0000
  C   C779      1.0  0.62199  0.73613  0.21409  1.0000
  C   C780      1.0  0.62107  0.73548  0.18310  1.0000
  C   C781      1.0  0.59806  0.74985  0.16774  1.0000
  H   H1303     1.0  0.56047  0.77741  0.22613  1.0000
  H   H1304     1.0  0.60255  0.75492  0.25238  1.0000
  H   H1305     1.0  0.63804  0.72415  0.17101  1.0000
  H   H1306     1.0  0.59752  0.74950  0.14383  1.0000
  C   C782      1.0  0.65122  0.51076  0.09280  1.0000
  H   H1307     1.0  0.58138  0.69541  0.15737  1.0000
  C   C783      1.0  0.70999  0.85107  0.19979  1.0000
  S   S238      1.0  0.50466  0.70739  0.31808  1.0000
  H   H1308     1.0  0.59044  0.48966  0.05147  1.0000
  C   C784      1.0  0.73513  0.58084  0.12461  1.0000
  H   H1309     1.0  0.71658  0.87590  0.40176  1.0000
  H   H1310     1.0  0.73294  0.60268  0.11708  1.0000
  N   N56       1.0  0.60659  0.83694  0.38644  1.0000
  H   H1311     1.0  0.69551  0.49131  0.08942  1.0000
  C   C785      1.0  0.74426  0.70382  0.44487  1.0000
  H   H1312     1.0  0.73805  0.97857  0.39270  1.0000
  H   H1313     1.0  0.66120  0.53244  0.98622  1.0000
  H   H1314     1.0  0.62820  0.87186  0.33767  1.0000
  C   C786      1.0  0.59609  0.53616  0.12362  1.0000
  C   C787      1.0  0.61560  0.50919  0.41979  1.0000
  C   C788      1.0  0.66270  0.82640  0.16242  1.0000
  C   C789      1.0  0.62322  0.52153  0.01520  1.0000
  H   H1315     1.0  0.75181  0.72249  0.45471  1.0000
  S   S239      1.0  0.72097  0.50701  0.45808  1.0000
  H   H1316     1.0  0.65498  0.57729  0.16043  1.0000
  H   H1317     1.0  0.61613  0.65560  0.45411  1.0000
  C   C790      1.0  0.58347  0.68850  0.39415  1.0000
  C   C791      1.0  0.57531  0.71429  0.40596  1.0000
  C   C792      1.0  0.57956  0.71781  0.43611  1.0000
  H   H1318     1.0  0.70017  0.70734  0.46004  1.0000
  C   C793      1.0  0.60391  0.67155  0.44103  1.0000
  C   C794      1.0  0.59846  0.66746  0.41151  1.0000
  C   C795      1.0  0.56418  0.60715  0.21584  1.0000
  H   H1319     1.0  0.69256  0.52896  0.07964  1.0000
  H   H1320     1.0  0.52248  0.73370  0.19937  1.0000
  H   H1321     1.0  0.60510  0.64758  0.40249  1.0000
  C   C796      1.0  0.61626  0.80856  0.29161  1.0000
  C   C797      1.0  0.63363  0.78452  0.29997  1.0000
  C   C798      1.0  0.66316  0.78667  0.30403  1.0000
  C   C799      1.0  0.67567  0.81273  0.29971  1.0000
  C   C800      1.0  0.65826  0.83680  0.29163  1.0000
  C   C801      1.0  0.62876  0.83466  0.28748  1.0000
  H   H1322     1.0  0.62434  0.76428  0.30285  1.0000
  Fe  Fe119     1.0  0.73795  0.65688  0.25447  1.0000
  H   H1323     1.0  0.58697  0.83813  0.34334  1.0000
  H   H1324     1.0  0.60483  0.89777  0.42365  1.0000
  H   H1325     1.0  0.64580  0.81360  0.15436  1.0000
  H   H1326     1.0  0.66128  0.54355  0.02316  1.0000
  C   C802      1.0  0.61592  0.83315  0.20860  1.0000
  C   C803      1.0  0.67996  0.84168  0.20986  1.0000
  C   C804      1.0  0.51089  0.83971  0.32023  1.0000
  H   H1327     1.0  0.64875  0.63460  0.29790  1.0000
  H   H1328     1.0  0.58665  0.79162  0.01965  1.0000
  C   C805      1.0  0.74635  0.53180  0.11445  1.0000
  H   H1329     1.0  0.65377  0.84865  0.16005  1.0000
  H   H1330     1.0  0.63834  0.56239  0.99722  1.0000
  H   H1331     1.0  0.53386  0.84150  0.31939  1.0000
  H   H1332     1.0  0.51243  0.75657  0.08550  1.0000
  H   H1333     1.0  0.60104  0.49250  0.42806  1.0000
  S   S240      1.0  0.53050  0.69339  0.10265  1.0000
  H   H1334     1.0  0.66395  0.54717  0.45386  1.0000
  H   H1335     1.0  0.69224  0.92784  0.46910  1.0000
  C   C806      1.0  0.73832  0.87470  0.03643  1.0000
  H   H1336     1.0  0.57157  0.75514  0.99429  1.0000
  H   H1337     1.0  0.69091  0.88306  0.44915  1.0000
  N   N57       1.0  0.67134  0.67970  0.34094  1.0000
  C   C807      1.0  0.65291  0.70686  0.33837  1.0000
  C   C808      1.0  0.70071  0.68416  0.35180  1.0000
  C   C809      1.0  0.65717  0.65924  0.36300  1.0000
  C   C810      1.0  0.67461  0.66841  0.31053  1.0000
  C   C811      1.0  0.65004  0.72359  0.36650  1.0000
  C   C812      1.0  0.71749  0.70686  0.33384  1.0000
  C   C813      1.0  0.67094  0.62894  0.36518  1.0000
  H   H1338     1.0  0.72032  0.91088  0.41136  1.0000
  H   H1339     1.0  0.66070  0.72109  0.31950  1.0000
  H   H1340     1.0  0.63064  0.70305  0.33261  1.0000
  H   H1341     1.0  0.71478  0.66442  0.35145  1.0000
  H   H1342     1.0  0.69953  0.68925  0.37558  1.0000
  H   H1343     1.0  0.65712  0.66659  0.38588  1.0000
  H   H1344     1.0  0.63421  0.65789  0.35818  1.0000
  H   H1345     1.0  0.69129  0.65074  0.31055  1.0000
  H   H1346     1.0  0.64018  0.71138  0.38569  1.0000
  H   H1347     1.0  0.67085  0.73087  0.37276  1.0000
  H   H1348     1.0  0.63551  0.74265  0.36183  1.0000
  H   H1349     1.0  0.50586  0.65042  0.14399  1.0000
  H   H1350     1.0  0.75020  0.80375  0.98976  1.0000
  H   H1351     1.0  0.73759  0.71074  0.42196  1.0000
  H   H1352     1.0  0.65864  0.61645  0.38236  1.0000
  H   H1353     1.0  0.51022  0.75011  0.42271  1.0000
  H   H1354     1.0  0.68120  0.83378  0.11761  1.0000
  H   H1355     1.0  0.59134  0.77872  0.38259  1.0000
  N   N58       1.0  0.59758  0.64628  0.19724  1.0000
  C   C814      1.0  0.62833  0.65347  0.19844  1.0000
  C   C815      1.0  0.57944  0.66621  0.21561  1.0000
  C   C816      1.0  0.59333  0.67722  0.14776  1.0000
  C   C817      1.0  0.64981  0.63538  0.18004  1.0000
  C   C818      1.0  0.58593  0.66520  0.24905  1.0000
  H   H1356     1.0  0.60751  0.61095  0.22940  1.0000
  H   H1357     1.0  0.63092  0.67600  0.19163  1.0000
  H   H1358     1.0  0.63559  0.65111  0.22175  1.0000
  H   H1359     1.0  0.58150  0.68843  0.20679  1.0000
  H   H1360     1.0  0.55638  0.66305  0.21373  1.0000
  H   H1361     1.0  0.61644  0.68100  0.14548  1.0000
  H   H1362     1.0  0.58590  0.67619  0.12481  1.0000
  H   H1363     1.0  0.67047  0.64553  0.17737  1.0000
  H   H1364     1.0  0.64299  0.63282  0.15728  1.0000
  H   H1365     1.0  0.65397  0.61441  0.19186  1.0000
  H   H1366     1.0  0.59960  0.68255  0.25324  1.0000
  H   H1367     1.0  0.59667  0.64521  0.25786  1.0000
  H   H1368     1.0  0.56548  0.66775  0.26235  1.0000
  H   H1369     1.0  0.60133  0.52535  0.40766  1.0000
  N   N59       1.0  0.57345  0.76431  0.05770  1.0000
  C   C819      1.0  0.60473  0.75649  0.06320  1.0000
  C   C820      1.0  0.61189  0.72633  0.07694  1.0000
  C   C821      1.0  0.57717  0.81820  0.05557  1.0000
  H   H1370     1.0  0.61815  0.75924  0.04231  1.0000
  H   H1371     1.0  0.61319  0.77096  0.07855  1.0000
  S   S241      1.0  0.53724  0.57895  0.04922  1.0000
  H   H1372     1.0  0.55908  0.74573  0.10054  1.0000
  H   H1373     1.0  0.56807  0.78040  0.10185  1.0000
  H   H1374     1.0  0.60058  0.72215  0.09873  1.0000
  H   H1375     1.0  0.60725  0.71000  0.06183  1.0000
  H   H1376     1.0  0.63525  0.72367  0.08103  1.0000
  H   H1377     1.0  0.72119  0.87503  0.05427  1.0000
  S   S242      1.0  0.51388  0.84321  0.38059  1.0000
  H   H1378     1.0  0.57726  0.83679  0.03920  1.0000
  H   H1379     1.0  0.69036  0.49727  0.13871  1.0000
  C   C822      1.0  0.68795  0.82357  0.13940  1.0000
  H   H1380     1.0  0.57128  0.73687  0.44589  1.0000
  C   C823      1.0  0.57467  0.73665  0.01055  1.0000
  C   C824      1.0  0.61810  0.85693  0.40672  1.0000
  C   C825      1.0  0.52318  0.71638  0.15630  1.0000
  H   H1381     1.0  0.72227  0.70125  0.31065  1.0000
  H   H1382     1.0  0.67956  0.83743  0.23446  1.0000
  C   C826      1.0  0.64057  0.49683  0.46608  1.0000
  H   H1383     1.0  0.59597  0.80923  0.42527  1.0000
  H   H1384     1.0  0.60566  0.89555  0.35960  1.0000
  S   S243      1.0  0.51461  0.58597  0.47656  1.0000
  H   H1385     1.0  0.61054  0.53325  0.03235  1.0000
  C   C827      1.0  0.60736  0.53986  0.46120  1.0000
  S   S244      1.0  0.71716  0.52960  0.37184  1.0000
  H   H1386     1.0  0.60997  0.83965  0.18542  1.0000
  H   H1387     1.0  0.54989  0.79594  0.02921  1.0000
  C   C828      1.0  0.68823  0.61852  0.44768  1.0000
  H   H1388     1.0  0.59655  0.82436  0.22000  1.0000
  H   H1389     1.0  0.69344  0.62782  0.37237  1.0000
  H   H1390     1.0  0.64041  0.58282  0.42459  1.0000
  H   H1391     1.0  0.53095  0.73484  0.14441  1.0000
  H   H1392     1.0  0.68086  0.50471  0.05523  1.0000
  C   C829      1.0  0.64080  0.81019  0.21015  1.0000
  H   H1393     1.0  0.66387  0.49694  0.16774  1.0000
  H   H1394     1.0  0.68261  0.68469  0.29380  1.0000
  Fe  Fe120     1.0  0.72190  0.64178  0.19277  1.0000
  H   H1395     1.0  0.71917  0.86127  0.21833  1.0000
  S   S245      1.0  0.71352  0.59730  0.17994  1.0000
  H   H1396     1.0  0.62910  0.84507  0.42565  1.0000
  C   C830      1.0  0.72953  0.57329  0.15482  1.0000
  H   H1397     1.0  0.64671  0.61463  0.46960  1.0000
  H   H1398     1.0  0.71019  0.60315  0.29015  1.0000
  N   N60       1.0  0.66882  0.81771  0.19464  1.0000
  C   C831      1.0  0.55772  0.76633  0.08742  1.0000
  S   S246      1.0  0.61840  0.58382  0.06237  1.0000
  H   H1399     1.0  0.63284  0.79151  0.20061  1.0000
  C   C832      1.0  0.69727  0.78057  0.22850  1.0000
  H   H1400     1.0  0.72503  0.83570  0.02130  1.0000
  C   C833      1.0  0.57442  0.79506  0.38814  1.0000
  H   H1401     1.0  0.62988  0.56018  0.39729  1.0000
  C   C834      1.0  0.74206  0.61187  0.32085  1.0000
  H   H1402     1.0  0.70880  0.86669  0.18025  1.0000
  C   C835      1.0  0.57130  0.79201  0.03922  1.0000
  H   H1403     1.0  0.71246  0.67322  0.45058  1.0000
  H   H1404     1.0  0.51988  0.70964  0.39332  1.0000
  H   H1405     1.0  0.59645  0.63197  0.15244  1.0000
  H   H1406     1.0  0.56376  0.64758  0.16563  1.0000
  H   H1407     1.0  0.60504  0.60150  0.19271  1.0000
  H   H1408     1.0  0.56483  0.58414  0.22187  1.0000
  H   H1409     1.0  0.55407  0.61768  0.23517  1.0000
  H   H1410     1.0  0.66632  0.56780  0.39815  1.0000
  H   H1411     1.0  0.56705  0.83184  0.41248  1.0000
  H   H1412     1.0  0.70935  0.79440  0.18403  1.0000
  H   H1413     1.0  0.55039  0.61141  0.19635  1.0000
  H   H1414     1.0  0.73848  0.70803  0.34426  1.0000
  H   H1415     1.0  0.57167  0.60886  0.98670  1.0000
  C   C836      1.0  0.57510  0.50686  0.00717  1.0000
  H   H1416     1.0  0.59474  0.53640  0.09909  1.0000
  H   H1417     1.0  0.56429  0.52661  0.01514  1.0000
  C   C837      1.0  0.73289  0.54482  0.16477  1.0000
  H   H1418     1.0  0.56451  0.73093  0.39236  1.0000
  C   C838      1.0  0.51812  0.71577  0.18730  1.0000
  H   H1419     1.0  0.72566  0.83349  0.19501  1.0000
  C   C839      1.0  0.72629  0.88852  0.41804  1.0000
  C   C840      1.0  0.71845  0.69143  0.46262  1.0000
  C   C841      1.0  0.56023  0.74242  0.04112  1.0000
  H   H1420     1.0  0.70636  0.72805  0.33379  1.0000
  C   C842      1.0  0.72730  0.56128  0.35267  1.0000
  H   H1421     1.0  0.56805  0.51733  0.45751  1.0000
  H   H1422     1.0  0.53724  0.74860  0.03702  1.0000
  Fe  Fe121     1.0  0.74144  0.85084  0.29360  1.0000
  C   C843      1.0  0.64695  0.56378  0.41261  1.0000
  S   S247      1.0  0.72471  0.50523  0.00690  1.0000
  H   H1423     1.0  0.64519  0.66609  0.27462  1.0000
  C   C844      1.0  0.63133  0.81938  0.37337  1.0000
  H   H1424     1.0  0.56364  0.80344  0.36759  1.0000
  H   H1425     1.0  0.74984  0.88446  0.41540  1.0000
  C   C845      1.0  0.74521  0.84409  0.02829  1.0000
  H   H1426     1.0  0.63507  0.78372  0.40773  1.0000
  H   H1427     1.0  0.71876  0.85641  0.45322  1.0000
  C   C846      1.0  0.65410  0.53836  0.43482  1.0000
  C   C847      1.0  0.71466  0.87965  0.44971  1.0000
  H   H1428     1.0  0.67889  0.77216  0.24189  1.0000
  Fe  Fe122     1.0  0.51018  0.59430  0.08781  1.0000
  H   H1429     1.0  0.55795  0.78459  0.40276  1.0000
  H   H1430     1.0  0.62430  0.48448  0.38121  1.0000
  H   H1431     1.0  0.58842  0.86842  0.44376  1.0000
  Fe  Fe123     1.0  0.74055  0.50837  0.41160  1.0000
  H   H1432     1.0  0.69380  0.80110  0.13579  1.0000
  H   H1433     1.0  0.52579  0.69252  0.44810  1.0000
  H   H1434     1.0  0.56443  0.71888  0.00154  1.0000
  H   H1435     1.0  0.51860  0.78622  0.10665  1.0000
  C   C848      1.0  0.58611  0.81882  0.40454  1.0000
  C   C849      1.0  0.59088  0.85254  0.36093  1.0000
  H   H1436     1.0  0.59388  0.88526  0.32502  1.0000
  H   H1437     1.0  0.64824  0.56073  0.11440  1.0000
  C   C850      1.0  0.59271  0.69576  0.45391  1.0000
  H   H1438     1.0  0.64806  0.51218  0.38282  1.0000
  H   H1439     1.0  0.63528  0.86929  0.39531  1.0000
  C   C851      1.0  0.72083  0.59608  0.31047  1.0000
  H   H1440     1.0  0.66992  0.61849  0.34414  1.0000
  C   C852      1.0  0.60588  0.87767  0.34517  1.0000
  H   H1441     1.0  0.56902  0.86053  0.36806  1.0000
  C   C853      1.0  0.65838  0.54423  0.12994  1.0000
  H   H1442     1.0  0.64359  0.80419  0.23421  1.0000
  H   H1443     1.0  0.66548  0.78739  0.38285  1.0000
  H   H1444     1.0  0.60108  0.55728  0.12994  1.0000
  S   S248      1.0  0.51389  0.80608  0.45834  1.0000
  H   H1445     1.0  0.70717  0.83382  0.14554  1.0000
  H   H1446     1.0  0.62051  0.85172  0.22058  1.0000
  H   H1447     1.0  0.63943  0.52809  0.07970  1.0000
  C   C854      1.0  0.72780  0.59139  0.47085  1.0000
  H   H1448     1.0  0.59784  0.73038  0.01206  1.0000
  H   H1449     1.0  0.73582  0.60628  0.99006  1.0000
  H   H1450     1.0  0.70716  0.79670  0.24050  1.0000
  C   C855      1.0  0.51958  0.69276  0.14066  1.0000
  H   H1451     1.0  0.71357  0.76275  0.22672  1.0000
  H   H1452     1.0  0.69689  0.55893  0.31834  1.0000
  H   H1453     1.0  0.68162  0.54531  0.12388  1.0000
  H   H1454     1.0  0.61524  0.51102  0.16049  1.0000
  H   H1455     1.0  0.74757  0.56639  0.08103  1.0000
  H   H1456     1.0  0.66533  0.86090  0.20664  1.0000
  H   H1457     1.0  0.59890  0.55735  0.44560  1.0000
  S   S249      1.0  0.50496  0.68865  0.24192  1.0000
  H   H1458     1.0  0.75042  0.58489  0.47129  1.0000
  H   H1459     1.0  0.52095  0.66112  0.41146  1.0000
  H   H1460     1.0  0.63410  0.54915  0.17305  1.0000
  N   N61       1.0  0.72603  0.89443  0.47486  1.0000
  H   H1461     1.0  0.72470  0.93519  0.45042  1.0000
  C   C856      1.0  0.74342  0.56024  0.10432  1.0000
  C   C857      1.0  0.50809  0.69175  0.20267  1.0000
  H   H1462     1.0  0.55399  0.48409  0.04470  1.0000
  N   N62       1.0  0.64859  0.51542  0.12554  1.0000
  C   C858      1.0  0.74156  0.52435  0.14487  1.0000
  H   H1463     1.0  0.73921  0.56387  0.25068  1.0000
  S   S250      1.0  0.74796  0.95142  0.00052  1.0000
  H   H1464     1.0  0.75040  0.83162  0.04948  1.0000
  H   H1465     1.0  0.60983  0.49259  0.12898  1.0000
  C   C859      1.0  0.74869  0.57691  0.36287  1.0000
  H   H1466     1.0  0.72826  0.53851  0.18794  1.0000
  C   C860      1.0  0.75122  0.60455  0.00833  1.0000
  C   C861      1.0  0.64731  0.54092  0.00434  1.0000
  H   H1467     1.0  0.74393  0.50246  0.15302  1.0000
  C   C862      1.0  0.61767  0.51264  0.13575  1.0000
  C   C863      1.0  0.58093  0.52527  0.47490  1.0000
  H   H1468     1.0  0.74301  0.59989  0.24040  1.0000
  H   H1469     1.0  0.62489  0.80649  0.47644  1.0000
  C   C864      1.0  0.71589  0.92509  0.47158  1.0000
  H   H1470     1.0  0.50824  0.83984  0.27235  1.0000
  H   H1471     1.0  0.74142  0.59147  0.02699  1.0000
  S   S251      1.0  0.75071  0.93630  0.35117  1.0000
  S   S252      1.0  0.75296  0.64293  0.30085  1.0000
  C   C865      1.0  0.57584  0.48477  0.03403  1.0000
  Fe  Fe124     1.0  0.75189  0.69705  0.20020  1.0000
  H   H1472     1.0  0.61726  0.55053  0.47903  1.0000
  H   H1473     1.0  0.65916  0.48524  0.45531  1.0000
  H   H1474     1.0  0.56029  0.49901  0.99139  1.0000
  S   S253      1.0  0.51083  0.62359  0.98026  1.0000
  S   S254      1.0  0.75340  0.92629  0.20578  1.0000
  H   H1475     1.0  0.74759  0.64563  0.47951  1.0000
  Fe  Fe125     1.0  0.53815  0.70851  0.66955  1.0000
  C   C866      1.0  0.71514  0.88037  0.50386  1.0000
  S   S255      1.0  0.58413  0.70079  0.64981  1.0000
  H   H1476     1.0  0.62543  0.68942  0.96936  1.0000
  S   S256      1.0  0.52525  0.75465  0.66403  1.0000
  C   C867      1.0  0.73090  0.91803  0.58995  1.0000
  H   H1477     1.0  0.70891  0.95886  0.58732  1.0000
  N   N63       1.0  0.66636  0.68275  0.91932  1.0000
  H   H1478     1.0  0.64685  0.69082  0.85301  1.0000
  S   S257      1.0  0.68839  0.63282  0.71655  1.0000
  S   S258      1.0  0.69836  0.82622  0.66292  1.0000
  C   C868      1.0  0.73420  0.85549  0.96286  1.0000
  H   H1479     1.0  0.71189  0.89966  0.82648  1.0000
  H   H1480     1.0  0.62597  0.89269  0.90432  1.0000
  H   H1481     1.0  0.55958  0.95584  0.97025  1.0000
  C   C869      1.0  0.65065  0.50439  0.49658  1.0000
  S   S259      1.0  0.56989  0.57704  0.54513  1.0000
  Fe  Fe126     1.0  0.52979  0.85998  0.92864  1.0000
  S   S260      1.0  0.56693  0.88826  0.92526  1.0000
  S   S261      1.0  0.53888  0.81372  0.93920  1.0000
  H   H1482     1.0  0.67165  0.74251  0.92355  1.0000
  S   S262      1.0  0.53825  0.85245  0.52246  1.0000
  C   C870      1.0  0.54045  0.69659  0.92044  1.0000
  Fe  Fe127     1.0  0.56401  0.61721  0.56867  1.0000
  S   S263      1.0  0.54318  0.62108  0.61470  1.0000
  Fe  Fe128     1.0  0.61017  0.59570  0.52489  1.0000
  Fe  Fe129     1.0  0.54637  0.60174  0.50777  1.0000
  S   S264      1.0  0.60585  0.63389  0.55135  1.0000
  H   H1483     1.0  0.62592  0.65378  0.95826  1.0000
  Fe  Fe130     1.0  0.54328  0.67001  0.81466  1.0000
  Fe  Fe131     1.0  0.60450  0.69044  0.80073  1.0000
  S   S265      1.0  0.62470  0.64687  0.80259  1.0000
  S   S266      1.0  0.63247  0.72799  0.79724  1.0000
  Fe  Fe132     1.0  0.58736  0.63619  0.77644  1.0000
  S   S267      1.0  0.59618  0.60288  0.74301  1.0000
  Fe  Fe133     1.0  0.59607  0.63908  0.84277  1.0000
  S   S268      1.0  0.61310  0.61703  0.88486  1.0000
  S   S269      1.0  0.56831  0.68089  0.77173  1.0000
  S   S270      1.0  0.57786  0.68347  0.84309  1.0000
  Fe  Fe134     1.0  0.70174  0.81206  0.55332  1.0000
  S   S271      1.0  0.70711  0.77887  0.59096  1.0000
  S   S272      1.0  0.67041  0.81088  0.51616  1.0000
  S   S273      1.0  0.71176  0.84690  0.58121  1.0000
  Fe  Fe135     1.0  0.71079  0.80218  0.91201  1.0000
  S   S274      1.0  0.67689  0.80717  0.94881  1.0000
  S   S275      1.0  0.70604  0.77198  0.87714  1.0000
  C   C871      1.0  0.72285  0.80482  0.71715  1.0000
  C   C872      1.0  0.72407  0.80334  0.74867  1.0000
  S   S276      1.0  0.75126  0.78043  0.92781  1.0000
  C   C873      1.0  0.55054  0.96652  0.94953  1.0000
  C   C874      1.0  0.70233  0.56023  0.63457  1.0000
  C   C875      1.0  0.57829  0.53093  0.94355  1.0000
  C   C876      1.0  0.58479  0.61695  0.91160  1.0000
  C   C877      1.0  0.59014  0.61097  0.94186  1.0000
  C   C878      1.0  0.56746  0.61277  0.96326  1.0000
  C   C879      1.0  0.53938  0.61963  0.95421  1.0000
  C   C880      1.0  0.53401  0.62448  0.92392  1.0000
  C   C881      1.0  0.55671  0.62370  0.90273  1.0000
  H   H1484     1.0  0.61182  0.60556  0.94879  1.0000
  C   C882      1.0  0.67635  0.69483  0.88908  1.0000
  C   C883      1.0  0.56021  0.61676  0.64925  1.0000
  C   C884      1.0  0.58131  0.59518  0.65558  1.0000
  C   C885      1.0  0.59249  0.59121  0.68434  1.0000
  C   C886      1.0  0.58279  0.60888  0.70678  1.0000
  C   C887      1.0  0.56123  0.62987  0.70060  1.0000
  C   C888      1.0  0.55000  0.63366  0.67205  1.0000
  H   H1485     1.0  0.58848  0.58123  0.63854  1.0000
  H   H1486     1.0  0.60853  0.57435  0.68933  1.0000
  H   H1487     1.0  0.55303  0.64314  0.71786  1.0000
  C   C889      1.0  0.73520  0.72902  0.64847  1.0000
  H   H1488     1.0  0.55555  0.75081  0.49768  1.0000
  H   H1489     1.0  0.71765  0.63379  0.78701  1.0000
  C   C890      1.0  0.63348  0.55616  0.79394  1.0000
  H   H1490     1.0  0.67723  0.59157  0.88306  1.0000
  C   C891      1.0  0.57502  0.84114  0.52005  1.0000
  C   C892      1.0  0.58670  0.82673  0.49598  1.0000
  C   C893      1.0  0.61602  0.81773  0.49505  1.0000
  C   C894      1.0  0.63379  0.82274  0.51831  1.0000
  C   C895      1.0  0.62211  0.83705  0.54242  1.0000
  C   C896      1.0  0.59289  0.84642  0.54311  1.0000
  S   S277      1.0  0.58735  0.61569  0.48542  1.0000
  H   H1491     1.0  0.53521  0.74094  0.77334  1.0000
  H   H1492     1.0  0.63559  0.84103  0.56043  1.0000
  H   H1493     1.0  0.67955  0.73923  0.96188  1.0000
  C   C897      1.0  0.59887  0.86875  0.93512  1.0000
  C   C898      1.0  0.59797  0.84589  0.95629  1.0000
  S   S278      1.0  0.74725  0.80623  0.53619  1.0000
  C   C899      1.0  0.64800  0.83244  0.94465  1.0000
  C   C900      1.0  0.64957  0.85635  0.92485  1.0000
  C   C901      1.0  0.62500  0.87464  0.92024  1.0000
  H   H1494     1.0  0.65063  0.59582  0.78179  1.0000
  Fe  Fe136     1.0  0.73414  0.61416  0.71004  1.0000
  H   H1495     1.0  0.66958  0.86052  0.91290  1.0000
  C   C902      1.0  0.73117  0.73154  0.79069  1.0000
  C   C903      1.0  0.71352  0.75275  0.80261  1.0000
  C   C904      1.0  0.68356  0.75110  0.80466  1.0000
  C   C905      1.0  0.67067  0.72749  0.79584  1.0000
  C   C906      1.0  0.68838  0.70524  0.78518  1.0000
  C   C907      1.0  0.71855  0.70723  0.78280  1.0000
  H   H1496     1.0  0.72335  0.77042  0.81033  1.0000
  H   H1497     1.0  0.67038  0.76829  0.81320  1.0000
  H   H1498     1.0  0.67886  0.68688  0.77808  1.0000
  H   H1499     1.0  0.73209  0.69012  0.77444  1.0000
  H   H1500     1.0  0.57803  0.54917  0.92668  1.0000
  Fe  Fe137     1.0  0.73146  0.80200  0.84656  1.0000
  C   C908      1.0  0.66770  0.72973  0.94461  1.0000
  H   H1501     1.0  0.67325  0.64472  0.94833  1.0000
  Fe  Fe138     1.0  0.50647  0.84069  0.48931  1.0000
  H   H1502     1.0  0.74674  0.91300  0.64725  1.0000
  H   H1503     1.0  0.65068  0.66719  0.51074  1.0000
  H   H1504     1.0  0.65706  0.60295  0.83426  1.0000
  H   H1505     1.0  0.52041  0.71092  0.97337  1.0000
  H   H1506     1.0  0.68857  0.93228  0.60546  1.0000
  H   H1507     1.0  0.57717  0.97778  0.89440  1.0000
  H   H1508     1.0  0.63861  0.53681  0.80823  1.0000
  C   C909      1.0  0.68537  0.84181  0.71946  1.0000
  H   H1509     1.0  0.60260  0.94140  0.93629  1.0000
  H   H1510     1.0  0.69717  0.96974  0.67094  1.0000
  H   H1511     1.0  0.65188  0.56787  0.84667  1.0000
  H   H1512     1.0  0.66878  0.56884  0.76374  1.0000
  H   H1513     1.0  0.70012  0.69613  0.88744  1.0000
  H   H1514     1.0  0.68729  0.51669  0.60218  1.0000
  C   C910      1.0  0.72647  0.92434  0.65488  1.0000
  C   C911      1.0  0.61393  0.68346  0.66869  1.0000
  C   C912      1.0  0.64090  0.68002  0.65367  1.0000
  C   C913      1.0  0.66439  0.66505  0.66785  1.0000
  C   C914      1.0  0.66112  0.65385  0.69739  1.0000
  C   C915      1.0  0.63478  0.65888  0.71267  1.0000
  C   C916      1.0  0.61136  0.67324  0.69842  1.0000
  H   H1515     1.0  0.64331  0.68810  0.63070  1.0000
  H   H1516     1.0  0.68463  0.66167  0.65580  1.0000
  H   H1517     1.0  0.63209  0.65071  0.73556  1.0000
  H   H1518     1.0  0.59100  0.67557  0.71032  1.0000
  S   S279      1.0  0.73471  0.83275  0.88225  1.0000
  S   S280      1.0  0.56042  0.62466  0.81729  1.0000
  S   S281      1.0  0.71071  0.82561  0.80479  1.0000
  C   C917      1.0  0.70319  0.82392  0.70230  1.0000
  Fe  Fe139     1.0  0.58147  0.65325  0.51259  1.0000
  N   N64       1.0  0.61320  0.81271  0.84990  1.0000
  C   C918      1.0  0.62751  0.79723  0.87631  1.0000
  C   C919      1.0  0.63606  0.82803  0.83191  1.0000
  C   C920      1.0  0.60172  0.79086  0.83180  1.0000
  C   C921      1.0  0.58918  0.83215  0.86150  1.0000
  C   C922      1.0  0.60852  0.77791  0.89653  1.0000
  C   C923      1.0  0.65029  0.85068  0.84781  1.0000
  C   C924      1.0  0.59539  0.79956  0.79903  1.0000
  C   C925      1.0  0.57550  0.85485  0.83935  1.0000
  H   H1519     1.0  0.64644  0.78386  0.86875  1.0000
  H   H1520     1.0  0.63591  0.81215  0.89105  1.0000
  H   H1521     1.0  0.62802  0.83842  0.81082  1.0000
  H   H1522     1.0  0.65346  0.81275  0.82461  1.0000
  H   H1523     1.0  0.61714  0.77216  0.83125  1.0000
  H   H1524     1.0  0.58179  0.78277  0.84242  1.0000
  H   H1525     1.0  0.57110  0.81986  0.87098  1.0000
  H   H1526     1.0  0.59585  0.84292  0.88093  1.0000
  H   H1527     1.0  0.62130  0.76867  0.91547  1.0000
  H   H1528     1.0  0.58972  0.78972  0.90632  1.0000
  H   H1529     1.0  0.60133  0.76019  0.88467  1.0000
  H   H1530     1.0  0.63432  0.86568  0.85789  1.0000
  H   H1531     1.0  0.66513  0.84095  0.86479  1.0000
  H   H1532     1.0  0.66364  0.86301  0.83131  1.0000
  H   H1533     1.0  0.58069  0.81855  0.79634  1.0000
  H   H1534     1.0  0.58491  0.78209  0.78969  1.0000
  H   H1535     1.0  0.61553  0.80242  0.78556  1.0000
  H   H1536     1.0  0.55693  0.84692  0.82874  1.0000
  H   H1537     1.0  0.59044  0.86344  0.82194  1.0000
  H   H1538     1.0  0.56760  0.87328  0.85179  1.0000
  N   N65       1.0  0.67948  0.57620  0.61642  1.0000
  C   C926      1.0  0.66014  0.55649  0.60342  1.0000
  C   C927      1.0  0.66140  0.59490  0.63641  1.0000
  H   H1539     1.0  0.58578  0.51204  0.93180  1.0000
  C   C928      1.0  0.69393  0.59303  0.59110  1.0000
  H   H1540     1.0  0.72279  0.65704  0.92766  1.0000
  C   C929      1.0  0.64101  0.61714  0.62039  1.0000
  C   C930      1.0  0.71359  0.61563  0.60007  1.0000
  H   H1541     1.0  0.64545  0.54697  0.62087  1.0000
  H   H1542     1.0  0.64565  0.56825  0.58717  1.0000
  H   H1543     1.0  0.67472  0.60580  0.65133  1.0000
  H   H1544     1.0  0.64765  0.58211  0.65212  1.0000
  H   H1545     1.0  0.63387  0.76431  0.55320  1.0000
  H   H1546     1.0  0.67277  0.93783  0.78592  1.0000
  H   H1547     1.0  0.70782  0.57894  0.57715  1.0000
  H   H1548     1.0  0.67807  0.60304  0.57510  1.0000
  C   C931      1.0  0.70358  0.52664  0.78716  1.0000
  H   H1549     1.0  0.73245  0.87060  0.94295  1.0000
  C   C932      1.0  0.69357  0.96613  0.64728  1.0000
  H   H1550     1.0  0.62615  0.60737  0.60633  1.0000
  H   H1551     1.0  0.62745  0.62814  0.63730  1.0000
  H   H1552     1.0  0.65281  0.63338  0.60700  1.0000
  H   H1553     1.0  0.73285  0.66852  0.68712  1.0000
  H   H1554     1.0  0.70817  0.62332  0.62228  1.0000
  H   H1555     1.0  0.71159  0.63436  0.58399  1.0000
  N   N66       1.0  0.61678  0.78129  0.70245  1.0000
  C   C933      1.0  0.59403  0.80204  0.71412  1.0000
  C   C934      1.0  0.60256  0.75525  0.69564  1.0000
  C   C935      1.0  0.63142  0.79343  0.67444  1.0000
  C   C936      1.0  0.63898  0.77449  0.72575  1.0000
  C   C937      1.0  0.60372  0.83173  0.71827  1.0000
  C   C938      1.0  0.58904  0.73876  0.72270  1.0000
  C   C939      1.0  0.61177  0.80238  0.64824  1.0000
  C   C940      1.0  0.66072  0.74933  0.72014  1.0000
  H   H1556     1.0  0.57508  0.80434  0.69969  1.0000
  H   H1557     1.0  0.58523  0.79421  0.73624  1.0000
  H   H1558     1.0  0.61775  0.74048  0.68393  1.0000
  H   H1559     1.0  0.58489  0.76058  0.68003  1.0000
  H   H1560     1.0  0.64322  0.81192  0.67918  1.0000
  H   H1561     1.0  0.64815  0.77827  0.66572  1.0000
  H   H1562     1.0  0.65168  0.79299  0.72840  1.0000
  H   H1563     1.0  0.62821  0.76965  0.74782  1.0000
  H   H1564     1.0  0.58561  0.84418  0.72876  1.0000
  H   H1565     1.0  0.62200  0.83115  0.73325  1.0000
  H   H1566     1.0  0.60921  0.84317  0.69667  1.0000
  H   H1567     1.0  0.60515  0.72933  0.73842  1.0000
  H   H1568     1.0  0.57227  0.75142  0.73467  1.0000
  H   H1569     1.0  0.57817  0.72125  0.71441  1.0000
  H   H1570     1.0  0.60264  0.78394  0.63940  1.0000
  H   H1571     1.0  0.62482  0.81245  0.62972  1.0000
  H   H1572     1.0  0.59426  0.81798  0.65422  1.0000
  H   H1573     1.0  0.68190  0.75381  0.72847  1.0000
  H   H1574     1.0  0.66395  0.74448  0.69660  1.0000
  H   H1575     1.0  0.65447  0.73004  0.73343  1.0000
  C   C941      1.0  0.52982  0.75862  0.78660  1.0000
  H   H1576     1.0  0.73889  0.78806  0.75959  1.0000
  H   H1577     1.0  0.69945  0.56260  0.87061  1.0000
  H   H1578     1.0  0.54922  0.80234  0.61310  1.0000
  H   H1579     1.0  0.52820  0.71281  0.60031  1.0000
  H   H1580     1.0  0.55233  0.62842  0.87952  1.0000
  C   C942      1.0  0.51755  0.80471  0.82101  1.0000
  H   H1581     1.0  0.53725  0.72129  0.51549  1.0000
  H   H1582     1.0  0.53985  0.58046  0.73678  1.0000
  C   C943      1.0  0.51644  0.80805  0.78983  1.0000
  Fe  Fe140     1.0  0.72011  0.81354  0.61862  1.0000
  H   H1583     1.0  0.73377  0.69953  0.53610  1.0000
  H   H1584     1.0  0.68054  0.55378  0.67870  1.0000
  H   H1585     1.0  0.50386  0.61990  0.71415  1.0000
  S   S282      1.0  0.53876  0.64094  0.53217  1.0000
  S   S283      1.0  0.52216  0.70485  0.71746  1.0000
  C   C944      1.0  0.63403  0.68538  0.92102  1.0000
  C   C945      1.0  0.68952  0.58363  0.86342  1.0000
  C   C946      1.0  0.74892  0.66151  0.49618  1.0000
  N   N67       1.0  0.56118  0.74986  0.56236  1.0000
  C   C947      1.0  0.56462  0.71836  0.56848  1.0000
  C   C948      1.0  0.53660  0.75849  0.54225  1.0000
  C   C949      1.0  0.55492  0.76297  0.59158  1.0000
  C   C950      1.0  0.53749  0.70383  0.57992  1.0000
  C   C951      1.0  0.55611  0.79524  0.59082  1.0000
  H   H1586     1.0  0.57301  0.70794  0.54849  1.0000
  H   H1587     1.0  0.58095  0.71258  0.58553  1.0000
  H   H1588     1.0  0.53567  0.78155  0.53625  1.0000
  H   H1589     1.0  0.53295  0.75843  0.60026  1.0000
  H   H1590     1.0  0.56963  0.75355  0.60897  1.0000
  H   H1591     1.0  0.73004  0.88245  0.72169  1.0000
  H   H1592     1.0  0.52117  0.70465  0.56272  1.0000
  H   H1593     1.0  0.54334  0.68125  0.58594  1.0000
  H   H1594     1.0  0.62197  0.73158  0.56910  1.0000
  H   H1595     1.0  0.59956  0.98202  0.97197  1.0000
  H   H1596     1.0  0.54133  0.80635  0.57460  1.0000
  C   C952      1.0  0.52143  0.78477  0.77272  1.0000
  H   H1597     1.0  0.67557  0.68806  0.96550  1.0000
  H   H1598     1.0  0.54024  0.68056  0.93946  1.0000
  C   C953      1.0  0.70855  0.58047  0.49311  1.0000
  H   H1599     1.0  0.55578  0.52926  0.95196  1.0000
  H   H1600     1.0  0.52344  0.56440  0.80223  1.0000
  S   S284      1.0  0.51742  0.78915  0.73410  1.0000
  N   N68       1.0  0.68225  0.57234  0.80916  1.0000
  S   S285      1.0  0.52796  0.77370  0.87369  1.0000
  C   C954      1.0  0.61472  0.96070  0.93388  1.0000
  S   S286      1.0  0.74059  0.56731  0.71824  1.0000
  C   C955      1.0  0.68771  0.84136  0.75055  1.0000
  C   C956      1.0  0.70730  0.82239  0.76559  1.0000
  H   H1601     1.0  0.74215  0.89935  0.84910  1.0000
  C   C957      1.0  0.61575  0.75439  0.56577  1.0000
  H   H1602     1.0  0.66270  0.65755  0.86706  1.0000
  C   C958      1.0  0.66749  0.67769  0.49665  1.0000
  H   H1603     1.0  0.51234  0.62946  0.91678  1.0000
  C   C959      1.0  0.66673  0.67999  0.86209  1.0000
  C   C960      1.0  0.53718  0.74450  0.51245  1.0000
  H   H1604     1.0  0.71562  0.86077  0.97794  1.0000
  H   H1605     1.0  0.50580  0.68301  0.49814  1.0000
  H   H1606     1.0  0.67694  0.87351  0.53213  1.0000
  H   H1607     1.0  0.53742  0.73484  0.82834  1.0000
  C   C961      1.0  0.67531  0.53206  0.58689  1.0000
  H   H1608     1.0  0.70392  0.94996  0.80002  1.0000
  H   H1609     1.0  0.69938  0.64469  0.50406  1.0000
  H   H1610     1.0  0.71050  0.69929  0.69688  1.0000
  C   C962      1.0  0.53614  0.56326  0.78108  1.0000
  H   H1611     1.0  0.51743  0.75172  0.50053  1.0000
  H   H1612     1.0  0.62580  0.70735  0.91470  1.0000
  H   H1613     1.0  0.73093  0.67901  0.72411  1.0000
  H   H1614     1.0  0.52604  0.98225  0.89206  1.0000
  H   H1615     1.0  0.68458  0.91139  0.67366  1.0000
  H   H1616     1.0  0.73114  0.93112  0.67716  1.0000
  H   H1617     1.0  0.53320  0.64979  0.66764  1.0000
  H   H1618     1.0  0.53558  0.54180  0.77323  1.0000
  C   C963      1.0  0.62243  0.82778  0.96102  1.0000
  H   H1619     1.0  0.74878  0.95920  0.76305  1.0000
  H   H1620     1.0  0.58398  0.85758  0.56177  1.0000
  H   H1621     1.0  0.71260  0.88404  0.67346  1.0000
  H   H1622     1.0  0.72768  0.88562  0.52293  1.0000
  H   H1623     1.0  0.53387  0.60646  0.76202  1.0000
  H   H1624     1.0  0.69626  0.66804  0.53305  1.0000
  S   S287      1.0  0.65510  0.57480  0.52081  1.0000
  C   C964      1.0  0.58850  0.75976  0.54739  1.0000
  H   H1625     1.0  0.69576  0.89503  0.63970  1.0000
  C   C965      1.0  0.73127  0.68709  0.70037  1.0000
  H   H1626     1.0  0.71862  0.71342  0.64805  1.0000
  H   H1627     1.0  0.70659  0.91682  0.74409  1.0000
  H   H1628     1.0  0.51102  0.82853  0.77891  1.0000
  C   C966      1.0  0.53137  0.75530  0.81770  1.0000
  S   S288      1.0  0.59175  0.69643  0.49264  1.0000
  H   H1629     1.0  0.71006  0.52925  0.67159  1.0000
  H   H1630     1.0  0.66797  0.51922  0.49443  1.0000
  H   H1631     1.0  0.61609  0.56893  0.80523  1.0000
  C   C967      1.0  0.71039  0.94048  0.60404  1.0000
  C   C968      1.0  0.70812  0.64458  0.91599  1.0000
  H   H1632     1.0  0.67424  0.85594  0.76307  1.0000
  H   H1633     1.0  0.62509  0.67254  0.90433  1.0000
  H   H1634     1.0  0.66264  0.70062  0.49699  1.0000
  H   H1635     1.0  0.71249  0.64743  0.89158  1.0000
  H   H1636     1.0  0.59334  0.74926  0.52635  1.0000
  H   H1637     1.0  0.61348  0.76368  0.58761  1.0000
  H   H1638     1.0  0.70021  0.74034  0.49188  1.0000
  H   H1639     1.0  0.56675  0.54094  0.48650  1.0000
  H   H1640     1.0  0.71409  0.74772  0.52645  1.0000
  H   H1641     1.0  0.51286  0.82255  0.83420  1.0000
  H   H1642     1.0  0.61856  0.54315  0.95700  1.0000
  H   H1643     1.0  0.55883  0.56617  0.78601  1.0000
  H   H1644     1.0  0.71664  0.57491  0.64387  1.0000
  H   H1645     1.0  0.65963  0.48488  0.50874  1.0000
  C   C969      1.0  0.70325  0.90281  0.66043  1.0000
  H   H1646     1.0  0.66991  0.85654  0.70853  1.0000
  H   H1647     1.0  0.51567  0.75457  0.55391  1.0000
  H   H1648     1.0  0.58611  0.78256  0.54054  1.0000
  H   H1649     1.0  0.71474  0.54247  0.82802  1.0000
  H   H1650     1.0  0.73733  0.63016  0.53275  1.0000
  C   C970      1.0  0.69519  0.94290  0.77957  1.0000
  H   H1651     1.0  0.74849  0.94087  0.73041  1.0000
  C   C971      1.0  0.69136  0.54120  0.66123  1.0000
  C   C972      1.0  0.64451  0.48769  0.96081  1.0000
  H   H1652     1.0  0.67844  0.90895  0.51702  1.0000
  H   H1653     1.0  0.71831  0.75023  0.68809  1.0000
  C   C973      1.0  0.67913  0.58881  0.49287  1.0000
  C   C974      1.0  0.62001  0.67611  0.95150  1.0000
  H   H1654     1.0  0.73059  0.93124  0.51723  1.0000
  C   C975      1.0  0.69733  0.66744  0.50834  1.0000
  H   H1655     1.0  0.74151  0.87339  0.82271  1.0000
  H   H1656     1.0  0.69489  0.96068  0.76220  1.0000
  H   H1657     1.0  0.72254  0.91332  0.56830  1.0000
  H   H1658     1.0  0.72515  0.58671  0.81107  1.0000
  H   H1659     1.0  0.71675  0.54705  0.62028  1.0000
  H   H1660     1.0  0.67688  0.52555  0.65446  1.0000
  H   H1661     1.0  0.63508  0.95593  0.94573  1.0000
  C   C976      1.0  0.52638  0.58581  0.75656  1.0000
  H   H1662     1.0  0.66305  0.63831  0.91252  1.0000
  H   H1663     1.0  0.71660  0.56544  0.51046  1.0000
  H   H1664     1.0  0.68649  0.72374  0.52684  1.0000
  C   C977      1.0  0.73552  0.89577  0.82636  1.0000
  C   C978      1.0  0.69852  0.62281  0.79579  1.0000
  C   C979      1.0  0.71170  0.91652  0.76801  1.0000
  H   H1665     1.0  0.70254  0.69898  0.93947  1.0000
  H   H1666     1.0  0.66819  0.71716  0.88527  1.0000
  C   C980      1.0  0.74444  0.96690  0.62880  1.0000
  C   C981      1.0  0.72935  0.70667  0.51260  1.0000
  C   C982      1.0  0.67633  0.65208  0.92444  1.0000
  H   H1667     1.0  0.73746  0.79135  0.70464  1.0000
  H   H1668     1.0  0.54757  0.71679  0.92732  1.0000
  H   H1669     1.0  0.70657  0.59832  0.85747  1.0000
  C   C983      1.0  0.70588  0.73071  0.51417  1.0000
  C   C984      1.0  0.66873  0.58206  0.83789  1.0000
  C   C985      1.0  0.59841  0.53654  0.96847  1.0000
  H   H1670     1.0  0.68396  0.68046  0.84437  1.0000
  H   H1671     1.0  0.58678  0.50789  0.49165  1.0000
  H   H1672     1.0  0.71495  0.50621  0.79423  1.0000
  H   H1673     1.0  0.71326  0.58547  0.77472  1.0000
  N   N69       1.0  0.71872  0.94943  0.63380  1.0000
  H   H1674     1.0  0.68127  0.62909  0.78010  1.0000
  C   C986      1.0  0.61592  0.48607  0.97896  1.0000
  H   H1675     1.0  0.71337  0.62200  0.92265  1.0000
  H   H1676     1.0  0.74807  0.93736  0.81122  1.0000
  H   H1677     1.0  0.59631  0.67801  0.94977  1.0000
  H   H1678     1.0  0.62094  0.96558  0.91011  1.0000
  H   H1679     1.0  0.70164  0.89730  0.77797  1.0000
  H   H1680     1.0  0.68039  0.52950  0.82930  1.0000
  H   H1681     1.0  0.67391  0.95409  0.64796  1.0000
  H   H1682     1.0  0.62519  0.54910  0.77312  1.0000
  C   C987      1.0  0.51807  0.97199  0.95669  1.0000
  H   H1683     1.0  0.65878  0.52044  0.57674  1.0000
  H   H1684     1.0  0.69896  0.75916  0.65503  1.0000
  C   C988      1.0  0.70588  0.59073  0.79754  1.0000
  H   H1685     1.0  0.69274  0.63092  0.81779  1.0000
  H   H1686     1.0  0.68987  0.53949  0.56834  1.0000
  H   H1687     1.0  0.64578  0.50701  0.94586  1.0000
  H   H1688     1.0  0.57835  0.84212  0.96905  1.0000
  C   C989      1.0  0.52480  0.77825  0.83495  1.0000
  C   C990      1.0  0.65961  0.57388  0.78610  1.0000
  C   C991      1.0  0.69500  0.54265  0.81497  1.0000
  H   H1689     1.0  0.73271  0.89786  0.60373  1.0000
  H   H1690     1.0  0.55273  0.95020  0.93297  1.0000
  C   C992      1.0  0.72077  0.75433  0.66366  1.0000
  H   H1691     1.0  0.73725  0.66829  0.63911  1.0000
  H   H1692     1.0  0.50829  0.95144  0.96126  1.0000
  H   H1693     1.0  0.71862  0.53828  0.77207  1.0000
  N   N70       1.0  0.72303  0.68224  0.49498  1.0000
  H   H1694     1.0  0.70621  0.95830  0.50227  1.0000
  C   C993      1.0  0.67889  0.69872  0.94289  1.0000
  H   H1695     1.0  0.57816  0.80198  0.58602  1.0000
  H   H1696     1.0  0.68457  0.52189  0.77489  1.0000
  H   H1697     1.0  0.74615  0.69094  0.60659  1.0000
  H   H1698     1.0  0.64463  0.73188  0.95129  1.0000
  H   H1699     1.0  0.73635  0.60722  0.59996  1.0000
  N   N71       1.0  0.74371  0.91458  0.77151  1.0000
  H   H1700     1.0  0.74301  0.95578  0.48867  1.0000
  C   C994      1.0  0.75276  0.88293  0.72743  1.0000
  H   H1701     1.0  0.73980  0.73610  0.62476  1.0000
  H   H1702     1.0  0.73293  0.77332  0.65825  1.0000
  H   H1703     1.0  0.74249  0.68482  0.97406  1.0000
  H   H1704     1.0  0.52472  0.57275  0.69453  1.0000
  C   C995      1.0  0.68303  0.88671  0.51183  1.0000
  C   C996      1.0  0.75126  0.91569  0.80365  1.0000
  H   H1705     1.0  0.71845  0.85708  0.50369  1.0000
  H   H1706     1.0  0.74924  0.71620  0.50361  1.0000
  H   H1707     1.0  0.55696  0.68877  0.90415  1.0000
  H   H1708     1.0  0.63278  0.51309  0.51078  1.0000
  H   H1709     1.0  0.73248  0.83431  0.95493  1.0000
  H   H1710     1.0  0.62134  0.80967  0.97683  1.0000
  Fe  Fe141     1.0  0.51098  0.80880  0.90119  1.0000
  H   H1711     1.0  0.66302  0.48547  0.97571  1.0000
  H   H1712     1.0  0.75269  0.92531  0.58536  1.0000
  H   H1713     1.0  0.52078  0.74806  0.97143  1.0000
  H   H1714     1.0  0.66900  0.88143  0.49406  1.0000
  Fe  Fe142     1.0  0.50756  0.75064  0.71068  1.0000
  C   C997      1.0  0.72447  0.94339  0.49640  1.0000
  H   H1715     1.0  0.74500  0.86924  0.77318  1.0000
  Fe  Fe143     1.0  0.74866  0.75175  0.89184  1.0000
  C   C998      1.0  0.51143  0.70096  0.90523  1.0000
  H   H1716     1.0  0.58917  0.55561  0.97918  1.0000
  H   H1717     1.0  0.50632  0.98342  0.93824  1.0000
  C   C999      1.0  0.50656  0.73042  0.97044  1.0000
  H   H1718     1.0  0.50796  0.68142  0.89407  1.0000
  H   H1719     1.0  0.51486  0.71718  0.88678  1.0000
  S   S289      1.0  0.50394  0.85499  0.88845  1.0000
  H   H1720     1.0  0.51403  0.98372  0.97696  1.0000
  H   H1721     1.0  0.90747  0.43458  0.98865  1.0000
  Fe  Fe144     1.0  0.78913  0.46400  0.42946  1.0000
  S   S290      1.0  0.82535  0.43848  0.40573  1.0000
  H   H1722     1.0  0.97376  0.23895  0.07794  1.0000
  H   H1723     1.0  0.96678  0.25472  0.02816  1.0000
  Fe  Fe145     1.0  0.79985  0.46395  0.00027  1.0000
  H   H1724     1.0  0.75855  0.32661  0.45877  1.0000
  S   S291      1.0  0.77941  0.00490  0.02358  1.0000
  Fe  Fe146     1.0  0.98776  0.37565  0.40930  1.0000
  S   S292      1.0  0.95607  0.40365  0.43609  1.0000
  S   S293      1.0  0.97979  0.33513  0.38918  1.0000
  C   C1000     1.0  0.99996  0.44861  0.03451  1.0000
  H   H1725     1.0  0.95461  0.48106  0.41129  1.0000
  S   S294      1.0  0.93391  0.37482  0.07922  1.0000
  H   H1726     1.0  0.87144  0.41092  0.37303  1.0000
  C   C1001     1.0  0.00162  0.34785  0.21129  1.0000
  H   H1727     1.0  0.89416  0.33479  0.05097  1.0000
  H   H1728     1.0  0.97233  0.30221  0.02581  1.0000
  C   C1002     1.0  0.94953  0.30928  0.03088  1.0000
  H   H1729     1.0  0.98761  0.34828  0.19270  1.0000
  H   H1730     1.0  0.94927  0.45143  0.10792  1.0000
  C   C1003     1.0  0.95754  0.25691  0.07467  1.0000
  C   C1004     1.0  0.94712  0.25823  0.04251  1.0000
  C   C1005     1.0  0.87042  0.42658  0.01740  1.0000
  C   C1006     1.0  0.89992  0.42424  0.00943  1.0000
  C   C1007     1.0  0.91971  0.40855  0.02799  1.0000
  C   C1008     1.0  0.91018  0.39500  0.05483  1.0000
  C   C1009     1.0  0.88070  0.39729  0.06278  1.0000
  C   C1010     1.0  0.86090  0.41282  0.04412  1.0000
  H   H1731     1.0  0.96676  0.35083  0.24425  1.0000
  H   H1732     1.0  0.94223  0.40678  0.02140  1.0000
  H   H1733     1.0  0.87304  0.38673  0.08339  1.0000
  H   H1734     1.0  0.83824  0.41400  0.05025  1.0000
  C   C1011     1.0  0.86111  0.42774  0.41560  1.0000
  C   C1012     1.0  0.87182  0.43229  0.44330  1.0000
  C   C1013     1.0  0.90080  0.42439  0.44944  1.0000
  C   C1014     1.0  0.91927  0.41157  0.42814  1.0000
  C   C1015     1.0  0.90833  0.40657  0.40070  1.0000
  C   C1016     1.0  0.87948  0.41466  0.39449  1.0000
  H   H1735     1.0  0.85790  0.44208  0.45988  1.0000
  H   H1736     1.0  0.92221  0.39677  0.38406  1.0000
  C   C1017     1.0  0.76914  0.38913  0.38207  1.0000
  Fe  Fe147     1.0  0.98226  0.36283  0.07749  1.0000
  S   S295      1.0  0.76652  0.45198  0.03545  1.0000
  H   H1737     1.0  0.90899  0.42831  0.47078  1.0000
  C   C1018     1.0  0.76697  0.08819  0.01550  1.0000
  H   H1738     1.0  0.95535  0.35222  0.01272  1.0000
  H   H1739     1.0  0.89243  0.27028  0.05607  1.0000
  C   C1019     1.0  0.95787  0.45281  0.08452  1.0000
  H   H1740     1.0  0.79289  0.33671  0.44562  1.0000
  C   C1020     1.0  0.91904  0.28026  0.00182  1.0000
  H   H1741     1.0  0.77403  0.10994  0.01252  1.0000
  H   H1742     1.0  0.96808  0.27614  0.07922  1.0000
  H   H1743     1.0  0.95454  0.22268  0.45560  1.0000
  H   H1744     1.0  0.80334  0.46372  0.11114  1.0000
  H   H1745     1.0  0.99698  0.47857  0.44571  1.0000
  C   C1021     1.0  0.76255  0.07555  0.98559  1.0000
  H   H1746     1.0  0.81509  0.43479  0.13644  1.0000
  N   N72       1.0  0.75840  0.36841  0.43663  1.0000
  H   H1747     1.0  0.78663  0.39951  0.36887  1.0000
  C   C1022     1.0  0.75890  0.38034  0.46676  1.0000
  C   C1023     1.0  0.94241  0.33446  0.00817  1.0000
  H   H1748     1.0  0.94206  0.46573  0.07084  1.0000
  H   H1749     1.0  0.90737  0.29942  0.99184  1.0000
  C   C1024     1.0  0.84903  0.46308  0.12316  1.0000
  C   C1025     1.0  0.88425  0.31498  0.04699  1.0000
  H   H1750     1.0  0.86548  0.31374  0.06290  1.0000
  H   H1751     1.0  0.91977  0.34264  0.00945  1.0000
  H   H1752     1.0  0.78227  0.32930  0.39371  1.0000
  H   H1753     1.0  0.95970  0.43095  0.07745  1.0000
  H   H1754     1.0  0.87055  0.46188  0.06846  1.0000
  H   H1755     1.0  0.84744  0.46781  0.14693  1.0000
  C   C1026     1.0  0.98746  0.46556  0.08343  1.0000
  H   H1756     1.0  0.91285  0.29210  0.07639  1.0000
  S   S296      1.0  0.77225  0.45887  0.47708  1.0000
  H   H1757     1.0  0.86730  0.44691  0.12166  1.0000
  H   H1758     1.0  0.94986  0.31786  0.05321  1.0000
  C   C1027     1.0  0.90523  0.28929  0.05375  1.0000
  H   H1759     1.0  0.93935  0.00956  0.98375  1.0000
  H   H1760     1.0  0.93441  0.23949  0.04072  1.0000
  H   H1761     1.0  0.93977  0.25315  0.09131  1.0000
  H   H1762     1.0  0.80014  0.37739  0.41587  1.0000
  H   H1763     1.0  0.87010  0.47963  0.37003  1.0000
  H   H1764     1.0  0.82569  0.43477  0.09788  1.0000
  H   H1765     1.0  0.75905  0.98789  0.44067  1.0000
  H   H1766     1.0  0.77645  0.29906  0.41813  1.0000
  H   H1767     1.0  0.90348  0.47294  0.41143  1.0000
  H   H1768     1.0  0.99398  0.44174  0.47790  1.0000
  S   S297      1.0  0.99512  0.32184  0.10318  1.0000
  H   H1769     1.0  0.83381  0.47413  0.06545  1.0000
  N   N73       1.0  0.93025  0.28495  0.03191  1.0000
  H   H1770     1.0  0.80329  0.39493  0.46453  1.0000
  C   C1028     1.0  0.98983  0.34928  0.24064  1.0000
  C   C1029     1.0  0.77726  0.38561  0.41513  1.0000
  C   C1030     1.0  0.76987  0.33814  0.43988  1.0000
  H   H1771     1.0  0.78387  0.07506  0.02767  1.0000
  N   N74       1.0  0.99987  0.47392  0.05275  1.0000
  S   S298      1.0  0.84654  0.44674  0.99314  1.0000
  H   H1772     1.0  0.87569  0.31600  0.02435  1.0000
  C   C1031     1.0  0.85530  0.48049  0.07129  1.0000
  H   H1773     1.0  0.90283  0.26403  0.00407  1.0000
  H   H1774     1.0  0.77727  0.40757  0.42182  1.0000
  H   H1775     1.0  0.90093  0.48031  0.10463  1.0000
  H   H1776     1.0  0.97772  0.44269  0.03135  1.0000
  C   C1032     1.0  0.82162  0.44850  0.11664  1.0000
  S   S299      1.0  0.99106  0.35001  0.30196  1.0000
  C   C1033     1.0  0.76830  0.32110  0.41236  1.0000
  H   H1777     1.0  0.88691  0.00266  0.98741  1.0000
  H   H1778     1.0  0.76611  0.36905  0.37228  1.0000
  H   H1779     1.0  0.97443  0.14988  0.47305  1.0000
  H   H1780     1.0  0.98126  0.19941  0.47271  1.0000
  Fe  Fe148     1.0  0.80806  0.00317  0.98188  1.0000
  H   H1781     1.0  0.93295  0.17851  0.47251  1.0000
  C   C1034     1.0  0.96095  0.21192  0.47726  1.0000
  H   H1782     1.0  0.94809  0.32924  0.98499  1.0000
  H   H1783     1.0  0.00105  0.46667  0.98807  1.0000
  H   H1784     1.0  0.00237  0.44998  0.09564  1.0000
  H   H1785     1.0  0.94843  0.24788  0.98233  1.0000
  C   C1035     1.0  0.78892  0.38217  0.47950  1.0000
  C   C1036     1.0  0.92453  0.02515  0.97312  1.0000
  S   S300      1.0  0.77116  0.99966  0.95158  1.0000
  S   S301      1.0  0.98627  0.12608  0.90304  1.0000
  H   H1786     1.0  0.91758  0.15455  0.71204  1.0000
  Fe  Fe149     1.0  0.82722  0.03165  0.54225  1.0000
  S   S302      1.0  0.86257  0.06228  0.53182  1.0000
  H   H1787     1.0  0.91586  0.14480  0.50667  1.0000
  S   S303      1.0  0.80146  0.02527  0.58488  1.0000
  S   S304      1.0  0.78838  0.03256  0.51373  1.0000
  H   H1788     1.0  0.90147  0.01426  0.50447  1.0000
  C   C1037     1.0  0.94268  0.18670  0.57578  1.0000
  S   S305      1.0  0.97180  0.07487  0.60924  1.0000
  H   H1789     1.0  0.97153  0.01462  0.57599  1.0000
  H   H1790     1.0  0.77600  0.08856  0.90528  1.0000
  S   S306      1.0  0.97299  0.05358  0.95661  1.0000
  H   H1791     1.0  0.80234  0.09985  0.94522  1.0000
  H   H1792     1.0  0.89354  0.11708  0.67015  1.0000
  H   H1793     1.0  0.94545  0.11891  0.76515  1.0000
  H   H1794     1.0  0.94342  0.16348  0.57889  1.0000
  H   H1795     1.0  0.99108  0.18294  0.69179  1.0000
  C   C1038     1.0  0.94136  0.19895  0.54295  1.0000
  C   C1039     1.0  0.91422  0.10451  0.66735  1.0000
  Fe  Fe150     1.0  0.76306  0.02239  0.55680  1.0000
  C   C1040     1.0  0.89319  0.06465  0.55333  1.0000
  C   C1041     1.0  0.89618  0.05018  0.58129  1.0000
  C   C1042     1.0  0.92050  0.05340  0.59798  1.0000
  C   C1043     1.0  0.94210  0.07099  0.58689  1.0000
  C   C1044     1.0  0.93950  0.08483  0.55861  1.0000
  C   C1045     1.0  0.91512  0.08172  0.54196  1.0000
  H   H1796     1.0  0.87954  0.03686  0.59022  1.0000
  H   H1797     1.0  0.92244  0.04239  0.61975  1.0000
  H   H1798     1.0  0.95633  0.09782  0.54964  1.0000
  H   H1799     1.0  0.91320  0.09245  0.52007  1.0000
  H   H1800     1.0  0.98870  0.05659  0.70363  1.0000
  C   C1046     1.0  0.88597  0.06545  0.94661  1.0000
  C   C1047     1.0  0.91572  0.06939  0.94439  1.0000
  C   C1048     1.0  0.93523  0.04934  0.95782  1.0000
  H   H1801     1.0  0.98656  0.13983  0.72223  1.0000
  C   C1049     1.0  0.93609  0.13857  0.75370  1.0000
  H   H1802     1.0  0.87116  0.08127  0.93632  1.0000
  H   H1803     1.0  0.92353  0.08808  0.93255  1.0000
  H   H1804     1.0  0.95133  0.15539  0.75417  1.0000
  H   H1805     1.0  0.93300  0.27356  0.95581  1.0000
  C   C1050     1.0  0.97071  0.17230  0.69053  1.0000
  H   H1806     1.0  0.79766  0.13544  0.93119  1.0000
  H   H1807     1.0  0.97435  0.09445  0.73308  1.0000
  H   H1808     1.0  0.96215  0.19344  0.58598  1.0000
  C   C1051     1.0  0.89476  0.02115  0.97523  1.0000
  C   C1052     1.0  0.92087  0.00401  0.51519  1.0000
  C   C1053     1.0  0.97303  0.99549  0.56319  1.0000
  H   H1809     1.0  0.89598  0.98743  0.55186  1.0000
  S   S307      1.0  0.83747  0.98558  0.53966  1.0000
  H   H1810     1.0  0.92389  0.19516  0.58898  1.0000
  C   C1054     1.0  0.76741  0.06969  0.91746  1.0000
  H   H1811     1.0  0.79953  0.36106  0.48490  1.0000
  H   H1812     1.0  0.76123  0.05583  0.90032  1.0000
  C   C1055     1.0  0.96096  0.09355  0.71334  1.0000
  H   H1813     1.0  0.93238  0.14440  0.66216  1.0000
  H   H1814     1.0  0.96486  0.22871  0.49206  1.0000
  H   H1815     1.0  0.92303  0.14227  0.54487  1.0000
  H   H1816     1.0  0.98812  0.17535  0.51766  1.0000
  H   H1817     1.0  0.96427  0.17567  0.66706  1.0000
  H   H1818     1.0  0.94258  0.08128  0.72200  1.0000
  H   H1819     1.0  0.96483  0.06785  0.67454  1.0000
  C   C1056     1.0  0.87524  0.04140  0.96210  1.0000
  H   H1820     1.0  0.92220  0.21403  0.54103  1.0000
  H   H1821     1.0  0.91543  0.09618  0.64489  1.0000
  H   H1822     1.0  0.87228  0.15464  0.53529  1.0000
  H   H1823     1.0  0.91694  0.20755  0.49054  1.0000
  H   H1824     1.0  0.88668  0.18212  0.55364  1.0000
  H   H1825     1.0  0.91667  0.14531  0.76705  1.0000
  H   H1826     1.0  0.90951  0.11981  0.72388  1.0000
  N   N75       1.0  0.94156  0.17778  0.51968  1.0000
  Fe  Fe151     1.0  0.99992  0.08754  0.93224  1.0000
  H   H1827     1.0  0.95473  0.18295  0.70545  1.0000
  C   C1057     1.0  0.91796  0.15779  0.52593  1.0000
  H   H1828     1.0  0.93165  0.99025  0.58547  1.0000
  H   H1829     1.0  0.95721  0.11683  0.65397  1.0000
  C   C1058     1.0  0.93676  0.19334  0.48970  1.0000
  H   H1830     1.0  0.80147  0.12802  0.96992  1.0000
  S   S308      1.0  0.76792  0.46704  0.96346  1.0000
  C   C1059     1.0  0.97012  0.16116  0.51994  1.0000
  H   H1831     1.0  0.87765  0.00009  0.91745  1.0000
  C   C1060     1.0  0.97869  0.07549  0.69126  1.0000
  H   H1832     1.0  0.97324  0.14916  0.54182  1.0000
  H   H1833     1.0  0.96150  0.28272  0.97810  1.0000
  C   C1061     1.0  0.97653  0.14084  0.70019  1.0000
  C   C1062     1.0  0.93990  0.12278  0.67049  1.0000
  H   H1834     1.0  0.91411  0.08580  0.68335  1.0000
  C   C1063     1.0  0.92741  0.13421  0.72169  1.0000
  Fe  Fe152     1.0  0.79751  0.98551  0.51331  1.0000
  N   N76       1.0  0.95112  0.12284  0.70137  1.0000
  H   H1835     1.0  0.95987  0.21244  0.53900  1.0000
  H   H1836     1.0  0.99369  0.13267  0.68472  1.0000
  H   H1837     1.0  0.99624  0.08686  0.67950  1.0000
  S   S309      1.0  0.83735  0.03801  0.96431  1.0000
  C   C1064     1.0  0.88777  0.17146  0.53253  1.0000
  H   H1838     1.0  0.88033  0.18638  0.51400  1.0000
  H   H1839     1.0  0.95958  0.12300  0.49866  1.0000
  H   H1840     1.0  0.92936  0.02016  0.52829  1.0000
  H   H1841     1.0  0.99684  0.12909  0.49836  1.0000
  H   H1842     1.0  0.97307  0.00303  0.53944  1.0000
  H   H1843     1.0  0.77286  0.99325  0.64939  1.0000
  C   C1065     1.0  0.94201  0.27065  0.97837  1.0000
  H   H1844     1.0  0.78449  0.05772  0.93024  1.0000
  C   C1066     1.0  0.79172  0.12043  0.95013  1.0000
  C   C1067     1.0  0.97508  0.13970  0.49595  1.0000
  H   H1845     1.0  0.78637  0.39274  0.50072  1.0000
  C   C1068     1.0  0.75853  0.12142  0.95413  1.0000
  H   H1846     1.0  0.93608  0.99816  0.49684  1.0000
  H   H1847     1.0  0.78405  0.06904  0.97645  1.0000
  H   H1848     1.0  0.99420  0.98471  0.56846  1.0000
  S   S310      1.0  0.94854  0.77601  0.35084  1.0000
  C   C1069     1.0  0.91912  0.58402  0.47487  1.0000
  C   C1070     1.0  0.78145  0.57948  0.25948  1.0000
  Fe  Fe153     1.0  0.99744  0.59185  0.09153  1.0000
  H   H1849     1.0  0.84801  0.49140  0.41754  1.0000
  C   C1071     1.0  0.79159  0.92690  0.39454  1.0000
  H   H1850     1.0  0.77236  0.61421  0.35525  1.0000
  N   N77       1.0  0.80275  0.75829  0.29976  1.0000
  S   S311      1.0  0.79326  0.92486  0.06786  1.0000
  H   H1851     1.0  0.83660  0.49898  0.36512  1.0000
  Fe  Fe154     1.0  0.80517  0.86266  0.28636  1.0000
  S   S312      1.0  0.79518  0.90942  0.27913  1.0000
  S   S313      1.0  0.85118  0.84628  0.27624  1.0000
  N   N78       1.0  0.85495  0.48888  0.10303  1.0000
  H   H1852     1.0  0.88473  0.48733  0.45839  1.0000
  H   H1853     1.0  0.84670  0.54291  0.45626  1.0000
  H   H1854     1.0  0.93453  0.84763  0.37473  1.0000
  S   S314      1.0  0.77275  0.85193  0.25396  1.0000
  S   S315      1.0  0.77506  0.85792  0.32659  1.0000
  H   H1855     1.0  0.79437  0.59701  0.25004  1.0000
  S   S316      1.0  0.81410  0.63730  0.45524  1.0000
  H   H1856     1.0  0.85817  0.77285  0.27053  1.0000
  S   S317      1.0  0.78401  0.68330  0.12452  1.0000
  S   S318      1.0  0.77806  0.73520  0.18628  1.0000
  H   H1857     1.0  0.87914  0.67868  0.29921  1.0000
  H   H1858     1.0  0.76420  0.68646  0.02319  1.0000
  H   H1859     1.0  0.80913  0.58655  0.31355  1.0000
  Fe  Fe155     1.0  0.93974  0.77512  0.20533  1.0000
  S   S319      1.0  0.92545  0.82083  0.20057  1.0000
  S   S320      1.0  0.90915  0.74079  0.21867  1.0000
  H   H1860     1.0  0.80913  0.76524  0.46631  1.0000
  S   S321      1.0  0.93922  0.84872  0.11744  1.0000
  H   H1861     1.0  0.87588  0.56178  0.36790  1.0000
  S   S322      1.0  0.76373  0.65100  0.21182  1.0000
  H   H1862     1.0  0.92067  0.58295  0.12992  1.0000
  S   S323      1.0  0.97917  0.78158  0.23117  1.0000
  H   H1863     1.0  0.77211  0.78441  0.36560  1.0000
  C   C1072     1.0  0.85795  0.50920  0.40448  1.0000
  S   S324      1.0  0.80425  0.65939  0.38478  1.0000
  Fe  Fe156     1.0  0.82984  0.67082  0.42281  1.0000
  C   C1073     1.0  0.78481  0.77714  0.31968  1.0000
  Fe  Fe157     1.0  0.84167  0.62961  0.37282  1.0000
  S   S325      1.0  0.82567  0.59370  0.40317  1.0000
  S   S326      1.0  0.86496  0.61861  0.32869  1.0000
  Fe  Fe158     1.0  0.78959  0.62449  0.41734  1.0000
  Fe  Fe159     1.0  0.85210  0.61084  0.43812  1.0000
  Fe  Fe160     1.0  0.75907  0.49853  0.04095  1.0000
  S   S327      1.0  0.86923  0.64530  0.40758  1.0000
  Fe  Fe161     1.0  0.81490  0.61552  0.09117  1.0000
  S   S328      1.0  0.84170  0.65001  0.10161  1.0000
  S   S329      1.0  0.83832  0.58195  0.06554  1.0000
  Fe  Fe162     1.0  0.81591  0.65017  0.14549  1.0000
  S   S330      1.0  0.84298  0.64154  0.18810  1.0000
  Fe  Fe163     1.0  0.80722  0.67865  0.07983  1.0000
  S   S331      1.0  0.81695  0.71059  0.04069  1.0000
  S   S332      1.0  0.78988  0.61442  0.13490  1.0000
  S   S333      1.0  0.78210  0.64374  0.06725  1.0000
  C   C1074     1.0  0.81801  0.51546  0.13785  1.0000
  C   C1075     1.0  0.79934  0.71066  0.00621  1.0000
  C   C1076     1.0  0.77417  0.69670  0.00362  1.0000
  H   H1864     1.0  0.79057  0.68926  0.28468  1.0000
  H   H1865     1.0  0.99209  0.65947  0.32936  1.0000
  H   H1866     1.0  0.86880  0.51625  0.35599  1.0000
  C   C1077     1.0  0.85705  0.62536  0.29023  1.0000
  C   C1078     1.0  0.87714  0.61579  0.26862  1.0000
  C   C1079     1.0  0.87244  0.62131  0.23792  1.0000
  C   C1080     1.0  0.84727  0.63608  0.22788  1.0000
  C   C1081     1.0  0.82714  0.64552  0.24973  1.0000
  C   C1082     1.0  0.83190  0.64004  0.28058  1.0000
  H   H1867     1.0  0.89669  0.60423  0.27562  1.0000
  H   H1868     1.0  0.88843  0.61389  0.22176  1.0000
  H   H1869     1.0  0.80814  0.65778  0.24334  1.0000
  H   H1870     1.0  0.81610  0.64715  0.29702  1.0000
  C   C1083     1.0  0.93291  0.56644  0.08763  1.0000
  C   C1084     1.0  0.91347  0.57848  0.10832  1.0000
  C   C1085     1.0  0.88447  0.58405  0.10140  1.0000
  C   C1086     1.0  0.87490  0.57754  0.07379  1.0000
  C   C1087     1.0  0.89448  0.56586  0.05305  1.0000
  C   C1088     1.0  0.92337  0.56031  0.05993  1.0000
  H   H1871     1.0  0.86941  0.59266  0.11777  1.0000
  H   H1872     1.0  0.88729  0.56074  0.03173  1.0000
  H   H1873     1.0  0.93823  0.55108  0.04384  1.0000
  H   H1874     1.0  0.77394  0.78314  0.23110  1.0000
  H   H1875     1.0  0.81501  0.75907  0.25277  1.0000
  H   H1876     1.0  0.87549  0.92553  0.42516  1.0000
  H   H1877     1.0  0.76022  0.57453  0.21741  1.0000
  C   C1089     1.0  0.79771  0.50231  0.28929  1.0000
  H   H1878     1.0  0.76770  0.85130  0.45516  1.0000
  Fe  Fe164     1.0  0.97849  0.82143  0.47249  1.0000
  H   H1879     1.0  0.87742  0.52816  0.14297  1.0000
  C   C1090     1.0  0.83269  0.51294  0.10670  1.0000
  H   H1880     1.0  0.77371  0.58603  0.28153  1.0000
  H   H1881     1.0  0.79661  0.86440  0.47365  1.0000
  C   C1091     1.0  0.94713  0.83275  0.08386  1.0000
  C   C1092     1.0  0.95113  0.84919  0.05705  1.0000
  C   C1093     1.0  0.95771  0.83621  0.03029  1.0000
  H   H1882     1.0  0.94956  0.87190  0.05706  1.0000
  H   H1883     1.0  0.77497  0.57004  0.98923  1.0000
  C   C1094     1.0  0.81422  0.73725  0.19616  1.0000
  C   C1095     1.0  0.82776  0.76276  0.19116  1.0000
  C   C1096     1.0  0.85676  0.76448  0.19835  1.0000
  C   C1097     1.0  0.87238  0.74062  0.21054  1.0000
  C   C1098     1.0  0.85862  0.71536  0.21591  1.0000
  C   C1099     1.0  0.82990  0.71368  0.20836  1.0000
  H   H1884     1.0  0.81578  0.78112  0.18154  1.0000
  H   H1885     1.0  0.86709  0.78408  0.19429  1.0000
  H   H1886     1.0  0.87042  0.69662  0.22496  1.0000
  H   H1887     1.0  0.81986  0.69397  0.21128  1.0000
  H   H1888     1.0  0.76858  0.96977  0.10428  1.0000
  H   H1889     1.0  0.82169  0.91921  0.42986  1.0000
  H   H1890     1.0  0.85859  0.49615  0.02476  1.0000
  H   H1891     1.0  0.96151  0.49040  0.03024  1.0000
  C   C1100     1.0  0.81096  0.72512  0.98065  1.0000
  S   S334      1.0  0.80578  0.95759  0.47412  1.0000
  H   H1892     1.0  0.80528  0.53598  0.13790  1.0000
  S   S335      1.0  0.96826  0.55598  0.09738  1.0000
  C   C1101     1.0  0.82453  0.83773  0.00074  1.0000
  H   H1893     1.0  0.81304  0.50518  0.30682  1.0000
  C   C1102     1.0  0.77994  0.92533  0.10556  1.0000
  H   H1894     1.0  0.84328  0.57229  0.22092  1.0000
  H   H1895     1.0  0.79154  0.58309  0.01957  1.0000
  H   H1896     1.0  0.91238  0.51134  0.14144  1.0000
  H   H1897     1.0  0.81928  0.94658  0.19096  1.0000
  C   C1103     1.0  0.89016  0.77221  0.12184  1.0000
  H   H1898     1.0  0.92171  0.72889  0.27854  1.0000
  H   H1899     1.0  0.93163  0.73356  0.31591  1.0000
  H   H1900     1.0  0.87914  0.67853  0.33853  1.0000
  H   H1901     1.0  0.89278  0.70760  0.31709  1.0000
  H   H1902     1.0  0.75890  0.77752  0.03298  1.0000
  H   H1903     1.0  0.88797  0.94429  0.29395  1.0000
  H   H1904     1.0  0.76449  0.52432  0.26408  1.0000
  H   H1905     1.0  0.93160  0.67798  0.21610  1.0000
  H   H1906     1.0  0.84920  0.65345  0.99469  1.0000
  H   H1907     1.0  0.79178  0.79907  0.31656  1.0000
  H   H1908     1.0  0.95338  0.74522  0.28401  1.0000
  H   H1909     1.0  0.81058  0.79274  0.26705  1.0000
  C   C1104     1.0  0.92148  0.79494  0.32954  1.0000
  C   C1105     1.0  0.89411  0.80047  0.34292  1.0000
  C   C1106     1.0  0.87234  0.81637  0.32716  1.0000
  C   C1107     1.0  0.87757  0.82638  0.29760  1.0000
  C   C1108     1.0  0.90470  0.82035  0.28415  1.0000
  C   C1109     1.0  0.92647  0.80460  0.29989  1.0000
  H   H1910     1.0  0.88986  0.79292  0.36578  1.0000
  H   H1911     1.0  0.85158  0.82084  0.33787  1.0000
  H   H1912     1.0  0.90911  0.82813  0.26145  1.0000
  H   H1913     1.0  0.94713  0.80015  0.28902  1.0000
  H   H1914     1.0  0.83334  0.51496  0.15591  1.0000
  H   H1915     1.0  0.95835  0.68615  0.45665  1.0000
  H   H1916     1.0  0.90924  0.54035  0.36441  1.0000
  H   H1917     1.0  0.96622  0.91367  0.28361  1.0000
  Fe  Fe165     1.0  0.76258  0.90397  0.31697  1.0000
  H   H1918     1.0  0.82140  0.61901  0.01530  1.0000
  H   H1919     1.0  0.80919  0.58260  0.20453  1.0000
  C   C1110     1.0  0.76334  0.92488  0.16718  1.0000
  C   C1111     1.0  0.76969  0.95020  0.11804  1.0000
  H   H1920     1.0  0.89407  0.95684  0.42595  1.0000
  N   N79       1.0  0.92739  0.71816  0.43830  1.0000
  H   H1921     1.0  0.91984  0.94726  0.37709  1.0000
  Fe  Fe166     1.0  0.99097  0.86856  0.42705  1.0000
  N   N80       1.0  0.79940  0.55222  0.26292  1.0000
  H   H1922     1.0  0.83735  0.57425  0.26949  1.0000
  H   H1923     1.0  0.98548  0.82506  0.30193  1.0000
  Fe  Fe167     1.0  0.76611  0.50631  0.47381  1.0000
  H   H1924     1.0  0.84225  0.52769  0.40582  1.0000
  C   C1112     1.0  0.82524  0.55688  0.28047  1.0000
  H   H1925     1.0  0.76682  0.90465  0.45423  1.0000
  C   C1113     1.0  0.81202  0.62851  0.99429  1.0000
  C   C1114     1.0  0.77099  0.80962  0.99793  1.0000
  C   C1115     1.0  0.77151  0.77555  0.25494  1.0000
  H   H1926     1.0  0.76192  0.77827  0.31379  1.0000
  C   C1116     1.0  0.75646  0.96566  0.40068  1.0000
  C   C1117     1.0  0.80148  0.77163  0.26837  1.0000
  H   H1927     1.0  0.79871  0.84130  0.04126  1.0000
  H   H1928     1.0  0.98111  0.92246  0.33389  1.0000
  H   H1929     1.0  0.90408  0.69415  0.38287  1.0000
  H   H1930     1.0  0.83144  0.55454  0.19066  1.0000
  C   C1118     1.0  0.94540  0.74164  0.42575  1.0000
  H   H1931     1.0  0.99585  0.62397  0.31978  1.0000
  C   C1119     1.0  0.95083  0.72068  0.99480  1.0000
  H   H1932     1.0  0.96523  0.74179  0.43842  1.0000
  C   C1120     1.0  0.79677  0.84833  0.01727  1.0000
  C   C1121     1.0  0.80381  0.93258  0.42142  1.0000
  H   H1933     1.0  0.84070  0.53812  0.28096  1.0000
  H   H1934     1.0  0.88231  0.95614  0.37556  1.0000
  C   C1122     1.0  0.88926  0.50761  0.13981  1.0000
  S   S336      1.0  0.75585  0.50426  0.09088  1.0000
  C   C1123     1.0  0.99010  0.87874  0.34742  1.0000
  C   C1124     1.0  0.88508  0.72098  0.08370  1.0000
  C   C1125     1.0  0.96409  0.68533  0.40969  1.0000
  C   C1126     1.0  0.78025  0.58987  0.99867  1.0000
  N   N81       1.0  0.88879  0.71852  0.11693  1.0000
  C   C1127     1.0  0.90625  0.69137  0.12461  1.0000
  H   H1935     1.0  0.94595  0.78668  0.41499  1.0000
  C   C1128     1.0  0.85978  0.71715  0.13295  1.0000
  C   C1129     1.0  0.90465  0.74245  0.12710  1.0000
  C   C1130     1.0  0.91020  0.68344  0.15809  1.0000
  H   H1936     1.0  0.82504  0.52394  0.23551  1.0000
  C   C1131     1.0  0.83401  0.73355  0.11777  1.0000
  C   C1132     1.0  0.85897  0.50074  0.37198  1.0000
  H   H1937     1.0  0.89654  0.67338  0.11525  1.0000
  H   H1938     1.0  0.92843  0.69200  0.11461  1.0000
  H   H1939     1.0  0.85780  0.73480  0.27447  1.0000
  H   H1940     1.0  0.79495  0.64350  0.00245  1.0000
  H   H1941     1.0  0.85341  0.69509  0.13688  1.0000
  H   H1942     1.0  0.86079  0.72454  0.15547  1.0000
  H   H1943     1.0  0.90771  0.73975  0.15151  1.0000
  H   H1944     1.0  0.90361  0.78760  0.13103  1.0000
  H   H1945     1.0  0.92085  0.66195  0.16080  1.0000
  H   H1946     1.0  0.92454  0.69772  0.16774  1.0000
  H   H1947     1.0  0.88961  0.68295  0.17117  1.0000
  C   C1133     1.0  0.89954  0.71806  0.42267  1.0000
  H   H1948     1.0  0.84929  0.92368  0.37166  1.0000
  H   H1949     1.0  0.80906  0.49195  0.27055  1.0000
  H   H1950     1.0  0.92935  0.67246  0.43934  1.0000
  H   H1951     1.0  0.82740  0.94166  0.22993  1.0000
  Fe  Fe168     1.0  0.94551  0.87727  0.47670  1.0000
  H   H1952     1.0  0.87087  0.70464  0.07746  1.0000
  H   H1953     1.0  0.92472  0.77844  0.44758  1.0000
  C   C1134     1.0  0.96768  0.58543  0.45284  1.0000
  N   N82       1.0  0.86109  0.89370  0.18385  1.0000
  C   C1135     1.0  0.86118  0.86205  0.18505  1.0000
  C   C1136     1.0  0.89043  0.90140  0.19211  1.0000
  C   C1137     1.0  0.85503  0.90672  0.15305  1.0000
  C   C1138     1.0  0.83792  0.90447  0.20513  1.0000
  C   C1139     1.0  0.83363  0.84979  0.17527  1.0000
  C   C1140     1.0  0.89718  0.89665  0.22543  1.0000
  C   C1141     1.0  0.87444  0.89543  0.12751  1.0000
  C   C1142     1.0  0.83501  0.93673  0.20711  1.0000
  H   H1954     1.0  0.87932  0.85317  0.17116  1.0000
  H   H1955     1.0  0.86484  0.85280  0.20812  1.0000
  H   H1956     1.0  0.89415  0.92373  0.18510  1.0000
  H   H1957     1.0  0.90760  0.88910  0.17980  1.0000
  H   H1958     1.0  0.83245  0.90451  0.14750  1.0000
  H   H1959     1.0  0.85710  0.92989  0.15195  1.0000
  H   H1960     1.0  0.81650  0.89877  0.19855  1.0000
  H   H1961     1.0  0.83985  0.89389  0.22790  1.0000
  H   H1962     1.0  0.83755  0.82667  0.17464  1.0000
  H   H1963     1.0  0.81549  0.85327  0.19153  1.0000
  H   H1964     1.0  0.82748  0.85793  0.15261  1.0000
  H   H1965     1.0  0.91956  0.90212  0.22839  1.0000
  H   H1966     1.0  0.88316  0.91036  0.23950  1.0000
  H   H1967     1.0  0.89574  0.87437  0.23383  1.0000
  H   H1968     1.0  0.87158  0.87294  0.12457  1.0000
  H   H1969     1.0  0.89742  0.89847  0.13068  1.0000
  H   H1970     1.0  0.86848  0.90728  0.10625  1.0000
  C   C1143     1.0  0.76836  0.97107  0.42783  1.0000
  N   N83       1.0  0.88593  0.51505  0.41780  1.0000
  H   H1971     1.0  0.83161  0.55913  0.00470  1.0000
  N   N84       1.0  0.94234  0.67372  0.29283  1.0000
  C   C1144     1.0  0.96451  0.64916  0.29325  1.0000
  C   C1145     1.0  0.92693  0.67405  0.26405  1.0000
  C   C1146     1.0  0.92161  0.66878  0.31905  1.0000
  C   C1147     1.0  0.95783  0.70012  0.29516  1.0000
  C   C1148     1.0  0.78140  0.53020  0.27877  1.0000
  C   C1149     1.0  0.94572  0.67742  0.23531  1.0000
  C   C1150     1.0  0.89173  0.68462  0.31787  1.0000
  C   C1151     1.0  0.93981  0.72826  0.29345  1.0000
  H   H1972     1.0  0.95466  0.62968  0.28751  1.0000
  H   H1973     1.0  0.85966  0.93956  0.32136  1.0000
  H   H1974     1.0  0.90963  0.69098  0.26216  1.0000
  H   H1975     1.0  0.91586  0.65429  0.26317  1.0000
  H   H1976     1.0  0.91725  0.64606  0.32210  1.0000
  H   H1977     1.0  0.93125  0.67388  0.34003  1.0000
  H   H1978     1.0  0.96847  0.69933  0.31673  1.0000
  H   H1979     1.0  0.97590  0.70181  0.27843  1.0000
  H   H1980     1.0  0.91152  0.77354  0.41110  1.0000
  H   H1981     1.0  0.79502  0.71672  0.25686  1.0000
  H   H1982     1.0  0.86143  0.89395  0.39463  1.0000
  H   H1983     1.0  0.95634  0.69756  0.23366  1.0000
  H   H1984     1.0  0.96167  0.65949  0.23267  1.0000
  S   S337      1.0  0.96429  0.77521  0.16134  1.0000
  S   S338      1.0  0.78529  0.51137  0.42678  1.0000
  H   H1985     1.0  0.86929  0.77437  0.13422  1.0000
  Fe  Fe169     1.0  0.95233  0.82149  0.15828  1.0000
  Fe  Fe170     1.0  0.96613  0.82765  0.22343  1.0000
  H   H1986     1.0  0.75930  0.56986  0.38326  1.0000
  H   H1987     1.0  0.77367  0.88029  0.16830  1.0000
  H   H1988     1.0  0.91826  0.72854  0.37720  1.0000
  H   H1989     1.0  0.99174  0.71680  0.47531  1.0000
  H   H1990     1.0  0.76658  0.73203  0.30105  1.0000
  C   C1152     1.0  0.99076  0.85119  0.33844  1.0000
  H   H1991     1.0  0.91184  0.55054  0.42294  1.0000
  C   C1153     1.0  0.80942  0.54247  0.23287  1.0000
  S   S339      1.0  0.98447  0.90063  0.46141  1.0000
  Fe  Fe171     1.0  0.76112  0.89837  0.24879  1.0000
  S   S340      1.0  0.96715  0.86532  0.25143  1.0000
  H   H1992     1.0  0.93306  0.73728  0.99422  1.0000
  C   C1154     1.0  0.90976  0.49496  0.40717  1.0000
  C   C1155     1.0  0.88273  0.51021  0.45138  1.0000
  H   H1993     1.0  0.88660  0.96439  0.32588  1.0000
  H   H1994     1.0  0.77474  0.74803  0.35866  1.0000
  C   C1156     1.0  0.97460  0.86877  0.28920  1.0000
  H   H1995     1.0  0.98189  0.65291  0.27610  1.0000
  H   H1996     1.0  0.84165  0.86771  0.36225  1.0000
  C   C1157     1.0  0.89285  0.54526  0.41095  1.0000
  H   H1997     1.0  0.88754  0.69970  0.43140  1.0000
  C   C1158     1.0  0.98355  0.84620  0.30913  1.0000
  H   H1998     1.0  0.92898  0.60074  0.43016  1.0000
  H   H1999     1.0  0.97200  0.66284  0.41027  1.0000
  H   H2000     1.0  0.89036  0.51575  0.09310  1.0000
  H   H2001     1.0  0.80512  0.55014  0.32614  1.0000
  C   C1159     1.0  0.95929  0.80684  0.03032  1.0000
  H   H2002     1.0  0.85069  0.52343  0.04940  1.0000
  H   H2003     1.0  0.78196  0.48760  0.29943  1.0000
  C   C1160     1.0  0.78107  0.90009  0.12394  1.0000
  C   C1161     1.0  0.77279  0.89982  0.15453  1.0000
  C   C1162     1.0  0.78497  0.76821  0.35340  1.0000
  H   H2004     1.0  0.99965  0.72539  0.18533  1.0000
  H   H2005     1.0  0.79998  0.90932  0.38235  1.0000
  C   C1163     1.0  0.75463  0.57891  0.24082  1.0000
  H   H2006     1.0  0.98044  0.73688  0.10736  1.0000
  S   S341      1.0  0.99164  0.83206  0.18024  1.0000
  H   H2007     1.0  0.87555  0.55948  0.42009  1.0000
  H   H2008     1.0  0.97335  0.51232  0.05668  1.0000
  H   H2009     1.0  0.78850  0.79666  0.04281  1.0000
  C   C1164     1.0  0.94917  0.80349  0.08365  1.0000
  H   H2010     1.0  0.88783  0.77853  0.09783  1.0000
  H   H2011     1.0  0.76054  0.75565  0.25560  1.0000
  C   C1165     1.0  0.98117  0.90108  0.32742  1.0000
  S   S342      1.0  0.88110  0.58791  0.47301  1.0000
  H   H2012     1.0  0.84231  0.53327  0.10073  1.0000
  C   C1166     1.0  0.94412  0.68997  0.43726  1.0000
  S   S343      1.0  0.82784  0.71528  0.43760  1.0000
  C   C1167     1.0  0.95464  0.79064  0.05693  1.0000
  C   C1168     1.0  0.88276  0.94341  0.31830  1.0000
  C   C1169     1.0  0.89690  0.55565  0.37795  1.0000
  H   H2013     1.0  0.94766  0.51767  0.41684  1.0000
  H   H2014     1.0  0.93794  0.89762  0.37736  1.0000
  C   C1170     1.0  0.85802  0.75405  0.28660  1.0000
  H   H2015     1.0  0.88474  0.73645  0.42790  1.0000
  C   C1171     1.0  0.79034  0.72981  0.30262  1.0000
  C   C1172     1.0  0.82410  0.56443  0.21142  1.0000
  H   H2016     1.0  0.83801  0.75530  0.10943  1.0000
  H   H2017     1.0  0.91431  0.92394  0.42688  1.0000
  H   H2018     1.0  0.95576  0.76805  0.05692  1.0000
  H   H2019     1.0  0.91365  0.49755  0.38272  1.0000
  H   H2020     1.0  0.79437  0.71888  0.32490  1.0000
  H   H2021     1.0  0.92464  0.92659  0.33134  1.0000
  H   H2022     1.0  0.94629  0.79070  0.10402  1.0000
  C   C1173     1.0  0.89836  0.93894  0.38267  1.0000
  C   C1174     1.0  0.85423  0.52187  0.46597  1.0000
  H   H2023     1.0  0.96487  0.63512  0.34134  1.0000
  C   C1175     1.0  0.91703  0.86163  0.36466  1.0000
  H   H2024     1.0  0.92215  0.86315  0.34038  1.0000
  C   C1176     1.0  0.91582  0.89009  0.37881  1.0000
  H   H2025     1.0  0.91093  0.88487  0.40287  1.0000
  C   C1177     1.0  0.80127  0.70918  0.27962  1.0000
  C   C1178     1.0  0.98120  0.49816  0.03914  1.0000
  S   S344      1.0  0.79429  0.51015  0.00760  1.0000
  H   H2026     1.0  0.83686  0.73863  0.32747  1.0000
  Fe  Fe172     1.0  0.78562  0.95746  0.02826  1.0000
  C   C1179     1.0  0.93060  0.77156  0.42507  1.0000
  H   H2027     1.0  0.83758  0.77550  0.32160  1.0000
  C   C1180     1.0  0.83330  0.75639  0.31029  1.0000
  C   C1181     1.0  0.86422  0.90449  0.37188  1.0000
  H   H2028     1.0  0.83554  0.89691  0.33614  1.0000
  H   H2029     1.0  0.78876  0.88067  0.11451  1.0000
  C   C1182     1.0  0.81760  0.72061  0.47522  1.0000
  H   H2030     1.0  0.86849  0.87547  0.33436  1.0000
  H   H2031     1.0  0.98332  0.69776  0.41017  1.0000
  H   H2032     1.0  0.92083  0.69521  0.06424  1.0000
  H   H2033     1.0  0.76932  0.53857  0.29845  1.0000
  H   H2034     1.0  0.83949  0.56429  0.32445  1.0000
  C   C1183     1.0  0.90126  0.71636  0.38862  1.0000
  H   H2035     1.0  0.90233  0.90155  0.32038  1.0000
  H   H2036     1.0  0.84306  0.84804  0.00886  1.0000
  S   S345      1.0  0.96754  0.78921  0.99793  1.0000
  H   H2037     1.0  0.80267  0.49890  0.14309  1.0000
  H   H2038     1.0  0.87873  0.75348  0.29788  1.0000
  C   C1184     1.0  0.90222  0.91995  0.33396  1.0000
  H   H2039     1.0  0.89698  0.85087  0.36982  1.0000
  N   N85       1.0  0.89471  0.91281  0.36645  1.0000
  H   H2040     1.0  0.80681  0.76666  0.36239  1.0000
  H   H2041     1.0  0.92969  0.73056  0.07059  1.0000
  H   H2042     1.0  0.81545  0.73473  0.13382  1.0000
  H   H2043     1.0  0.85551  0.94691  0.20302  1.0000
  Fe  Fe173     1.0  0.99546  0.76434  0.33787  1.0000
  H   H2044     1.0  0.99792  0.73901  0.05674  1.0000
  Fe  Fe174     1.0  0.75943  0.64728  0.11147  1.0000
  C   C1185     1.0  0.79190  0.95430  0.43853  1.0000
  C   C1186     1.0  0.81892  0.56477  0.31290  1.0000
  C   C1187     1.0  0.93772  0.59134  0.45071  1.0000
  C   C1188     1.0  0.97987  0.64190  0.32287  1.0000
  C   C1189     1.0  0.85240  0.88521  0.34965  1.0000
  H   H2045     1.0  0.93804  0.49084  0.44563  1.0000
  H   H2046     1.0  0.88098  0.72595  0.37918  1.0000
  S   S346      1.0  0.98171  0.63669  0.08105  1.0000
  H   H2047     1.0  0.79121  0.53512  0.22092  1.0000
  H   H2048     1.0  0.95347  0.73854  0.40273  1.0000
  S   S347      1.0  0.95031  0.84741  0.44035  1.0000
  H   H2049     1.0  0.81510  0.51247  0.09085  1.0000
  H   H2050     1.0  0.92665  0.74254  0.11682  1.0000
  H   H2051     1.0  0.90987  0.57445  0.37642  1.0000
  C   C1190     1.0  0.89527  0.93569  0.41704  1.0000
  H   H2052     1.0  0.82883  0.81469  0.00509  1.0000
  H   H2053     1.0  0.96123  0.84890  0.00977  1.0000
  C   C1191     1.0  0.97291  0.89608  0.29882  1.0000
  H   H2054     1.0  0.90731  0.72447  0.04074  1.0000
  C   C1192     1.0  0.93905  0.49663  0.42130  1.0000
  H   H2055     1.0  0.82714  0.72227  0.09900  1.0000
  H   H2056     1.0  0.96748  0.72739  0.00919  1.0000
  C   C1193     1.0  0.76785  0.94344  0.38402  1.0000
  H   H2057     1.0  0.87412  0.74145  0.07622  1.0000
  C   C1194     1.0  0.91263  0.71760  0.06404  1.0000
  H   H2058     1.0  0.82468  0.70425  0.28039  1.0000
  H   H2059     1.0  0.99777  0.83386  0.35371  1.0000
  H   H2060     1.0  0.95335  0.69045  0.38840  1.0000
  H   H2061     1.0  0.98186  0.59026  0.43382  1.0000
  C   C1195     1.0  0.75834  0.89258  0.47413  1.0000
  H   H2062     1.0  0.79407  0.77129  0.01605  1.0000
  H   H2063     1.0  0.94348  0.70062  0.00558  1.0000
  Fe  Fe175     1.0  0.00261  0.78566  0.18634  1.0000
  H   H2064     1.0  0.85575  0.58706  0.99651  1.0000
  C   C1196     1.0  0.77297  0.86271  0.47457  1.0000
  C   C1197     1.0  0.76144  0.94993  0.14859  1.0000
  H   H2065     1.0  0.98482  0.48403  0.09730  1.0000
  H   H2066     1.0  0.83003  0.73652  0.98232  1.0000
  H   H2067     1.0  0.88388  0.49180  0.15807  1.0000
  C   C1198     1.0  0.75591  0.60218  0.34707  1.0000
  H   H2068     1.0  0.97908  0.52345  0.99687  1.0000
  H   H2069     1.0  0.90030  0.51967  0.46251  1.0000
  N   N86       1.0  0.76908  0.84002  0.00519  1.0000
  H   H2070     1.0  0.76237  0.68783  0.44225  1.0000
  H   H2071     1.0  0.83695  0.50722  0.46451  1.0000
  C   C1199     1.0  0.77844  0.78782  0.02407  1.0000
  H   H2072     1.0  0.79722  0.87170  0.01681  1.0000
  H   H2073     1.0  0.00034  0.53759  0.02297  1.0000
  H   H2074     1.0  0.99799  0.76927  0.10226  1.0000
  H   H2075     1.0  0.75763  0.79170  0.26587  1.0000
  C   C1200     1.0  0.86336  0.50326  0.04686  1.0000
  C   C1201     1.0  0.88455  0.49774  0.10871  1.0000
  H   H2076     1.0  0.88667  0.50646  0.04612  1.0000
  H   H2077     1.0  0.90651  0.74277  0.47282  1.0000
  C   C1202     1.0  0.92035  0.72312  0.47063  1.0000
  S   S348      1.0  0.81726  0.95629  0.98884  1.0000
  C   C1203     1.0  0.84270  0.57176  0.98668  1.0000
  C   C1204     1.0  0.00153  0.74611  0.10292  1.0000
  C   C1205     1.0  0.99510  0.51744  0.01416  1.0000
  S   S349      1.0  0.99983  0.68145  0.14514  1.0000
  H   H2078     1.0  0.75383  0.96940  0.15798  1.0000
  H   H2079     1.0  0.75717  0.88380  0.04526  1.0000
  H   H2080     1.0  0.76476  0.88089  0.98082  1.0000
  H   H2081     1.0  0.75349  0.62566  0.01625  1.0000
  C   C1206     1.0  0.97934  0.57325  0.47949  1.0000
  H   H2082     1.0  0.89441  0.89595  0.98071  1.0000
  H   H2083     1.0  0.83025  0.88530  0.94612  1.0000
  H   H2084     1.0  0.93297  0.91483  0.92648  1.0000
  H   H2085     1.0  0.93242  0.75358  0.88583  1.0000
  H   H2086     1.0  0.89105  0.66348  0.93863  1.0000
  S   S350      1.0  0.75834  0.70819  0.91464  1.0000
  S   S351      1.0  0.96474  0.65443  0.69477  1.0000
  H   H2087     1.0  0.80670  0.68556  0.54321  1.0000
  Fe  Fe176     1.0  0.79883  0.62042  0.70517  1.0000
  S   S352      1.0  0.80966  0.57386  0.71311  1.0000
  S   S353      1.0  0.82815  0.65691  0.69918  1.0000
  Fe  Fe177     1.0  0.77427  0.56955  0.68115  1.0000
  H   H2088     1.0  0.78607  0.74910  0.63900  1.0000
  Fe  Fe178     1.0  0.77494  0.57525  0.74975  1.0000
  C   C1207     1.0  0.83467  0.64667  0.97800  1.0000
  H   H2089     1.0  0.80739  0.73631  0.93344  1.0000
  S   S354      1.0  0.76650  0.62208  0.74371  1.0000
  H   H2090     1.0  0.91034  0.92752  0.84676  1.0000
  Fe  Fe179     1.0  0.77902  0.95307  0.96094  1.0000
  H   H2091     1.0  0.95997  0.65083  0.55113  1.0000
  C   C1208     1.0  0.84408  0.70571  0.79440  1.0000
  C   C1209     1.0  0.83038  0.71491  0.86157  1.0000
  S   S355      1.0  0.82477  0.95605  0.62432  1.0000
  H   H2092     1.0  0.89940  0.76648  0.90215  1.0000
  Fe  Fe180     1.0  0.85906  0.78021  0.76359  1.0000
  S   S356      1.0  0.82184  0.77001  0.73742  1.0000
  S   S357      1.0  0.89936  0.75265  0.75308  1.0000
  Fe  Fe181     1.0  0.82397  0.82946  0.79073  1.0000
  S   S358      1.0  0.78435  0.82063  0.76727  1.0000
  S   S359      1.0  0.82827  0.87269  0.80877  1.0000
  Fe  Fe182     1.0  0.79499  0.77439  0.77952  1.0000
  Fe  Fe183     1.0  0.81360  0.81628  0.72696  1.0000
  S   S360      1.0  0.80257  0.83217  0.67957  1.0000
  S   S361      1.0  0.83322  0.78342  0.80644  1.0000
  S   S362      1.0  0.85283  0.82638  0.74950  1.0000
  Fe  Fe184     1.0  0.97200  0.84590  0.90038  1.0000
  S   S363      1.0  0.97571  0.80041  0.91485  1.0000
  C   C1210     1.0  0.96417  0.71646  0.96348  1.0000
  H   H2093     1.0  0.83076  0.79043  0.58502  1.0000
  H   H2094     1.0  0.82433  0.66582  0.96649  1.0000
  H   H2095     1.0  0.77529  0.75598  0.67626  1.0000
  C   C1211     1.0  0.76433  0.54851  0.89672  1.0000
  H   H2096     1.0  0.87228  0.61053  0.69814  1.0000
  C   C1212     1.0  0.78142  0.56087  0.59138  1.0000
  H   H2097     1.0  0.98998  0.93522  0.56063  1.0000
  H   H2098     1.0  0.82703  0.74755  0.67140  1.0000
  H   H2099     1.0  0.86707  0.93273  0.87961  1.0000
  S   S364      1.0  0.78351  0.87545  0.55246  1.0000
  H   H2100     1.0  0.84884  0.63523  0.96214  1.0000
  H   H2101     1.0  0.86743  0.70082  0.69521  1.0000
  H   H2102     1.0  0.84715  0.78983  0.63927  1.0000
  C   C1213     1.0  0.79843  0.75241  0.51215  1.0000
  C   C1214     1.0  0.79813  0.72497  0.95283  1.0000
  H   H2103     1.0  0.91357  0.95618  0.86953  1.0000
  C   C1215     1.0  0.75431  0.64490  0.52644  1.0000
  C   C1216     1.0  0.91269  0.93301  0.87007  1.0000
  S   S365      1.0  0.93398  0.85877  0.87239  1.0000
  H   H2104     1.0  0.92041  0.70069  0.69356  1.0000
  H   H2105     1.0  0.77467  0.63165  0.52428  1.0000
  Fe  Fe185     1.0  0.77585  0.80744  0.89478  1.0000
  S   S366      1.0  0.81572  0.81342  0.92050  1.0000
  S   S367      1.0  0.77418  0.77827  0.85806  1.0000
  C   C1217     1.0  0.76780  0.51309  0.56316  1.0000
  C   C1218     1.0  0.90451  0.69977  0.48887  1.0000
  H   H2106     1.0  0.78817  0.67693  0.65732  1.0000
  C   C1219     1.0  0.91472  0.60480  0.61545  1.0000
  H   H2107     1.0  0.94583  0.69238  0.57354  1.0000
  H   H2108     1.0  0.75973  0.59368  0.88914  1.0000
  C   C1220     1.0  0.89581  0.94202  0.58851  1.0000
  H   H2109     1.0  0.76300  0.86216  0.72221  1.0000
  C   C1221     1.0  0.81798  0.69847  0.49745  1.0000
  C   C1222     1.0  0.80724  0.70304  0.52652  1.0000
  H   H2110     1.0  0.90626  0.65352  0.53961  1.0000
  C   C1223     1.0  0.91894  0.63376  0.54581  1.0000
  C   C1224     1.0  0.95662  0.94946  0.52822  1.0000
  C   C1225     1.0  0.84410  0.77335  0.59675  1.0000
  C   C1226     1.0  0.76687  0.51307  0.59454  1.0000
  H   H2111     1.0  0.82918  0.75826  0.60766  1.0000
  H   H2112     1.0  0.89254  0.64465  0.60289  1.0000
  H   H2113     1.0  0.99412  0.71605  0.87973  1.0000
  H   H2114     1.0  0.79221  0.77347  0.51772  1.0000
  H   H2115     1.0  0.89066  0.92252  0.60210  1.0000
  C   C1227     1.0  0.87233  0.89141  0.50845  1.0000
  C   C1228     1.0  0.85363  0.91287  0.51866  1.0000
  C   C1229     1.0  0.82710  0.90710  0.53239  1.0000
  C   C1230     1.0  0.81827  0.87967  0.53590  1.0000
  C   C1231     1.0  0.83681  0.85762  0.52573  1.0000
  C   C1232     1.0  0.86407  0.86347  0.51225  1.0000
  H   H2116     1.0  0.85939  0.93443  0.51519  1.0000
  H   H2117     1.0  0.81299  0.92433  0.53969  1.0000
  H   H2118     1.0  0.83009  0.83630  0.52799  1.0000
  H   H2119     1.0  0.76996  0.50347  0.89613  1.0000
  C   C1233     1.0  0.90301  0.84120  0.88449  1.0000
  C   C1234     1.0  0.88071  0.83962  0.86491  1.0000
  C   C1235     1.0  0.85478  0.82824  0.87500  1.0000
  C   C1236     1.0  0.85016  0.82036  0.90520  1.0000
  C   C1237     1.0  0.87302  0.82043  0.92449  1.0000
  C   C1238     1.0  0.89953  0.83042  0.91408  1.0000
  H   H2120     1.0  0.88294  0.84795  0.84208  1.0000
  H   H2121     1.0  0.83797  0.82680  0.85960  1.0000
  N   N87       1.0  0.94330  0.71312  0.93940  1.0000
  C   C1239     1.0  0.89895  0.81369  0.63610  1.0000
  C   C1240     1.0  0.92455  0.73243  0.77574  1.0000
  C   C1241     1.0  0.94507  0.71439  0.76194  1.0000
  C   C1242     1.0  0.96727  0.69982  0.77804  1.0000
  C   C1243     1.0  0.96859  0.70217  0.80866  1.0000
  C   C1244     1.0  0.94726  0.71928  0.82283  1.0000
  C   C1245     1.0  0.92534  0.73437  0.80655  1.0000
  H   H2122     1.0  0.94360  0.71136  0.73862  1.0000
  H   H2123     1.0  0.98299  0.68647  0.76669  1.0000
  H   H2124     1.0  0.94810  0.72143  0.84636  1.0000
  H   H2125     1.0  0.90957  0.74797  0.81768  1.0000
  C   C1246     1.0  0.81743  0.92188  0.63961  1.0000
  C   C1247     1.0  0.80438  0.90285  0.62326  1.0000
  C   C1248     1.0  0.79924  0.87574  0.63606  1.0000
  C   C1249     1.0  0.80754  0.86718  0.66516  1.0000
  C   C1250     1.0  0.82048  0.88630  0.68164  1.0000
  C   C1251     1.0  0.82532  0.91353  0.66892  1.0000
  H   H2126     1.0  0.79891  0.90880  0.60049  1.0000
  H   H2127     1.0  0.78935  0.86117  0.62298  1.0000
  H   H2128     1.0  0.82707  0.87998  0.70403  1.0000
  H   H2129     1.0  0.78698  0.57925  0.60203  1.0000
  C   C1252     1.0  0.79065  0.90676  0.89629  1.0000
  C   C1253     1.0  0.80712  0.92363  0.87642  1.0000
  C   C1254     1.0  0.81897  0.91277  0.84990  1.0000
  C   C1255     1.0  0.81396  0.88527  0.84283  1.0000
  C   C1256     1.0  0.79685  0.86896  0.86233  1.0000
  C   C1257     1.0  0.78592  0.87945  0.88916  1.0000
  H   H2130     1.0  0.81059  0.94493  0.88140  1.0000
  H   H2131     1.0  0.83183  0.92577  0.83466  1.0000
  C   C1258     1.0  0.96066  0.70386  0.91244  1.0000
  S   S368      1.0  0.78003  0.53724  0.50617  1.0000
  H   H2132     1.0  0.88600  0.89980  0.88522  1.0000
  S   S369      1.0  0.90489  0.90200  0.49057  1.0000
  H   H2133     1.0  0.85814  0.92332  0.96028  1.0000
  H   H2134     1.0  0.91330  0.83100  0.63054  1.0000
  Fe  Fe186     1.0  0.98686  0.81406  0.95895  1.0000
  H   H2135     1.0  0.98596  0.56180  0.82793  1.0000
  H   H2136     1.0  0.97967  0.69782  0.96571  1.0000
  H   H2137     1.0  0.77612  0.69229  0.70257  1.0000
  C   C1259     1.0  0.91329  0.90566  0.96954  1.0000
  H   H2138     1.0  0.82383  0.84276  0.97639  1.0000
  Fe  Fe187     1.0  0.99062  0.69355  0.68871  1.0000
  N   N88       1.0  0.93505  0.96056  0.55102  1.0000
  H   H2139     1.0  0.89446  0.59730  0.60768  1.0000
  H   H2140     1.0  0.91336  0.92172  0.55008  1.0000
  H   H2141     1.0  0.79234  0.84804  0.85699  1.0000
  H   H2142     1.0  0.77386  0.86618  0.90476  1.0000
  H   H2143     1.0  0.94029  0.72609  0.48247  1.0000
  H   H2144     1.0  0.95793  0.73481  0.53143  1.0000
  S   S370      1.0  0.97963  0.85997  0.94565  1.0000
  H   H2145     1.0  0.82719  0.72248  0.79863  1.0000
  C   C1260     1.0  0.92675  0.65555  0.69512  1.0000
  C   C1261     1.0  0.91286  0.63020  0.69595  1.0000
  C   C1262     1.0  0.88270  0.63018  0.69728  1.0000
  C   C1263     1.0  0.86612  0.65561  0.69723  1.0000
  C   C1264     1.0  0.87999  0.68098  0.69543  1.0000
  C   C1265     1.0  0.91013  0.68098  0.69450  1.0000
  H   H2146     1.0  0.92534  0.61045  0.69508  1.0000
  H   H2147     1.0  0.97068  0.56114  0.73239  1.0000
  S   S371      1.0  0.76553  0.61603  0.67091  1.0000
  N   N89       1.0  0.94332  0.82985  0.77162  1.0000
  C   C1266     1.0  0.95031  0.80169  0.78812  1.0000
  C   C1267     1.0  0.93156  0.82431  0.74205  1.0000
  C   C1268     1.0  0.92013  0.84479  0.78994  1.0000
  C   C1269     1.0  0.97007  0.84606  0.76841  1.0000
  C   C1270     1.0  0.96007  0.80225  0.82045  1.0000
  C   C1271     1.0  0.95106  0.80555  0.72218  1.0000
  C   C1272     1.0  0.90835  0.87399  0.77760  1.0000
  C   C1273     1.0  0.97191  0.86873  0.74217  1.0000
  H   H2148     1.0  0.93136  0.78877  0.78901  1.0000
  H   H2149     1.0  0.96764  0.78945  0.77629  1.0000
  H   H2150     1.0  0.92604  0.84409  0.72850  1.0000
  H   H2151     1.0  0.91124  0.81354  0.74567  1.0000
  H   H2152     1.0  0.90146  0.83141  0.79408  1.0000
  H   H2153     1.0  0.92793  0.84832  0.81221  1.0000
  H   H2154     1.0  0.99103  0.88087  0.74479  1.0000
  H   H2155     1.0  0.77959  0.64253  0.90865  1.0000
  H   H2156     1.0  0.96971  0.78110  0.82786  1.0000
  H   H2157     1.0  0.97661  0.81751  0.82258  1.0000
  H   H2158     1.0  0.94159  0.80672  0.83604  1.0000
  H   H2159     1.0  0.95233  0.78334  0.73142  1.0000
  H   H2160     1.0  0.94186  0.80550  0.69986  1.0000
  H   H2161     1.0  0.97292  0.81296  0.71884  1.0000
  H   H2162     1.0  0.92412  0.89004  0.77964  1.0000
  H   H2163     1.0  0.88937  0.88054  0.79171  1.0000
  H   H2164     1.0  0.90085  0.87424  0.75458  1.0000
  H   H2165     1.0  0.97507  0.85930  0.72043  1.0000
  H   H2166     1.0  0.86974  0.97810  0.88905  1.0000
  H   H2167     1.0  0.95314  0.88397  0.74104  1.0000
  N   N90       1.0  0.97922  0.58880  0.76656  1.0000
  C   C1274     1.0  0.95097  0.58073  0.78131  1.0000
  C   C1275     1.0  0.97880  0.58237  0.73428  1.0000
  C   C1276     1.0  0.98171  0.61983  0.76964  1.0000
  C   C1277     1.0  0.92352  0.59246  0.76542  1.0000
  H   H2168     1.0  0.90450  0.61822  0.55660  1.0000
  C   C1278     1.0  0.85920  0.91870  0.93650  1.0000
  H   H2169     1.0  0.94998  0.55738  0.78366  1.0000
  H   H2170     1.0  0.94874  0.58778  0.80438  1.0000
  S   S372      1.0  0.77274  0.53519  0.64854  1.0000
  H   H2171     1.0  0.96385  0.59762  0.72207  1.0000
  H   H2172     1.0  0.96565  0.63253  0.75594  1.0000
  H   H2173     1.0  0.96773  0.96646  0.51543  1.0000
  H   H2174     1.0  0.92086  0.58188  0.74465  1.0000
  H   H2175     1.0  0.90444  0.58805  0.78016  1.0000
  H   H2176     1.0  0.92303  0.61552  0.76026  1.0000
  C   C1279     1.0  0.91482  0.74774  0.90189  1.0000
  H   H2177     1.0  0.77789  0.50392  0.84120  1.0000
  N   N91       1.0  0.88758  0.92628  0.92214  1.0000
  H   H2178     1.0  0.90966  0.68356  0.57213  1.0000
  C   C1280     1.0  0.96074  0.56688  0.50383  1.0000
  H   H2179     1.0  0.90144  0.70565  0.51225  1.0000
  H   H2180     1.0  0.91147  0.69558  0.97078  1.0000
  H   H2181     1.0  0.92724  0.62531  0.52457  1.0000
  H   H2182     1.0  0.97045  0.68210  0.91686  1.0000
  C   C1281     1.0  0.89223  0.95640  0.92774  1.0000
  H   H2183     1.0  0.79115  0.70152  0.62638  1.0000
  H   H2184     1.0  0.93260  0.59408  0.60309  1.0000
  S   S373      1.0  0.97598  0.78116  0.62079  1.0000
  H   H2185     1.0  0.99166  0.96942  0.95221  1.0000
  H   H2186     1.0  0.91428  0.96201  0.92029  1.0000
  C   C1282     1.0  0.92415  0.68997  0.95037  1.0000
  H   H2187     1.0  0.93742  0.67033  0.95690  1.0000
  C   C1283     1.0  0.94470  0.63797  0.56512  1.0000
  H   H2188     1.0  0.80408  0.61228  0.91046  1.0000
  H   H2189     1.0  0.91135  0.88580  0.92815  1.0000
  C   C1284     1.0  0.90163  0.68234  0.92876  1.0000
  C   C1285     1.0  0.79657  0.72994  0.53377  1.0000
  H   H2190     1.0  0.93734  0.70328  0.62715  1.0000
  H   H2191     1.0  0.76750  0.65938  0.61531  1.0000
  H   H2192     1.0  0.91203  0.78079  0.59014  1.0000
  H   H2193     1.0  0.86495  0.83631  0.66253  1.0000
  C   C1286     1.0  0.78065  0.62070  0.95266  1.0000
  C   C1287     1.0  0.76405  0.57404  0.87882  1.0000
  H   H2194     1.0  0.93230  0.89185  0.97628  1.0000
  H   H2195     1.0  0.84065  0.83415  0.61773  1.0000
  H   H2196     1.0  0.78936  0.57913  0.54665  1.0000
  H   H2197     1.0  0.85167  0.83247  0.57985  1.0000
  C   C1288     1.0  0.96939  0.75249  0.57175  1.0000
  H   H2198     1.0  0.81129  0.56995  0.95311  1.0000
  H   H2199     1.0  0.87650  0.76611  0.62972  1.0000
  C   C1289     1.0  0.86249  0.78433  0.62066  1.0000
  H   H2200     1.0  0.81311  0.63156  0.80418  1.0000
  H   H2201     1.0  0.88558  0.79620  0.56535  1.0000
  H   H2202     1.0  0.76293  0.95424  0.61932  1.0000
  H   H2203     1.0  0.89955  0.96539  0.52131  1.0000
  H   H2204     1.0  0.90680  0.74194  0.94937  1.0000
  C   C1290     1.0  0.85997  0.83409  0.60238  1.0000
  C   C1291     1.0  0.92840  0.68161  0.58665  1.0000
  C   C1292     1.0  0.98539  0.72240  0.90167  1.0000
  H   H2205     1.0  0.91107  0.67678  0.90684  1.0000
  H   H2206     1.0  0.94554  0.93897  0.51102  1.0000
  H   H2207     1.0  0.89083  0.95946  0.95202  1.0000
  C   C1293     1.0  0.91370  0.63741  0.61228  1.0000
  H   H2208     1.0  0.79900  0.92008  0.73988  1.0000
  H   H2209     1.0  0.86233  0.87763  0.58470  1.0000
  H   H2210     1.0  0.00049  0.54809  0.77814  1.0000
  N   N92       1.0  0.93764  0.65104  0.59429  1.0000
  C   C1294     1.0  0.87173  0.86361  0.60309  1.0000
  H   H2211     1.0  0.81107  0.70477  0.87126  1.0000
  C   C1295     1.0  0.93088  0.57182  0.50135  1.0000
  H   H2212     1.0  0.90471  0.67424  0.82374  1.0000
  H   H2213     1.0  0.91264  0.64460  0.63524  1.0000
  S   S374      1.0  0.76725  0.80730  0.60617  1.0000
  N   N93       1.0  0.88017  0.80897  0.61066  1.0000
  H   H2214     1.0  0.86422  0.87348  0.62383  1.0000
  C   C1296     1.0  0.88693  0.92241  0.88925  1.0000
  H   H2215     1.0  0.76895  0.59421  0.83429  1.0000
  H   H2216     1.0  0.89781  0.82818  0.68098  1.0000
  H   H2217     1.0  0.78012  0.85386  0.95945  1.0000
  C   C1297     1.0  0.86363  0.65752  0.81224  1.0000
  H   H2218     1.0  0.91614  0.59718  0.63929  1.0000
  H   H2219     1.0  0.81266  0.72119  0.69672  1.0000
  S   S375      1.0  0.97031  0.85001  0.50975  1.0000
  C   C1298     1.0  0.75505  0.67717  0.62539  1.0000
  H   H2220     1.0  0.98216  0.66023  0.59752  1.0000
  C   C1299     1.0  0.88279  0.82008  0.66569  1.0000
  H   H2221     1.0  0.90793  0.84094  0.55974  1.0000
  C   C1300     1.0  0.91961  0.82219  0.57057  1.0000
  C   C1301     1.0  0.96934  0.75084  0.54079  1.0000
  H   H2222     1.0  0.79880  0.93836  0.77371  1.0000
  H   H2223     1.0  0.91695  0.67916  0.48952  1.0000
  C   C1302     1.0  0.97677  0.62172  0.62485  1.0000
  Fe  Fe188     1.0  0.75804  0.83800  0.56707  1.0000
  H   H2224     1.0  0.81295  0.64471  0.92553  1.0000
  H   H2225     1.0  0.96932  0.55713  0.52431  1.0000
  H   H2226     1.0  0.98046  0.60579  0.60829  1.0000
  C   C1303     1.0  0.96468  0.65056  0.61162  1.0000
  C   C1304     1.0  0.89886  0.80061  0.58420  1.0000
  H   H2227     1.0  0.89524  0.86440  0.60035  1.0000
  H   H2228     1.0  0.82353  0.73265  0.84574  1.0000
  H   H2229     1.0  0.87438  0.80076  0.67718  1.0000
  H   H2230     1.0  0.93495  0.82827  0.58671  1.0000
  C   C1305     1.0  0.76170  0.69598  0.97565  1.0000
  N   N94       1.0  0.76229  0.71613  0.66217  1.0000
  C   C1306     1.0  0.99808  0.79133  0.53424  1.0000
  H   H2231     1.0  0.84761  0.67646  0.75751  1.0000
  H   H2232     1.0  0.97734  0.73487  0.95768  1.0000
  H   H2233     1.0  0.86351  0.64139  0.83143  1.0000
  C   C1307     1.0  0.91189  0.90760  0.93519  1.0000
  C   C1308     1.0  0.76964  0.52331  0.88284  1.0000
  H   H2234     1.0  0.96142  0.66344  0.63109  1.0000
  H   H2235     1.0  0.85425  0.71154  0.74688  1.0000
  H   H2236     1.0  0.94703  0.70234  0.89322  1.0000
  H   H2237     1.0  0.81799  0.70257  0.75532  1.0000
  C   C1309     1.0  0.78273  0.56075  0.55999  1.0000
  C   C1310     1.0  0.82168  0.58658  0.96421  1.0000
  C   C1311     1.0  0.84056  0.69826  0.76204  1.0000
  H   H2238     1.0  0.90343  0.73064  0.89330  1.0000
  C   C1312     1.0  0.77545  0.69302  0.64349  1.0000
  H   H2239     1.0  0.85714  0.64621  0.79323  1.0000
  H   H2240     1.0  0.85012  0.88192  0.91202  1.0000
  S   S376      1.0  0.97322  0.73810  0.69283  1.0000
  H   H2241     1.0  0.90825  0.64505  0.80127  1.0000
  H   H2242     1.0  0.91661  0.83132  0.92943  1.0000
  Fe  Fe189     1.0  0.80932  0.97881  0.58075  1.0000
  C   C1313     1.0  0.85173  0.88789  0.93520  1.0000
  H   H2243     1.0  0.82447  0.71299  0.65938  1.0000
  S   S377      1.0  0.99393  0.68124  0.83055  1.0000
  C   C1314     1.0  0.79569  0.63051  0.92290  1.0000
  H   H2244     1.0  0.91394  0.79486  0.64087  1.0000
  H   H2245     1.0  0.91090  0.72074  0.60409  1.0000
  H   H2246     1.0  0.95643  0.61717  0.56831  1.0000
  C   C1315     1.0  0.98259  0.77121  0.52207  1.0000
  H   H2247     1.0  0.89697  0.67868  0.78444  1.0000
  C   C1316     1.0  0.89504  0.66469  0.80514  1.0000
  H   H2248     1.0  0.93284  0.81236  0.55257  1.0000
  S   S378      1.0  0.76900  0.73454  0.78645  1.0000
  S   S379      1.0  0.97542  0.77545  0.48426  1.0000
  H   H2249     1.0  0.83559  0.92810  0.68171  1.0000
  C   C1317     1.0  0.77371  0.54910  0.83361  1.0000
  H   H2250     1.0  0.86983  0.81387  0.94784  1.0000
  C   C1318     1.0  0.78332  0.73888  0.66191  1.0000
  C   C1319     1.0  0.77363  0.71006  0.95004  1.0000
  H   H2251     1.0  0.80333  0.66144  0.77852  1.0000
  C   C1320     1.0  0.78941  0.93835  0.75148  1.0000
  H   H2252     1.0  0.76520  0.96244  0.67217  1.0000
  H   H2253     1.0  0.97830  0.74487  0.89879  1.0000
  H   H2254     1.0  0.82638  0.67775  0.49237  1.0000
  H   H2255     1.0  0.93721  0.92189  0.57978  1.0000
  H   H2256     1.0  0.97189  0.90709  0.54586  1.0000
  H   H2257     1.0  0.77888  0.64996  0.80725  1.0000
  C   C1321     1.0  0.98023  0.92823  0.54065  1.0000
  H   H2258     1.0  0.87614  0.94906  0.57640  1.0000
  C   C1322     1.0  0.81289  0.67264  0.82394  1.0000
  H   H2259     1.0  0.90148  0.69073  0.62717  1.0000
  C   C1323     1.0  0.77617  0.53680  0.54569  1.0000
  C   C1324     1.0  0.80199  0.65284  0.80192  1.0000
  H   H2260     1.0  0.85712  0.52388  0.49009  1.0000
  S   S380      1.0  0.75728  0.54929  0.93602  1.0000
  H   H2261     1.0  0.84120  0.93174  0.92612  1.0000
  N   N95       1.0  0.84301  0.68220  0.81863  1.0000
  H   H2262     1.0  0.85627  0.67607  0.86454  1.0000
  H   H2263     1.0  0.86426  0.71682  0.79479  1.0000
  H   H2264     1.0  0.81070  0.66125  0.84636  1.0000
  C   C1325     1.0  0.99689  0.79386  0.56492  1.0000
  C   C1326     1.0  0.77390  0.53682  0.60886  1.0000
  Fe  Fe190     1.0  0.76072  0.51259  0.97240  1.0000
  H   H2265     1.0  0.87828  0.84664  0.50423  1.0000
  H   H2266     1.0  0.84059  0.72404  0.88021  1.0000
  C   C1327     1.0  0.85200  0.69353  0.84715  1.0000
  H   H2267     1.0  0.93809  0.75891  0.93867  1.0000
  H   H2268     1.0  0.87246  0.70423  0.84353  1.0000
  H   H2269     1.0  0.79705  0.69111  0.82424  1.0000
  H   H2270     1.0  0.76471  0.60602  0.94644  1.0000
  H   H2271     1.0  0.95827  0.73768  0.58644  1.0000
  H   H2272     1.0  0.83516  0.59686  0.94636  1.0000
  Fe  Fe191     1.0  0.99716  0.74709  0.65006  1.0000
  H   H2273     1.0  0.99798  0.62442  0.63429  1.0000
  C   C1328     1.0  0.91919  0.69961  0.61311  1.0000
  S   S381      1.0  0.77973  0.73446  0.56930  1.0000
  C   C1329     1.0  0.92584  0.74071  0.93367  1.0000
  H   H2274     1.0  0.93338  0.92273  0.87751  1.0000
  H   H2275     1.0  0.88440  0.69937  0.92608  1.0000
  C   C1330     1.0  0.77418  0.52365  0.85158  1.0000
  H   H2276     1.0  0.85746  0.76154  0.58033  1.0000
  C   C1331     1.0  0.81347  0.72921  0.67297  1.0000
  S   S382      1.0  0.77794  0.54767  0.79400  1.0000
  C   C1332     1.0  0.76903  0.57440  0.84758  1.0000
  C   C1333     1.0  0.75546  0.97917  0.65663  1.0000
  H   H2277     1.0  0.97337  0.85651  0.78922  1.0000
  H   H2278     1.0  0.77888  0.88311  0.76597  1.0000
  H   H2279     1.0  0.96295  0.61366  0.64375  1.0000
  H   H2280     1.0  0.91672  0.56594  0.52009  1.0000
  C   C1334     1.0  0.92128  0.93542  0.56663  1.0000
  H   H2281     1.0  0.79610  0.95755  0.73825  1.0000
  H   H2282     1.0  0.97572  0.62563  0.79269  1.0000
  C   C1335     1.0  0.98195  0.77480  0.58354  1.0000
  S   S383      1.0  0.77438  0.91834  0.92988  1.0000
  H   H2283     1.0  0.86705  0.87308  0.94740  1.0000
  H   H2284     1.0  0.76662  0.90278  0.49326  1.0000
  H   H2285     1.0  0.98942  0.83154  0.76555  1.0000
  H   H2286     1.0  0.84886  0.97756  0.92393  1.0000
  H   H2287     1.0  0.76888  0.67228  0.48999  1.0000
  C   C1336     1.0  0.87071  0.97890  0.91349  1.0000
  H   H2288     1.0  0.76369  0.89885  0.71273  1.0000
  H   H2289     1.0  0.78641  0.80592  0.97889  1.0000
  H   H2290     1.0  0.76783  0.63927  0.96074  1.0000
  S   S384      1.0  0.76974  0.97531  0.55463  1.0000
  H   H2291     1.0  0.99762  0.92572  0.52332  1.0000
  C   C1337     1.0  0.75710  0.70521  0.69416  1.0000
  H   H2292     1.0  0.77450  0.91026  0.80629  1.0000
  H   H2293     1.0  0.75695  0.65876  0.54467  1.0000
  H   H2294     1.0  0.76766  0.85029  0.49552  1.0000
  C   C1338     1.0  0.75576  0.88689  0.76086  1.0000
  C   C1339     1.0  0.80861  0.74775  0.48299  1.0000
  H   H2295     1.0  0.85776  0.55694  0.97494  1.0000
  H   H2296     1.0  0.75426  0.72279  0.70922  1.0000
  N   N96       1.0  0.79917  0.60684  0.97704  1.0000
  H   H2297     1.0  0.99711  0.93731  0.93431  1.0000
  H   H2298     1.0  0.76272  0.49453  0.55253  1.0000
  C   C1340     1.0  0.76332  0.85828  0.97702  1.0000
  C   C1341     1.0  0.94836  0.97666  0.57407  1.0000
  H   H2299     1.0  0.76092  0.49439  0.60782  1.0000
  H   H2300     1.0  0.95749  0.96171  0.59193  1.0000
  H   H2301     1.0  0.90044  0.95784  0.60418  1.0000
  C   C1342     1.0  0.91170  0.97848  0.53535  1.0000
  C   C1343     1.0  0.75628  0.93899  0.75354  1.0000
  Fe  Fe192     1.0  0.75379  0.77561  0.57553  1.0000
  H   H2302     1.0  0.00273  0.59496  0.82193  1.0000
  C   C1344     1.0  0.00265  0.57066  0.78195  1.0000
  H   H2303     1.0  0.88280  0.69757  0.48057  1.0000
  H   H2304     1.0  0.91592  0.92638  0.97833  1.0000
