data_image0
_chemical_formula_structural       FeSHFeS2FeSFeS3HSC2SFeS2H2C3H7NHC2H2CH2C6H4CH2C2H4C4H2C4SHFeCHCH4CSH11SH2C4HCH3C2H3CHCHSH2CH2CH3C3NCH3C2H3C2NHSC2HC2NHCH5CH10CH5C2H8CH2C2H3CH2CHCHFeHCH2C2HSFeS2FeSNFeHFeS3FeS2FeS2FeCFeS3FeS2CHCS2CFeS2CH4CSCH5CHCH3CHCHC6H6C6H8CH8CHCH3NCHCH3CH2CH3NHC2HFeHCHSH5C2H9CH2NH2CHCH3CH3SC2H4FeC4H3C2HNCSCH2CHCHCHC2H2C3H3CH3CHCH4CH2NCHC2H3CHC2FeH5SH2C3HCHCH4C3H2CHC3SCH2NH3NCHCHCH6FeH3CH2CHCSC4H2CHCH13FeS2FeS2FeSFeS3FeS2FeS2FeSFeS3FeS2FeS2HCHCHCH4C2H2C3HC6H4C2HC3HC7H10C2H7CH11CH4CH2SCHCHC3H3CNC8H9CH2CH7CHC2HCHCH3C3H10NCH3CH2CSCH2NCH3CHC3H10CH2CH4NCHSH6FeSHFeS2FeSFeS3CHFeHSC2HFeS2H2FeHCH2CH2SH4CH3CH2C2H3C2NCH2C6H4CH3C2HC2HC3H2CHCH2CH2NC7H19FeH4CH4CHC2NH4CH12CH2CH4C3SCH3CNH2C2HCSCH3C2SHCSH2NH2SC2H2CSCS2CHC2HCH2SHC2H2CFeCH2CH2C3H2C2H2SHC2FeH2FeS2FeHFeS3CSFeS2H7CH2CH2C6H4C2FeH2C2SH2SH2C3H4SH8C2HCHCHC2HCH2CH3SCHNFeCHCH2CHNHCH2CHCH2CH4CHCH4C2H2CSHC3H2CH4C2HFeS2FeS2FeSFeS3HFeS2FeS2FeSFeS3FeS2H2CHFeH4CH2C3H2C6H4C6H4C6H7C3NH4CH6C2H7CH2CHC3H2CH5CH4CH5C2NC8H17CHCH4SHCH2CNH2CH3C2HC4H4C2HC2H5C5NHCH3CSC2HCH2SH5CFeHCFeS2FeS2FeSFeS3FeS2FeS2FeSFeS3FeS2CH2C4HC2H2C6H4C6H4C6H3C4H3C4N2H3NC8H16CH3CH6C2HNH4SNCH4NC8H22C2HCHC2H2C2H5CH3CHCHC3H12SCHC2H3CH7CH2CH2CH3CHCHCH3CHCH7CH4SHCFeSHFe2SFeCS4CH2FeSH8C3HC2H2FeHC2HC3H6C3H2C2H4FeH4CHCH4C2H5C4HCH3NCHCHCHC2HC2HCH3NH2CH3NH3CH2SHC3HSH5SHCHCH2CH2C3H5SN2S2CH3CHC2H3CHCHFeSHFeSC2H2S2NHC3HCHC4H5NH2FeH3CH3CH2CHCH2NFeCH4CHSH2CH3SHCH2C3H2CH3CHSH3CH4C4H5C2HFeCHCH4C2HCHCH4CSHC2SHC3H3CHSCHCH2CFeS2FeS2FeSFeS3FeS2FeSHFeSFeS3FeS2H11CH2C6H4C6H4C3H2C6H4C4H3NC6H2CH10C2HCH2C2HCH2CHNH6CHCH4C2HSH3C2H4NC6H6C2H9CH3C2SCHSH7C2H2NHCH5C2NC8H16C2H3FeHCHSHCHCH4CHC2H4SHCFeS2FeS2FeSFeS3HCHFeS2FeS2FeSFeS3FeS2H2C6H4C3H4C2H2NC2HC2H2C6H4C6H6CH6NC8H22NC3HC3NC2H4CH3C2HNC8H20CH5C3H2CH2CH3CH3CHCH3C2HSH4C2H4C2HCHC3H4CHFeCH9CH2CH4NHC2H3SH4CH2CH4NCHC4H2SNCHSFeS2HC2HCH3CH4CH2C3HC2H2CHCHCHC2H3C2H2CH5CHS2C3HC2SHCNC4HC3H8FeHSH10SH3CHFeH2CHCHCSH2FeH3CH4C2HSFeCHFeS2H2FeSCSFeS2FeSHFeSFeS3FeS2FeS2HFeHSFeCHFeS2FeSHCHCH3NHC4HCH3C6H4C5H3CH2NCH2CH3CHCHCH5CH3CHCH2CHNH4C5H4CH3CNC4SC3H11CH2CH5C3HCH5NH2C6H4CH3CFeH3SH2NC8H16SH3CH3S2C2HCH3SCSCHCHCHCFeH2SCSH2CH4SHC5SCH2CH4NH3FeS2FeSCFe2S3FeS2FeCFeCS2CH4CFeS2FeS2HCHCH3SHNC2H6CH5SC7H5C2H2C6H6CHCH3CSHCNC8H4CH4NH10NC4H6S2H3SHCH3N2C8H19C2H3FeHCH2SH2C2H2CH3CH7SHC3FeCH2C5HFeCHC2H4C2HFeH4C2H3CHS3HFeS2FeS2FeSFeS2FeS2FeSFeHS2FeS2FeS2HC2HCH8CHCH3CH2C6H7C3H4C6H4SNHC2HCH3CH6C2HCNC2NC2HCH2CH2CH6NC8H20C2HSH2CH8CHCHCH4C2H4NC8H2C2H8FeH5NHCFeHC2H7CH2CH2SHCHCHCHC2H2CH3C2H2FeSCHCHCHC2FeSCFeS2FeHFeS3FeSFe2SHFeS2FeSCHCHFeS2NCH3CFeS2HCH2CHCH5SHCHC7H3C6H5SC2H4SCH5CSCH2CH4C3HSNC5SCH9SCH5FeH3C2H6CHNC4H9CH2NH2CH2C2H4CH6CNH2CHSH2C2FeHCH4CHCH4C2HCSH2CHCHCH5CH2FeHCH4CHNCHC2SCH3C2H2SCHCFeC3H2SFeHC2Fe
_chemical_formula_sum              "Fe160 S320 H1920 C1120 N80"
_cell_length_a       60.227
_cell_length_b       57.5543
_cell_length_c       62.096
_cell_angle_alpha    90.9058
_cell_angle_beta     91.0504
_cell_angle_gamma    121.352

_space_group_name_H-M_alt    "P 1"
_space_group_IT_number       1

loop_
  _space_group_symop_operation_xyz
  'x, y, z'

loop_
  _atom_site_type_symbol
  _atom_site_label
  _atom_site_symmetry_multiplicity
  _atom_site_fract_x
  _atom_site_fract_y
  _atom_site_fract_z
  _atom_site_occupancy
  Fe  Fe1       1.0  0.34834  0.35141  0.21192  1.0000
  S   S1        1.0  0.35225  0.36671  0.17824  1.0000
  H   H1        1.0  0.24294  0.42282  0.24443  1.0000
  Fe  Fe2       1.0  0.38381  0.32843  0.20370  1.0000
  S   S2        1.0  0.39018  0.34236  0.16921  1.0000
  S   S3        1.0  0.40461  0.30718  0.21675  1.0000
  Fe  Fe3       1.0  0.39534  0.38178  0.18272  1.0000
  S   S4        1.0  0.42537  0.42458  0.17061  1.0000
  Fe  Fe4       1.0  0.34707  0.32651  0.16690  1.0000
  S   S5        1.0  0.31557  0.29520  0.14248  1.0000
  S   S6        1.0  0.39153  0.36876  0.21714  1.0000
  S   S7        1.0  0.34070  0.31036  0.20070  1.0000
  H   H2        1.0  0.29735  0.36931  0.20968  1.0000
  S   S8        1.0  0.36298  0.03153  0.21093  1.0000
  C   C1        1.0  0.22998  0.23821  0.17335  1.0000
  C   C2        1.0  0.47414  0.09878  0.22242  1.0000
  S   S9        1.0  0.05912  0.37318  0.20266  1.0000
  Fe  Fe5       1.0  0.24755  0.23664  0.01931  1.0000
  S   S10       1.0  0.20745  0.20131  0.02604  1.0000
  S   S11       1.0  0.28059  0.26961  0.04178  1.0000
  H   H3        1.0  0.46767  0.04140  0.19841  1.0000
  H   H4        1.0  0.43899  0.10138  0.22709  1.0000
  C   C3        1.0  0.01958  0.29664  0.14755  1.0000
  C   C4        1.0  0.23014  0.31741  0.18404  1.0000
  C   C5        1.0  0.21100  0.06534  0.00852  1.0000
  H   H5        1.0  0.30762  0.10354  0.09773  1.0000
  H   H6        1.0  0.25036  0.01719  0.05363  1.0000
  H   H7        1.0  0.28475  0.42613  0.23045  1.0000
  H   H8        1.0  0.23436  0.23334  0.18950  1.0000
  H   H9        1.0  0.22908  0.29456  0.15566  1.0000
  H   H10       1.0  0.02282  0.32100  0.07144  1.0000
  H   H11       1.0  0.26632  0.26676  0.22620  1.0000
  N   N1        1.0  0.46122  0.06840  0.21873  1.0000
  H   H12       1.0  0.32804  0.29994  0.00719  1.0000
  C   C6        1.0  0.45780  0.45032  0.17905  1.0000
  C   C7        1.0  0.47077  0.47479  0.16776  1.0000
  H   H13       1.0  0.46902  0.13117  0.23503  1.0000
  H   H14       1.0  0.27337  0.08692  0.09533  1.0000
  C   C8        1.0  0.47098  0.44718  0.19650  1.0000
  H   H15       1.0  0.22676  0.31479  0.20158  1.0000
  H   H16       1.0  0.46140  0.42858  0.20538  1.0000
  C   C9        1.0  0.30634  0.28867  0.11434  1.0000
  C   C10       1.0  0.32099  0.30684  0.09836  1.0000
  C   C11       1.0  0.31273  0.30063  0.07640  1.0000
  C   C12       1.0  0.28969  0.27622  0.06995  1.0000
  C   C13       1.0  0.27497  0.25811  0.08596  1.0000
  C   C14       1.0  0.28324  0.26431  0.10792  1.0000
  H   H17       1.0  0.33874  0.32566  0.10290  1.0000
  H   H18       1.0  0.32433  0.31491  0.06431  1.0000
  H   H19       1.0  0.25727  0.23924  0.08142  1.0000
  H   H20       1.0  0.27172  0.24997  0.12000  1.0000
  C   C15       1.0  0.37643  0.05468  0.23349  1.0000
  H   H21       1.0  0.03714  0.34049  0.24106  1.0000
  H   H22       1.0  0.49304  0.10688  0.23143  1.0000
  C   C16       1.0  0.45832  0.10857  0.23483  1.0000
  C   C17       1.0  0.37387  0.07765  0.23407  1.0000
  H   H23       1.0  0.24810  0.33720  0.18133  1.0000
  H   H24       1.0  0.21038  0.23550  0.17293  1.0000
  H   H25       1.0  0.36339  0.08050  0.22105  1.0000
  H   H26       1.0  0.01851  0.29722  0.12978  1.0000
  C   C18       1.0  0.99778  0.10091  0.01956  1.0000
  C   C19       1.0  0.39369  0.27984  0.23490  1.0000
  C   C20       1.0  0.25265  0.36070  0.24709  1.0000
  C   C21       1.0  0.43560  0.06922  0.18502  1.0000
  H   H27       1.0  0.03216  0.26591  0.12098  1.0000
  H   H28       1.0  0.99966  0.15705  0.03651  1.0000
  C   C22       1.0  0.40825  0.26720  0.23753  1.0000
  C   C23       1.0  0.23367  0.04093  0.06246  1.0000
  C   C24       1.0  0.25691  0.03663  0.06271  1.0000
  C   C25       1.0  0.07312  0.36632  0.22536  1.0000
  S   S12       1.0  0.38935  0.00001  0.17021  1.0000
  H   H29       1.0  0.34805  0.24958  0.02506  1.0000
  Fe  Fe6       1.0  0.01602  0.35759  0.19528  1.0000
  C   C26       1.0  0.00503  0.30485  0.07798  1.0000
  H   H30       1.0  0.01569  0.45357  0.18391  1.0000
  C   C27       1.0  0.29776  0.35739  0.24221  1.0000
  H   H31       1.0  0.29470  0.03050  0.08410  1.0000
  H   H32       1.0  0.00682  0.10560  0.00357  1.0000
  H   H33       1.0  0.08515  0.33894  0.19188  1.0000
  H   H34       1.0  0.31441  0.45977  0.23105  1.0000
  C   C28       1.0  0.28758  0.36447  0.22483  1.0000
  S   S13       1.0  0.32569  0.35454  0.24012  1.0000
  H   H35       1.0  0.25723  0.37117  0.21363  1.0000
  H   H36       1.0  0.00054  0.08478  0.02629  1.0000
  H   H37       1.0  0.31317  0.10014  0.06192  1.0000
  H   H38       1.0  0.31956  0.06653  0.04512  1.0000
  H   H39       1.0  0.27636  0.31072  0.13937  1.0000
  H   H40       1.0  0.44620  0.06493  0.17277  1.0000
  H   H41       1.0  0.00876  0.11912  0.03028  1.0000
  H   H42       1.0  0.33183  0.26786  0.02774  1.0000
  H   H43       1.0  0.26522  0.04243  0.02162  1.0000
  H   H44       1.0  0.24749  0.26846  0.14930  1.0000
  H   H45       1.0  0.06526  0.27680  0.11659  1.0000
  S   S14       1.0  0.20527  0.13355  0.00867  1.0000
  H   H46       1.0  0.21371  0.31851  0.17684  1.0000
  H   H47       1.0  0.13298  0.38090  0.24458  1.0000
  C   C29       1.0  0.31082  0.04584  0.07450  1.0000
  C   C30       1.0  0.29822  0.08255  0.01689  1.0000
  C   C31       1.0  0.23050  0.29314  0.17345  1.0000
  C   C32       1.0  0.10025  0.37770  0.22661  1.0000
  H   H48       1.0  0.32282  0.06510  0.08400  1.0000
  C   C33       1.0  0.11215  0.37220  0.24397  1.0000
  H   H49       1.0  0.42502  0.27341  0.22775  1.0000
  H   H50       1.0  0.22475  0.03724  0.04602  1.0000
  H   H51       1.0  0.19121  0.08169  0.02618  1.0000
  C   C34       1.0  0.00198  0.46029  0.18258  1.0000
  C   C35       1.0  0.29232  0.08616  0.06557  1.0000
  H   H52       1.0  0.26119  0.06961  0.02996  1.0000
  H   H53       1.0  0.05848  0.35822  0.01276  1.0000
  H   H54       1.0  0.31060  0.10262  0.02520  1.0000
  C   C36       1.0  0.07314  0.31644  0.19181  1.0000
  H   H55       1.0  0.28906  0.06747  0.09793  1.0000
  C   C37       1.0  0.30150  0.05081  0.05276  1.0000
  H   H56       1.0  0.05394  0.29923  0.11105  1.0000
  S   S15       1.0  0.00516  0.36850  0.16338  1.0000
  H   H57       1.0  0.03491  0.28348  0.18415  1.0000
  H   H58       1.0  0.21190  0.27462  0.17764  1.0000
  C   C38       1.0  0.21494  0.10956  0.00197  1.0000
  H   H59       1.0  0.45887  0.01940  0.23333  1.0000
  H   H60       1.0  0.30130  0.34324  0.14967  1.0000
  C   C39       1.0  0.27516  0.06246  0.03051  1.0000
  H   H61       1.0  0.11212  0.39067  0.21395  1.0000
  H   H62       1.0  0.26993  0.26737  0.16696  1.0000
  H   H63       1.0  0.21838  0.02581  0.07294  1.0000
  C   C40       1.0  0.44546  0.02484  0.24066  1.0000
  C   C41       1.0  0.25273  0.28575  0.20356  1.0000
  C   C42       1.0  0.25124  0.26690  0.16669  1.0000
  N   N2        1.0  0.28163  0.05927  0.05349  1.0000
  C   C43       1.0  0.20451  0.08521  0.01342  1.0000
  H   H64       1.0  0.29520  0.31245  0.17758  1.0000
  H   H65       1.0  0.00622  0.32975  0.10517  1.0000
  H   H66       1.0  0.99950  0.14297  0.00373  1.0000
  C   C44       1.0  0.28093  0.32652  0.15199  1.0000
  C   C45       1.0  0.05802  0.34946  0.24178  1.0000
  H   H67       1.0  0.31013  0.07390  0.01194  1.0000
  H   H68       1.0  0.28306  0.33262  0.18650  1.0000
  H   H69       1.0  0.25974  0.03222  0.07946  1.0000
  C   C46       1.0  0.27874  0.31578  0.17497  1.0000
  C   C47       1.0  0.34563  0.26558  0.01760  1.0000
  N   N3        1.0  0.04719  0.30852  0.15584  1.0000
  H   H70       1.0  0.23339  0.26876  0.20839  1.0000
  S   S16       1.0  0.00449  0.27416  0.04293  1.0000
  C   C48       1.0  0.06218  0.33868  0.15185  1.0000
  C   C49       1.0  0.06021  0.29463  0.14593  1.0000
  H   H71       1.0  0.03683  0.31518  0.18768  1.0000
  C   C50       1.0  0.06587  0.34715  0.12821  1.0000
  C   C51       1.0  0.05228  0.28379  0.12235  1.0000
  N   N4        1.0  0.25331  0.29038  0.17971  1.0000
  H   H72       1.0  0.26837  0.33509  0.14936  1.0000
  C   C52       1.0  0.29015  0.08527  0.09040  1.0000
  H   H73       1.0  0.28204  0.09651  0.05991  1.0000
  H   H74       1.0  0.05269  0.34865  0.15985  1.0000
  H   H75       1.0  0.08218  0.34877  0.15903  1.0000
  H   H76       1.0  0.08174  0.30853  0.14669  1.0000
  H   H77       1.0  0.05640  0.27667  0.15537  1.0000
  C   C53       1.0  0.43547  0.05648  0.20664  1.0000
  H   H78       1.0  0.29391  0.03190  0.04255  1.0000
  H   H79       1.0  0.25515  0.30367  0.21287  1.0000
  H   H80       1.0  0.07431  0.36950  0.12778  1.0000
  H   H81       1.0  0.04740  0.33761  0.11865  1.0000
  H   H82       1.0  0.08003  0.34309  0.12049  1.0000
  H   H83       1.0  0.42697  0.03441  0.20312  1.0000
  H   H84       1.0  0.23910  0.06150  0.06847  1.0000
  H   H85       1.0  0.41519  0.05981  0.17881  1.0000
  H   H86       1.0  0.44326  0.09133  0.18662  1.0000
  H   H87       1.0  0.01163  0.30923  0.15328  1.0000
  C   C54       1.0  0.00018  0.26699  0.15368  1.0000
  H   H88       1.0  0.20256  0.04683  0.01744  1.0000
  H   H89       1.0  0.49208  0.05924  0.21874  1.0000
  H   H90       1.0  0.36047  0.28082  0.24572  1.0000
  H   H91       1.0  0.31550  0.42977  0.22688  1.0000
  H   H92       1.0  0.46081  0.47752  0.15426  1.0000
  C   C55       1.0  0.47907  0.06152  0.20709  1.0000
  C   C56       1.0  0.04656  0.30530  0.17998  1.0000
  H   H93       1.0  0.06977  0.31088  0.20902  1.0000
  H   H94       1.0  0.22944  0.22299  0.16176  1.0000
  H   H95       1.0  0.08761  0.24398  0.00091  1.0000
  H   H96       1.0  0.28130  0.27221  0.20102  1.0000
  H   H97       1.0  0.42113  0.05775  0.21672  1.0000
  H   H98       1.0  0.08428  0.30771  0.18516  1.0000
  H   H99       1.0  0.27164  0.45535  0.24233  1.0000
  H   H100      1.0  0.29045  0.08613  0.00174  1.0000
  C   C57       1.0  0.45613  0.05574  0.24060  1.0000
  H   H101      1.0  0.01081  0.32492  0.03013  1.0000
  H   H102      1.0  0.32351  0.03751  0.07133  1.0000
  C   C58       1.0  0.27412  0.28119  0.21280  1.0000
  C   C59       1.0  0.01098  0.48846  0.18277  1.0000
  H   H103      1.0  0.02145  0.35713  0.01891  1.0000
  H   H104      1.0  0.00854  0.25386  0.15248  1.0000
  H   H105      1.0  0.29098  0.30072  0.21913  1.0000
  C   C60       1.0  0.11841  0.23492  0.99996  1.0000
  H   H106      1.0  0.48798  0.08816  0.17891  1.0000
  H   H107      1.0  0.47915  0.10964  0.20702  1.0000
  C   C61       1.0  0.26502  0.36583  0.22722  1.0000
  H   H108      1.0  0.42606  0.01289  0.23250  1.0000
  C   C62       1.0  0.99578  0.30986  0.09725  1.0000
  H   H109      1.0  0.02901  0.30777  0.00639  1.0000
  Fe  Fe7       1.0  0.21565  0.17750  0.00097  1.0000
  H   H110      1.0  0.36493  0.28464  0.01846  1.0000
  C   C63       1.0  0.00589  0.33524  0.01753  1.0000
  H   H111      1.0  0.30044  0.26682  0.00275  1.0000
  H   H112      1.0  0.13324  0.25497  0.00598  1.0000
  C   C64       1.0  0.37187  0.27134  0.24750  1.0000
  C   C65       1.0  0.30547  0.43837  0.23587  1.0000
  H   H113      1.0  0.49209  0.00030  0.21202  1.0000
  S   S17       1.0  0.15895  0.22472  0.99921  1.0000
  Fe  Fe8       1.0  0.20667  0.41214  0.30695  1.0000
  S   S18       1.0  0.17003  0.38360  0.32415  1.0000
  S   S19       1.0  0.23038  0.45832  0.30645  1.0000
  Fe  Fe9       1.0  0.20477  0.36674  0.27887  1.0000
  S   S20       1.0  0.16775  0.33450  0.29372  1.0000
  N   N5        1.0  0.11137  0.25566  0.33763  1.0000
  Fe  Fe10      1.0  0.15377  0.36391  0.29128  1.0000
  H   H114      1.0  0.28111  0.48434  0.28608  1.0000
  Fe  Fe11      1.0  0.18618  0.35602  0.32561  1.0000
  S   S21       1.0  0.18727  0.33157  0.35391  1.0000
  S   S22       1.0  0.18910  0.39435  0.27410  1.0000
  S   S23       1.0  0.22432  0.38628  0.31078  1.0000
  Fe  Fe12      1.0  0.38717  0.16333  0.34286  1.0000
  S   S24       1.0  0.40544  0.20779  0.33644  1.0000
  S   S25       1.0  0.36686  0.13937  0.37288  1.0000
  Fe  Fe13      1.0  0.40981  0.15343  0.30184  1.0000
  S   S26       1.0  0.42985  0.19761  0.29230  1.0000
  S   S27       1.0  0.41466  0.11860  0.28930  1.0000
  Fe  Fe14      1.0  0.44159  0.20785  0.32753  1.0000
  C   C66       1.0  0.12556  0.42286  0.31547  1.0000
  Fe  Fe15      1.0  0.39263  0.19516  0.30165  1.0000
  S   S28       1.0  0.37079  0.21353  0.28564  1.0000
  S   S29       1.0  0.42434  0.16435  0.33644  1.0000
  S   S30       1.0  0.37172  0.15019  0.30873  1.0000
  Fe  Fe16      1.0  0.11544  0.25690  0.46212  1.0000
  S   S31       1.0  0.09852  0.21160  0.46168  1.0000
  S   S32       1.0  0.11362  0.28153  0.43421  1.0000
  C   C67       1.0  0.10289  0.14463  0.44884  1.0000
  H   H115      1.0  0.13840  0.24856  0.30439  1.0000
  C   C68       1.0  0.38991  0.05121  0.25049  1.0000
  S   S33       1.0  0.15890  0.20334  0.47187  1.0000
  S   S34       1.0  0.15146  0.26582  0.48058  1.0000
  C   C69       1.0  0.43235  0.27395  0.30819  1.0000
  Fe  Fe17      1.0  0.26112  0.11532  0.46189  1.0000
  S   S35       1.0  0.21909  0.08393  0.46842  1.0000
  S   S36       1.0  0.27600  0.13353  0.42890  1.0000
  C   C70       1.0  0.06304  0.09223  0.47048  1.0000
  H   H116      1.0  0.17375  0.38712  0.49405  1.0000
  H   H117      1.0  0.39695  0.08925  0.35313  1.0000
  H   H118      1.0  0.15097  0.41129  0.28802  1.0000
  H   H119      1.0  0.07707  0.27130  0.32024  1.0000
  C   C71       1.0  0.30440  0.44310  0.29818  1.0000
  S   S37       1.0  0.47963  0.24506  0.34035  1.0000
  C   C72       1.0  0.09116  0.23286  0.32306  1.0000
  H   H120      1.0  0.39869  0.27952  0.31157  1.0000
  H   H121      1.0  0.05806  0.33133  0.27196  1.0000
  H   H122      1.0  0.33439  0.02802  0.32284  1.0000
  H   H123      1.0  0.37438  0.05535  0.34324  1.0000
  H   H124      1.0  0.39172  0.03347  0.25043  1.0000
  C   C73       1.0  0.31893  0.07729  0.32726  1.0000
  H   H125      1.0  0.46799  0.25997  0.29754  1.0000
  C   C74       1.0  0.40132  0.07091  0.26746  1.0000
  H   H126      1.0  0.41202  0.06822  0.28037  1.0000
  H   H127      1.0  0.09185  0.41926  0.29708  1.0000
  H   H128      1.0  0.20561  0.15419  0.46870  1.0000
  C   C75       1.0  0.46780  0.29465  0.28309  1.0000
  H   H129      1.0  0.14846  0.37125  0.45231  1.0000
  C   C76       1.0  0.29675  0.41377  0.30358  1.0000
  H   H130      1.0  0.39280  0.08249  0.32489  1.0000
  C   C77       1.0  0.34109  0.13761  0.38781  1.0000
  C   C78       1.0  0.33163  0.12014  0.40536  1.0000
  C   C79       1.0  0.31156  0.11837  0.41797  1.0000
  C   C80       1.0  0.30067  0.13410  0.41315  1.0000
  C   C81       1.0  0.30994  0.15133  0.39545  1.0000
  C   C82       1.0  0.33005  0.15314  0.38288  1.0000
  H   H131      1.0  0.33992  0.10790  0.40926  1.0000
  H   H132      1.0  0.30443  0.10479  0.43136  1.0000
  H   H133      1.0  0.30158  0.16349  0.39150  1.0000
  H   H134      1.0  0.33700  0.16659  0.36940  1.0000
  H   H135      1.0  0.24053  0.48498  0.38367  1.0000
  H   H136      1.0  0.25393  0.35030  0.28002  1.0000
  C   C83       1.0  0.16798  0.31985  0.37715  1.0000
  C   C84       1.0  0.17095  0.30238  0.39092  1.0000
  C   C85       1.0  0.15480  0.29082  0.40865  1.0000
  C   C86       1.0  0.13549  0.29670  0.41287  1.0000
  C   C87       1.0  0.13295  0.31476  0.39946  1.0000
  C   C88       1.0  0.14908  0.32627  0.38168  1.0000
  H   H137      1.0  0.18559  0.29736  0.38763  1.0000
  H   H138      1.0  0.15708  0.27708  0.41886  1.0000
  H   H139      1.0  0.11813  0.31952  0.40265  1.0000
  H   H140      1.0  0.14660  0.33973  0.37129  1.0000
  H   H141      1.0  0.37493  0.20457  0.44055  1.0000
  H   H142      1.0  0.09478  0.23893  0.30592  1.0000
  H   H143      1.0  0.11486  0.27298  0.36943  1.0000
  H   H144      1.0  0.10709  0.46664  0.30407  1.0000
  C   C89       1.0  0.38500  0.09718  0.25117  1.0000
  H   H145      1.0  0.32570  0.45628  0.30189  1.0000
  H   H146      1.0  0.29512  0.08521  0.34832  1.0000
  H   H147      1.0  0.38307  0.11485  0.25121  1.0000
  H   H148      1.0  0.07967  0.21069  0.36721  1.0000
  H   H149      1.0  0.35607  0.08494  0.35714  1.0000
  H   H150      1.0  0.30220  0.06609  0.31565  1.0000
  H   H151      1.0  0.29246  0.05343  0.35293  1.0000
  H   H152      1.0  0.16130  0.28308  0.31407  1.0000
  C   C90       1.0  0.30644  0.07495  0.34917  1.0000
  H   H153      1.0  0.09624  0.20102  0.33923  1.0000
  C   C91       1.0  0.17867  0.38083  0.47866  1.0000
  H   H154      1.0  0.32887  0.09906  0.32286  1.0000
  H   H155      1.0  0.30127  0.01231  0.35713  1.0000
  H   H156      1.0  0.21107  0.35994  0.48431  1.0000
  N   N6        1.0  0.33741  0.06706  0.32571  1.0000
  C   C92       1.0  0.05499  0.12978  0.47387  1.0000
  H   H157      1.0  0.29350  0.34754  0.27582  1.0000
  C   C93       1.0  0.08966  0.20521  0.32387  1.0000
  H   H158      1.0  0.10046  0.20310  0.31042  1.0000
  H   H159      1.0  0.16679  0.25637  0.32025  1.0000
  H   H160      1.0  0.36015  0.06328  0.30064  1.0000
  C   C94       1.0  0.40637  0.20308  0.48315  1.0000
  H   H161      1.0  0.17714  0.44199  0.31857  1.0000
  H   H162      1.0  0.40850  0.18522  0.48136  1.0000
  C   C95       1.0  0.09514  0.28821  0.32800  1.0000
  H   H163      1.0  0.06321  0.15142  0.47897  1.0000
  H   H164      1.0  0.10645  0.16092  0.48061  1.0000
  H   H165      1.0  0.41882  0.29496  0.27977  1.0000
  N   N7        1.0  0.36027  0.17390  0.46508  1.0000
  H   H166      1.0  0.48286  0.31338  0.27535  1.0000
  C   C96       1.0  0.35905  0.14746  0.46913  1.0000
  C   C97       1.0  0.36819  0.18264  0.44223  1.0000
  H   H167      1.0  0.31863  0.14980  0.45852  1.0000
  Fe  Fe18      1.0  0.23571  0.06698  0.49202  1.0000
  H   H168      1.0  0.31191  0.03487  0.28762  1.0000
  C   C98       1.0  0.38924  0.17822  0.43269  1.0000
  H   H169      1.0  0.18087  0.39894  0.44719  1.0000
  S   S38       1.0  0.22376  0.36176  0.24889  1.0000
  H   H170      1.0  0.48569  0.36001  0.30309  1.0000
  H   H171      1.0  0.37762  0.14870  0.46578  1.0000
  H   H172      1.0  0.34455  0.13115  0.45779  1.0000
  H   H173      1.0  0.35116  0.17152  0.43084  1.0000
  H   H174      1.0  0.20890  0.34732  0.44972  1.0000
  C   C99       1.0  0.18454  0.14561  0.49800  1.0000
  C   C100      1.0  0.32559  0.05673  0.28478  1.0000
  H   H175      1.0  0.12681  0.45561  0.27865  1.0000
  H   H176      1.0  0.40727  0.18739  0.44277  1.0000
  H   H177      1.0  0.16050  0.46228  0.34636  1.0000
  H   H178      1.0  0.41918  0.28818  0.33579  1.0000
  H   H179      1.0  0.20013  0.39437  0.47730  1.0000
  H   H180      1.0  0.42231  0.25784  0.29537  1.0000
  H   H181      1.0  0.04550  0.07651  0.47878  1.0000
  H   H182      1.0  0.39448  0.18781  0.41670  1.0000
  H   H183      1.0  0.38169  0.15624  0.42960  1.0000
  C   C101      1.0  0.49213  0.34720  0.31079  1.0000
  H   H184      1.0  0.10474  0.31811  0.48965  1.0000
  H   H185      1.0  0.16143  0.40322  0.46595  1.0000
  N   N8        1.0  0.45218  0.30058  0.29854  1.0000
  H   H186      1.0  0.33134  0.19504  0.44283  1.0000
  H   H187      1.0  0.45704  0.32417  0.32769  1.0000
  C   C102      1.0  0.43779  0.31181  0.28655  1.0000
  H   H188      1.0  0.12370  0.28409  0.31150  1.0000
  C   C103      1.0  0.16914  0.18182  0.48294  1.0000
  H   H189      1.0  0.19195  0.18553  0.45541  1.0000
  H   H190      1.0  0.30814  0.18519  0.46315  1.0000
  H   H191      1.0  0.13417  0.29987  0.33749  1.0000
  C   C104      1.0  0.32396  0.03716  0.33049  1.0000
  H   H192      1.0  0.32086  0.08527  0.36259  1.0000
  H   H193      1.0  0.12265  0.14943  0.44449  1.0000
  H   H194      1.0  0.41275  0.23716  0.25445  1.0000
  S   S39       1.0  0.09458  0.25674  0.49205  1.0000
  C   C105      1.0  0.23603  0.47264  0.35004  1.0000
  C   C106      1.0  0.09636  0.23016  0.37369  1.0000
  H   H195      1.0  0.11395  0.22886  0.37612  1.0000
  H   H196      1.0  0.13405  0.23700  0.34562  1.0000
  H   H197      1.0  0.09097  0.23331  0.39006  1.0000
  H   H198      1.0  0.15024  0.27206  0.35118  1.0000
  Fe  Fe19      1.0  0.13357  0.22044  0.48233  1.0000
  C   C107      1.0  0.37979  0.23848  0.26553  1.0000
  C   C108      1.0  0.13662  0.25607  0.33926  1.0000
  C   C109      1.0  0.19489  0.35328  0.44442  1.0000
  C   C110      1.0  0.17019  0.44481  0.26658  1.0000
  H   H199      1.0  0.20455  0.37572  0.44506  1.0000
  H   H200      1.0  0.35830  0.09297  0.29915  1.0000
  H   H201      1.0  0.31479  0.06731  0.28216  1.0000
  C   C111      1.0  0.15130  0.26124  0.31810  1.0000
  C   C112      1.0  0.19234  0.35029  0.49273  1.0000
  H   H202      1.0  0.16454  0.31741  0.45915  1.0000
  N   N9        1.0  0.14640  0.44363  0.30141  1.0000
  C   C113      1.0  0.34675  0.07094  0.30286  1.0000
  S   S40       1.0  0.27748  0.09673  0.48358  1.0000
  C   C114      1.0  0.19323  0.15837  0.47833  1.0000
  H   H203      1.0  0.07143  0.22909  0.32627  1.0000
  H   H204      1.0  0.13084  0.40791  0.32092  1.0000
  C   C115      1.0  0.30879  0.43549  0.26013  1.0000
  H   H205      1.0  0.45490  0.28106  0.26957  1.0000
  C   C116      1.0  0.28566  0.35279  0.26219  1.0000
  H   H206      1.0  0.08907  0.12646  0.43893  1.0000
  C   C117      1.0  0.12197  0.33279  0.48054  1.0000
  H   H207      1.0  0.07246  0.06100  0.46440  1.0000
  C   C118      1.0  0.36498  0.25078  0.26266  1.0000
  C   C119      1.0  0.09707  0.35556  0.26052  1.0000
  H   H208      1.0  0.08379  0.39471  0.31749  1.0000
  H   H209      1.0  0.22539  0.45110  0.35314  1.0000
  C   C120      1.0  0.24461  0.49187  0.36732  1.0000
  C   C121      1.0  0.33313  0.16866  0.46764  1.0000
  C   C122      1.0  0.06996  0.34423  0.25928  1.0000
  H   H210      1.0  0.10108  0.30663  0.31843  1.0000
  H   H211      1.0  0.32998  0.44447  0.26370  1.0000
  H   H212      1.0  0.09020  0.08279  0.48708  1.0000
  C   C123      1.0  0.41103  0.27438  0.32140  1.0000
  H   H213      1.0  0.12376  0.43202  0.33061  1.0000
  H   H214      1.0  0.08235  0.25348  0.35917  1.0000
  H   H215      1.0  0.26006  0.41075  0.27134  1.0000
  C   C124      1.0  0.26326  0.35444  0.26465  1.0000
  H   H216      1.0  0.09123  0.29291  0.34440  1.0000
  C   C125      1.0  0.39905  0.09407  0.26786  1.0000
  H   H217      1.0  0.01549  0.12145  0.47527  1.0000
  H   H218      1.0  0.39766  0.25363  0.32730  1.0000
  H   H219      1.0  0.11794  0.32506  0.46361  1.0000
  H   H220      1.0  0.11451  0.13581  0.47959  1.0000
  C   C126      1.0  0.09802  0.40629  0.30492  1.0000
  H   H221      1.0  0.47427  0.06587  0.25092  1.0000
  H   H222      1.0  0.05326  0.12976  0.45598  1.0000
  N   N10       1.0  0.29786  0.44736  0.27549  1.0000
  C   C127      1.0  0.10119  0.25424  0.35989  1.0000
  H   H223      1.0  0.27644  0.39854  0.29856  1.0000
  C   C128      1.0  0.26867  0.43310  0.27284  1.0000
  C   C129      1.0  0.36106  0.08460  0.34015  1.0000
  H   H224      1.0  0.45135  0.31731  0.25322  1.0000
  H   H225      1.0  0.17389  0.49255  0.32999  1.0000
  H   H226      1.0  0.32502  0.04578  0.36626  1.0000
  C   C130      1.0  0.09981  0.14044  0.47339  1.0000
  H   H227      1.0  0.06909  0.18855  0.32106  1.0000
  C   C131      1.0  0.18543  0.17618  0.47083  1.0000
  C   C132      1.0  0.30232  0.49274  0.28774  1.0000
  Fe  Fe20      1.0  0.07997  0.21198  0.49282  1.0000
  H   H228      1.0  0.29476  0.44918  0.31026  1.0000
  H   H229      1.0  0.18978  0.34654  0.42723  1.0000
  H   H230      1.0  0.37061  0.10631  0.33557  1.0000
  H   H231      1.0  0.43272  0.32359  0.29771  1.0000
  H   H232      1.0  0.31007  0.40818  0.29622  1.0000
  S   S41       1.0  0.11109  0.34904  0.28340  1.0000
  H   H233      1.0  0.17284  0.00665  0.48207  1.0000
  H   H234      1.0  0.13000  0.41799  0.27248  1.0000
  C   C133      1.0  0.38222  0.07711  0.34016  1.0000
  C   C134      1.0  0.16997  0.33899  0.45764  1.0000
  C   C135      1.0  0.11749  0.28249  0.32845  1.0000
  H   H235      1.0  0.44189  0.26635  0.31916  1.0000
  C   C136      1.0  0.17219  0.45736  0.31367  1.0000
  H   H236      1.0  0.15419  0.33771  0.44734  1.0000
  C   C137      1.0  0.14038  0.46430  0.29299  1.0000
  H   H237      1.0  0.30403  0.02605  0.32295  1.0000
  H   H238      1.0  0.12319  0.35264  0.48202  1.0000
  H   H239      1.0  0.33437  0.02179  0.35876  1.0000
  H   H240      1.0  0.18967  0.45117  0.27362  1.0000
  C   C138      1.0  0.24122  0.48143  0.32886  1.0000
  C   C139      1.0  0.32867  0.19153  0.46036  1.0000
  C   C140      1.0  0.32137  0.02948  0.35452  1.0000
  H   H241      1.0  0.29951  0.41320  0.26220  1.0000
  H   H242      1.0  0.49395  0.27940  0.28007  1.0000
  C   C141      1.0  0.16645  0.38831  0.45986  1.0000
  H   H243      1.0  0.09898  0.09454  0.45993  1.0000
  C   C142      1.0  0.08251  0.08241  0.47064  1.0000
  C   C143      1.0  0.48192  0.28105  0.29265  1.0000
  C   C144      1.0  0.46884  0.31952  0.31690  1.0000
  S   S42       1.0  0.26380  0.14462  0.48783  1.0000
  C   C145      1.0  0.31129  0.47771  0.27276  1.0000
  H   H244      1.0  0.16738  0.43175  0.25217  1.0000
  H   H245      1.0  0.43933  0.33838  0.26126  1.0000
  N   N11       1.0  0.07292  0.12008  0.48058  1.0000
  H   H246      1.0  0.37930  0.21558  0.47709  1.0000
  H   H247      1.0  0.34815  0.24454  0.27238  1.0000
  H   H248      1.0  0.33271  0.48742  0.27543  1.0000
  N   N12       1.0  0.17165  0.35159  0.47957  1.0000
  C   C146      1.0  0.45103  0.32967  0.26697  1.0000
  H   H249      1.0  0.26029  0.43621  0.28765  1.0000
  C   C147      1.0  0.37800  0.19616  0.48113  1.0000
  H   H250      1.0  0.47660  0.30954  0.32725  1.0000
  C   C148      1.0  0.14836  0.42806  0.28244  1.0000
  H   H251      1.0  0.47102  0.34677  0.27047  1.0000
  H   H252      1.0  0.10064  0.16185  0.44413  1.0000
  H   H253      1.0  0.05614  0.09091  0.45350  1.0000
  H   H254      1.0  0.16991  0.46277  0.26082  1.0000
  H   H255      1.0  0.12934  0.47149  0.32593  1.0000
  H   H256      1.0  0.14179  0.31297  0.49161  1.0000
  Fe  Fe21      1.0  0.22317  0.11240  0.49586  1.0000
  H   H257      1.0  0.32728  0.16493  0.48472  1.0000
  H   H258      1.0  0.29846  0.41239  0.32130  1.0000
  H   H259      1.0  0.09653  0.39097  0.29301  1.0000
  C   C149      1.0  0.00577  0.19629  0.48889  1.0000
  H   H260      1.0  0.18821  0.47184  0.30338  1.0000
  H   H261      1.0  0.33514  0.05781  0.26937  1.0000
  C   C150      1.0  0.14622  0.33427  0.49062  1.0000
  H   H262      1.0  0.01710  0.09139  0.47676  1.0000
  C   C151      1.0  0.02703  0.11308  0.48205  1.0000
  S   S43       1.0  0.22599  0.02316  0.49664  1.0000
  C   C152      1.0  0.35224  0.13683  0.49218  1.0000
  C   C153      1.0  0.00794  0.17468  0.49628  1.0000
  C   C154      1.0  0.12787  0.47510  0.30871  1.0000
  C   C155      1.0  0.25743  0.44139  0.25384  1.0000
  H   H263      1.0  0.34100  0.21083  0.46968  1.0000
  H   H264      1.0  0.35244  0.11769  0.49326  1.0000
  C   C156      1.0  0.40140  0.24669  0.25272  1.0000
  H   H265      1.0  0.02312  0.21516  0.48489  1.0000
  C   C157      1.0  0.17473  0.47433  0.33402  1.0000
  H   H266      1.0  0.41871  0.21862  0.47140  1.0000
  H   H267      1.0  0.18673  0.32871  0.49495  1.0000
  H   H268      1.0  0.33246  0.13169  0.49637  1.0000
  H   H269      1.0  0.15838  0.48229  0.28703  1.0000
  H   H270      1.0  0.30771  0.49260  0.30489  1.0000
  H   H271      1.0  0.30919  0.48306  0.25615  1.0000
  H   H272      1.0  0.24662  0.45079  0.26008  1.0000
  H   H273      1.0  0.19428  0.48224  0.34168  1.0000
  H   H274      1.0  0.44297  0.01815  0.25758  1.0000
  H   H275      1.0  0.45601  0.10269  0.25194  1.0000
  H   H276      1.0  0.36977  0.19211  0.49755  1.0000
  H   H277      1.0  0.44173  0.05861  0.24932  1.0000
  H   H278      1.0  0.13748  0.49751  0.30722  1.0000
  Fe  Fe22      1.0  0.20006  0.41952  0.66296  1.0000
  S   S44       1.0  0.15798  0.38615  0.66573  1.0000
  S   S45       1.0  0.20421  0.45662  0.64618  1.0000
  Fe  Fe23      1.0  0.21963  0.38596  0.68535  1.0000
  S   S46       1.0  0.17903  0.35051  0.68941  1.0000
  S   S47       1.0  0.25660  0.38528  0.69377  1.0000
  Fe  Fe24      1.0  0.17091  0.35749  0.65524  1.0000
  S   S48       1.0  0.14346  0.32006  0.63396  1.0000
  Fe  Fe25      1.0  0.16894  0.38170  0.69937  1.0000
  S   S49       1.0  0.14589  0.37612  0.72981  1.0000
  S   S50       1.0  0.21218  0.39097  0.65023  1.0000
  S   S51       1.0  0.21033  0.41703  0.69760  1.0000
  Fe  Fe26      1.0  0.38286  0.14858  0.69914  1.0000
  S   S52       1.0  0.41980  0.18912  0.70374  1.0000
  S   S53       1.0  0.36497  0.11805  0.72627  1.0000
  Fe  Fe27      1.0  0.37102  0.16424  0.65485  1.0000
  S   S54       1.0  0.40756  0.20612  0.65647  1.0000
  S   S55       1.0  0.33614  0.14430  0.63075  1.0000
  Fe  Fe28      1.0  0.42749  0.18472  0.66897  1.0000
  S   S56       1.0  0.46882  0.19363  0.66379  1.0000
  Fe  Fe29      1.0  0.39778  0.20809  0.69125  1.0000
  S   S57       1.0  0.40796  0.24836  0.70821  1.0000
  S   S58       1.0  0.39157  0.14246  0.66516  1.0000
  S   S59       1.0  0.36017  0.16797  0.68887  1.0000
  Fe  Fe30      1.0  0.12976  0.26276  0.51069  1.0000
  S   S60       1.0  0.11410  0.21780  0.51362  1.0000
  S   S61       1.0  0.15450  0.29862  0.53426  1.0000
  Fe  Fe31      1.0  0.27743  0.12382  0.51014  1.0000
  S   S62       1.0  0.23699  0.09320  0.52006  1.0000
  S   S63       1.0  0.31413  0.15230  0.53064  1.0000
  H   H279      1.0  0.28538  0.24019  0.73899  1.0000
  C   C158      1.0  0.16843  0.15143  0.51024  1.0000
  H   H280      1.0  0.28807  0.32841  0.70470  1.0000
  C   C159      1.0  0.37282  0.09450  0.73685  1.0000
  H   H281      1.0  0.11865  0.31884  0.67315  1.0000
  C   C160      1.0  0.04873  0.30433  0.70195  1.0000
  H   H282      1.0  0.31363  0.26884  0.72762  1.0000
  H   H283      1.0  0.06027  0.28049  0.71970  1.0000
  H   H284      1.0  0.06237  0.24986  0.64621  1.0000
  H   H285      1.0  0.11335  0.28195  0.69073  1.0000
  C   C161      1.0  0.38862  0.25590  0.72494  1.0000
  C   C162      1.0  0.36196  0.23767  0.72712  1.0000
  H   H286      1.0  0.39434  0.44321  0.74008  1.0000
  H   H287      1.0  0.35241  0.21843  0.71819  1.0000
  C   C163      1.0  0.08126  0.14376  0.51821  1.0000
  C   C164      1.0  0.06991  0.29850  0.70923  1.0000
  C   C165      1.0  0.18684  0.46383  0.73435  1.0000
  H   H288      1.0  0.13259  0.32274  0.71662  1.0000
  C   C166      1.0  0.33110  0.14637  0.60263  1.0000
  C   C167      1.0  0.30642  0.12812  0.59311  1.0000
  C   C168      1.0  0.30110  0.12915  0.57103  1.0000
  C   C169      1.0  0.32039  0.14870  0.55817  1.0000
  C   C170      1.0  0.34507  0.16701  0.56765  1.0000
  C   C171      1.0  0.35046  0.16581  0.58971  1.0000
  H   H289      1.0  0.29131  0.11301  0.60294  1.0000
  H   H290      1.0  0.28203  0.11494  0.56404  1.0000
  H   H291      1.0  0.36011  0.18234  0.55792  1.0000
  H   H292      1.0  0.36949  0.18003  0.59678  1.0000
  C   C172      1.0  0.07386  0.11784  0.50472  1.0000
  C   C173      1.0  0.10033  0.37429  0.71707  1.0000
  H   H293      1.0  0.10788  0.37845  0.70105  1.0000
  C   C174      1.0  0.26709  0.37821  0.71848  1.0000
  C   C175      1.0  0.29063  0.37852  0.71925  1.0000
  C   C176      1.0  0.07807  0.26539  0.65718  1.0000
  H   H294      1.0  0.30189  0.38311  0.70486  1.0000
  C   C177      1.0  0.49316  0.23317  0.63276  1.0000
  C   C178      1.0  0.14687  0.31447  0.60622  1.0000
  C   C179      1.0  0.12755  0.29030  0.59557  1.0000
  C   C180      1.0  0.12952  0.28501  0.57361  1.0000
  C   C181      1.0  0.15090  0.30387  0.56203  1.0000
  C   C182      1.0  0.17021  0.32802  0.57270  1.0000
  C   C183      1.0  0.16823  0.33333  0.59463  1.0000
  H   H295      1.0  0.11094  0.27556  0.60435  1.0000
  H   H296      1.0  0.11449  0.26636  0.56566  1.0000
  H   H297      1.0  0.18693  0.34270  0.56402  1.0000
  H   H298      1.0  0.18328  0.35195  0.60259  1.0000
  H   H299      1.0  0.29198  0.23972  0.71119  1.0000
  H   H300      1.0  0.14730  0.34134  0.50753  1.0000
  H   H301      1.0  0.46847  0.26820  0.72215  1.0000
  H   H302      1.0  0.05661  0.32291  0.69243  1.0000
  H   H303      1.0  0.33262  0.00975  0.69182  1.0000
  H   H304      1.0  0.23978  0.28036  0.72493  1.0000
  C   C184      1.0  0.25281  0.37240  0.73723  1.0000
  C   C185      1.0  0.25623  0.49707  0.65300  1.0000
  H   H305      1.0  0.08788  0.26307  0.70885  1.0000
  H   H306      1.0  0.18262  0.35652  0.52599  1.0000
  H   H307      1.0  0.10166  0.16017  0.51582  1.0000
  H   H308      1.0  0.13837  0.43169  0.71612  1.0000
  H   H309      1.0  0.10816  0.30176  0.73567  1.0000
  H   H310      1.0  0.16168  0.14181  0.52553  1.0000
  H   H311      1.0  0.06801  0.15136  0.51505  1.0000
  C   C186      1.0  0.10287  0.32021  0.68098  1.0000
  H   H312      1.0  0.15633  0.44239  0.66954  1.0000
  H   H313      1.0  0.36727  0.02768  0.69211  1.0000
  H   H314      1.0  0.24325  0.47404  0.60100  1.0000
  H   H315      1.0  0.05489  0.10119  0.51050  1.0000
  H   H316      1.0  0.46501  0.29688  0.71677  1.0000
  H   H317      1.0  0.37431  0.40713  0.73696  1.0000
  H   H318      1.0  0.24051  0.47477  0.57258  1.0000
  H   H319      1.0  0.40394  0.10382  0.71550  1.0000
  H   H320      1.0  0.13763  0.45568  0.68131  1.0000
  H   H321      1.0  0.41338  0.07018  0.73103  1.0000
  H   H322      1.0  0.07983  0.13897  0.53558  1.0000
  C   C187      1.0  0.26071  0.29676  0.72642  1.0000
  H   H323      1.0  0.25876  0.48195  0.66094  1.0000
  H   H324      1.0  0.14866  0.17387  0.51251  1.0000
  H   H325      1.0  0.48780  0.29964  0.73656  1.0000
  H   H326      1.0  0.33537  0.15458  0.73244  1.0000
  C   C188      1.0  0.34752  0.24440  0.74079  1.0000
  H   H327      1.0  0.16181  0.42603  0.70419  1.0000
  H   H328      1.0  0.34118  0.32019  0.72732  1.0000
  S   S64       1.0  0.19292  0.12212  0.50791  1.0000
  C   C189      1.0  0.06564  0.36564  0.74184  1.0000
  H   H329      1.0  0.33107  0.34402  0.72394  1.0000
  C   C190      1.0  0.24751  0.48794  0.58737  1.0000
  H   H330      1.0  0.06473  0.37264  0.70793  1.0000
  C   C191      1.0  0.32392  0.32193  0.72386  1.0000
  C   C192      1.0  0.26798  0.31066  0.70451  1.0000
  C   C193      1.0  0.06571  0.27163  0.67626  1.0000
  H   H331      1.0  0.04063  0.30831  0.71655  1.0000
  H   H332      1.0  0.20835  0.38698  0.51419  1.0000
  H   H333      1.0  0.13103  0.29321  0.72670  1.0000
  C   C194      1.0  0.07589  0.37106  0.72105  1.0000
  N   N13       1.0  0.26232  0.18372  0.55280  1.0000
  C   C195      1.0  0.28957  0.20186  0.54488  1.0000
  C   C196      1.0  0.24370  0.17915  0.53434  1.0000
  C   C197      1.0  0.25966  0.15694  0.55831  1.0000
  C   C198      1.0  0.25868  0.19718  0.57236  1.0000
  C   C199      1.0  0.31203  0.20955  0.56140  1.0000
  C   C200      1.0  0.24577  0.20498  0.52521  1.0000
  C   C201      1.0  0.23296  0.13431  0.56580  1.0000
  C   C202      1.0  0.23040  0.18852  0.57771  1.0000
  H   H334      1.0  0.29286  0.19233  0.53045  1.0000
  H   H335      1.0  0.29258  0.22163  0.53959  1.0000
  H   H336      1.0  0.22318  0.16568  0.53865  1.0000
  H   H337      1.0  0.24632  0.16813  0.52069  1.0000
  H   H338      1.0  0.26463  0.14846  0.54420  1.0000
  H   H339      1.0  0.27358  0.15968  0.57153  1.0000
  H   H340      1.0  0.26776  0.19404  0.58695  1.0000
  H   H341      1.0  0.26911  0.21962  0.57032  1.0000
  H   H342      1.0  0.33078  0.22371  0.55383  1.0000
  C   C203      1.0  0.16095  0.16958  0.50288  1.0000
  H   H343      1.0  0.31322  0.19179  0.56614  1.0000
  H   H344      1.0  0.20400  0.46443  0.69410  1.0000
  C   C204      1.0  0.40053  0.28099  0.73649  1.0000
  H   H345      1.0  0.19049  0.48192  0.68140  1.0000
  H   H346      1.0  0.21702  0.12887  0.55381  1.0000
  H   H347      1.0  0.22849  0.13949  0.58176  1.0000
  H   H348      1.0  0.23366  0.11556  0.56795  1.0000
  H   H349      1.0  0.24734  0.21944  0.53798  1.0000
  H   H350      1.0  0.21519  0.16789  0.57198  1.0000
  H   H351      1.0  0.05124  0.27579  0.66910  1.0000
  C   C205      1.0  0.30380  0.30798  0.74168  1.0000
  H   H352      1.0  0.08995  0.25679  0.66243  1.0000
  C   C206      1.0  0.47081  0.26457  0.67732  1.0000
  C   C207      1.0  0.10064  0.28385  0.70254  1.0000
  H   H353      1.0  0.22886  0.18899  0.59550  1.0000
  C   C208      1.0  0.11495  0.37225  0.73387  1.0000
  H   H354      1.0  0.19629  0.45181  0.73129  1.0000
  C   C209      1.0  0.35002  0.01646  0.70230  1.0000
  H   H355      1.0  0.09404  0.35021  0.66884  1.0000
  H   H356      1.0  0.26244  0.21540  0.51436  1.0000
  H   H357      1.0  0.28339  0.27490  0.70259  1.0000
  C   C210      1.0  0.14306  0.44007  0.68261  1.0000
  C   C211      1.0  0.39803  0.07239  0.73756  1.0000
  C   C212      1.0  0.19934  0.36465  0.51525  1.0000
  H   H358      1.0  0.36878  0.00261  0.72324  1.0000
  H   H359      1.0  0.23473  0.37217  0.73694  1.0000
  H   H360      1.0  0.41989  0.22258  0.74096  1.0000
  H   H361      1.0  0.09002  0.28357  0.64748  1.0000
  H   H362      1.0  0.47471  0.23002  0.70511  1.0000
  H   H363      1.0  0.10167  0.33362  0.64838  1.0000
  H   H364      1.0  0.08351  0.31605  0.72003  1.0000
  H   H365      1.0  0.35161  0.03147  0.71463  1.0000
  H   H366      1.0  0.11342  0.33708  0.69317  1.0000
  H   H367      1.0  0.45772  0.25150  0.68990  1.0000
  N   N14       1.0  0.27672  0.28539  0.73486  1.0000
  C   C213      1.0  0.47917  0.29047  0.72040  1.0000
  H   H368      1.0  0.42110  0.29536  0.73488  1.0000
  H   H369      1.0  0.31086  0.22017  0.57598  1.0000
  H   H370      1.0  0.14480  0.47477  0.72038  1.0000
  C   C214      1.0  0.16573  0.48665  0.71622  1.0000
  H   H371      1.0  0.41413  0.21136  0.49969  1.0000
  H   H372      1.0  0.05371  0.25232  0.68490  1.0000
  C   C215      1.0  0.15495  0.44066  0.70501  1.0000
  S   S65       1.0  0.03858  0.17691  0.49940  1.0000
  C   C216      1.0  0.09118  0.33026  0.66366  1.0000
  H   H373      1.0  0.03210  0.28673  0.69327  1.0000
  H   H374      1.0  0.20240  0.48331  0.74190  1.0000
  N   N15       1.0  0.08458  0.29396  0.69184  1.0000
  C   C217      1.0  0.11897  0.30164  0.72143  1.0000
  H   H375      1.0  0.32695  0.23005  0.74240  1.0000
  H   H376      1.0  0.38144  0.17205  0.74185  1.0000
  H   H377      1.0  0.07032  0.31661  0.65965  1.0000
  C   C218      1.0  0.29975  0.37296  0.73844  1.0000
  H   H378      1.0  0.31700  0.31399  0.70728  1.0000
  C   C219      1.0  0.45807  0.27945  0.66739  1.0000
  C   C220      1.0  0.27652  0.26568  0.71841  1.0000
  C   C221      1.0  0.39271  0.09150  0.72869  1.0000
  H   H379      1.0  0.46533  0.28660  0.65105  1.0000
  H   H380      1.0  0.37403  0.19772  0.74019  1.0000
  H   H381      1.0  0.25620  0.24862  0.71486  1.0000
  H   H382      1.0  0.21388  0.36113  0.52339  1.0000
  H   H383      1.0  0.26175  0.31234  0.73795  1.0000
  H   H384      1.0  0.08825  0.11213  0.50952  1.0000
  H   H385      1.0  0.46098  0.29674  0.67772  1.0000
  H   H386      1.0  0.25516  0.31882  0.70104  1.0000
  H   H387      1.0  0.26461  0.29630  0.69099  1.0000
  H   H388      1.0  0.22801  0.19906  0.51519  1.0000
  C   C222      1.0  0.19769  0.47923  0.69722  1.0000
  H   H389      1.0  0.12505  0.41990  0.67967  1.0000
  H   H390      1.0  0.22566  0.20355  0.57168  1.0000
  C   C223      1.0  0.29285  0.25308  0.72470  1.0000
  H   H391      1.0  0.36653  0.15138  0.50446  1.0000
  H   H392      1.0  0.46970  0.24982  0.66487  1.0000
  H   H393      1.0  0.31792  0.37348  0.73875  1.0000
  H   H394      1.0  0.47472  0.23181  0.63009  1.0000
  N   N16       1.0  0.17648  0.46822  0.71349  1.0000
  C   C224      1.0  0.23177  0.48996  0.64450  1.0000
  H   H395      1.0  0.43675  0.26512  0.66549  1.0000
  S   S66       1.0  0.03421  0.36073  0.74553  1.0000
  H   H396      1.0  0.28663  0.49662  0.58604  1.0000
  H   H397      1.0  0.19088  0.00512  0.54225  1.0000
  H   H398      1.0  0.02654  0.11481  0.49982  1.0000
  H   H399      1.0  0.16606  0.49623  0.70068  1.0000
  H   H400      1.0  0.23609  0.49769  0.59010  1.0000
  H   H401      1.0  0.31407  0.00143  0.72919  1.0000
  Fe  Fe32      1.0  0.34993  0.31471  0.78966  1.0000
  S   S67       1.0  0.37733  0.33510  0.81852  1.0000
  H   H402      1.0  0.30303  0.32429  0.75086  1.0000
  Fe  Fe33      1.0  0.32796  0.35247  0.79281  1.0000
  S   S68       1.0  0.35407  0.37555  0.82155  1.0000
  S   S69       1.0  0.29656  0.36148  0.78218  1.0000
  Fe  Fe34      1.0  0.38610  0.37480  0.80385  1.0000
  S   S70       1.0  0.42582  0.41141  0.79431  1.0000
  Fe  Fe35      1.0  0.34322  0.33439  0.83449  1.0000
  S   S71       1.0  0.33186  0.32809  0.87042  1.0000
  S   S72       1.0  0.36021  0.35404  0.77415  1.0000
  S   S73       1.0  0.31558  0.31167  0.80659  1.0000
  C   C225      1.0  0.37745  0.14723  0.78744  1.0000
  H   H403      1.0  0.40019  0.47729  0.76143  1.0000
  Fe  Fe36      1.0  0.00962  0.35471  0.77531  1.0000
  H   H404      1.0  0.44269  0.04913  0.88918  1.0000
  S   S74       1.0  0.02174  0.37609  0.80790  1.0000
  C   C226      1.0  0.23839  0.09362  0.98046  1.0000
  C   C227      1.0  0.39071  0.44399  0.79423  1.0000
  H   H405      1.0  0.35119  0.16175  0.79053  1.0000
  Fe  Fe37      1.0  0.23854  0.22560  0.96967  1.0000
  S   S75       1.0  0.19797  0.18911  0.97372  1.0000
  S   S76       1.0  0.25379  0.23549  0.93483  1.0000
  H   H406      1.0  0.24045  0.28605  0.76676  1.0000
  H   H407      1.0  0.99845  0.13716  0.96627  1.0000
  Fe  Fe38      1.0  0.37414  0.00005  0.79100  1.0000
  H   H408      1.0  0.33820  0.41738  0.79945  1.0000
  C   C228      1.0  0.09239  0.22872  0.99711  1.0000
  H   H409      1.0  0.39745  0.15354  0.79314  1.0000
  H   H410      1.0  0.28447  0.27967  0.97240  1.0000
  C   C229      1.0  0.32511  0.43964  0.78080  1.0000
  H   H411      1.0  0.31348  0.01616  0.89217  1.0000
  H   H412      1.0  0.38032  0.18063  0.80606  1.0000
  S   S77       1.0  0.39047  0.03138  0.76434  1.0000
  H   H413      1.0  0.17174  0.01174  0.93784  1.0000
  H   H414      1.0  0.37163  0.29422  0.97134  1.0000
  H   H415      1.0  0.11598  0.36553  0.76785  1.0000
  H   H416      1.0  0.31171  0.27407  0.95085  1.0000
  C   C230      1.0  0.10483  0.36706  0.75468  1.0000
  H   H417      1.0  0.31265  0.30046  0.75343  1.0000
  H   H418      1.0  0.38977  0.23185  0.76659  1.0000
  H   H419      1.0  0.37517  0.00588  0.93521  1.0000
  C   C231      1.0  0.23210  0.11362  0.98549  1.0000
  H   H420      1.0  0.23225  0.28738  0.95663  1.0000
  H   H421      1.0  0.37456  0.13932  0.77060  1.0000
  C   C232      1.0  0.26209  0.36716  0.75647  1.0000
  C   C233      1.0  0.99526  0.29960  0.87523  1.0000
  H   H422      1.0  0.21121  0.29316  0.94045  1.0000
  H   H423      1.0  0.15225  0.45555  0.75283  1.0000
  H   H424      1.0  0.28767  0.00067  0.92538  1.0000
  C   C234      1.0  0.45401  0.44186  0.80499  1.0000
  C   C235      1.0  0.45754  0.44953  0.82689  1.0000
  N   N17       1.0  0.00518  0.32357  0.99540  1.0000
  C   C236      1.0  0.47355  0.45895  0.79081  1.0000
  H   H425      1.0  0.44285  0.43669  0.83808  1.0000
  H   H426      1.0  0.47120  0.45333  0.77385  1.0000
  C   C237      1.0  0.30875  0.30191  0.88738  1.0000
  C   C238      1.0  0.29554  0.27414  0.88156  1.0000
  C   C239      1.0  0.27872  0.25431  0.89615  1.0000
  C   C240      1.0  0.27449  0.26176  0.91673  1.0000
  C   C241      1.0  0.28702  0.28957  0.92226  1.0000
  C   C242      1.0  0.30423  0.30934  0.90787  1.0000
  H   H427      1.0  0.29872  0.26790  0.86597  1.0000
  H   H428      1.0  0.26913  0.23297  0.89149  1.0000
  H   H429      1.0  0.28355  0.29596  0.93761  1.0000
  H   H430      1.0  0.31409  0.33068  0.91259  1.0000
  C   C243      1.0  0.16643  0.44885  0.75169  1.0000
  H   H431      1.0  0.34829  0.42471  0.75074  1.0000
  H   H432      1.0  0.35059  0.40284  0.76938  1.0000
  H   H433      1.0  0.25082  0.27140  0.78669  1.0000
  C   C244      1.0  0.25691  0.28376  0.77200  1.0000
  C   C245      1.0  0.07973  0.18352  0.98462  1.0000
  H   H434      1.0  0.35187  0.45165  0.80755  1.0000
  C   C246      1.0  0.00793  0.33434  0.95514  1.0000
  C   C247      1.0  0.00081  0.27288  0.90325  1.0000
  H   H435      1.0  0.34260  0.20504  0.76919  1.0000
  C   C248      1.0  0.31686  0.26162  0.96063  1.0000
  C   C249      1.0  0.37255  0.17096  0.78979  1.0000
  C   C250      1.0  0.31577  0.28467  0.99427  1.0000
  H   H436      1.0  0.31358  0.31321  0.97186  1.0000
  H   H437      1.0  0.05841  0.36310  0.98386  1.0000
  C   C251      1.0  0.34692  0.43826  0.79302  1.0000
  H   H438      1.0  0.07277  0.35962  0.77474  1.0000
  C   C252      1.0  0.22786  0.06925  0.99184  1.0000
  H   H439      1.0  0.19232  0.00593  0.95599  1.0000
  H   H440      1.0  0.17302  0.03374  0.96811  1.0000
  C   C253      1.0  0.00772  0.28636  0.88338  1.0000
  H   H441      1.0  0.25099  0.36301  0.77092  1.0000
  H   H442      1.0  0.44991  0.01570  0.89698  1.0000
  N   N18       1.0  0.17585  0.24014  0.92939  1.0000
  C   C254      1.0  0.16428  0.21003  0.92506  1.0000
  C   C255      1.0  0.18705  0.25478  0.90877  1.0000
  C   C256      1.0  0.15564  0.24612  0.93693  1.0000
  C   C257      1.0  0.19662  0.24942  0.94687  1.0000
  C   C258      1.0  0.14636  0.19089  0.94243  1.0000
  C   C259      1.0  0.21235  0.25650  0.90186  1.0000
  C   C260      1.0  0.13243  0.23735  0.92106  1.0000
  H   H443      1.0  0.31636  0.42457  0.76723  1.0000
  H   H444      1.0  0.15282  0.20323  0.90956  1.0000
  H   H445      1.0  0.17997  0.20542  0.92305  1.0000
  H   H446      1.0  0.19082  0.27586  0.90953  1.0000
  H   H447      1.0  0.17274  0.24476  0.89506  1.0000
  H   H448      1.0  0.14794  0.23672  0.95272  1.0000
  H   H449      1.0  0.16442  0.26833  0.94020  1.0000
  H   H450      1.0  0.18811  0.23855  0.96189  1.0000
  H   H451      1.0  0.21101  0.24351  0.94303  1.0000
  H   H452      1.0  0.14136  0.16978  0.93850  1.0000
  H   H453      1.0  0.15573  0.19625  0.95869  1.0000
  H   H454      1.0  0.12776  0.19046  0.94304  1.0000
  H   H455      1.0  0.21048  0.23629  0.90123  1.0000
  H   H456      1.0  0.21726  0.26491  0.88548  1.0000
  H   H457      1.0  0.22906  0.27050  0.91273  1.0000
  H   H458      1.0  0.12235  0.21547  0.91633  1.0000
  H   H459      1.0  0.13857  0.24974  0.90641  1.0000
  H   H460      1.0  0.11795  0.24079  0.92901  1.0000
  H   H461      1.0  0.99505  0.33743  0.94406  1.0000
  Fe  Fe39      1.0  0.00993  0.20845  0.98929  1.0000
  H   H462      1.0  0.34515  0.19594  0.79673  1.0000
  H   H463      1.0  0.42203  0.20735  0.78818  1.0000
  H   H464      1.0  0.11045  0.17433  0.98399  1.0000
  H   H465      1.0  0.36920  0.47189  0.75643  1.0000
  C   C261      1.0  0.42900  0.22593  0.75722  1.0000
  H   H466      1.0  0.20314  0.28359  0.96789  1.0000
  H   H467      1.0  0.07138  0.34407  0.99485  1.0000
  H   H468      1.0  0.39560  0.30698  0.75909  1.0000
  H   H469      1.0  0.34498  0.31375  0.94829  1.0000
  C   C262      1.0  0.02920  0.32162  0.99393  1.0000
  H   H470      1.0  0.41761  0.02121  0.92633  1.0000
  C   C263      1.0  0.08033  0.36374  0.75866  1.0000
  C   C264      1.0  0.38609  0.28769  0.75022  1.0000
  N   N19       1.0  0.37056  0.44517  0.78021  1.0000
  H   H471      1.0  0.41535  0.18494  0.76561  1.0000
  H   H472      1.0  0.38485  0.01463  0.87490  1.0000
  H   H473      1.0  0.35697  0.23029  0.78997  1.0000
  H   H474      1.0  0.00242  0.31285  0.95291  1.0000
  C   C265      1.0  0.39499  0.45534  0.81760  1.0000
  H   H475      1.0  0.34969  0.26952  0.94030  1.0000
  H   H476      1.0  0.37817  0.44191  0.82760  1.0000
  H   H477      1.0  0.43230  0.24528  0.76445  1.0000
  H   H478      1.0  0.35258  0.04684  0.77612  1.0000
  H   H479      1.0  0.02151  0.48300  0.82307  1.0000
  H   H480      1.0  0.36376  0.13015  0.79755  1.0000
  H   H481      1.0  0.39469  0.22664  0.79400  1.0000
  H   H482      1.0  0.30910  0.43450  0.79201  1.0000
  H   H483      1.0  0.39917  0.47640  0.81873  1.0000
  H   H484      1.0  0.29258  0.30351  0.99414  1.0000
  H   H485      1.0  0.33323  0.00165  0.75095  1.0000
  H   H486      1.0  0.24030  0.13204  0.97642  1.0000
  C   C266      1.0  0.21143  0.28011  0.95319  1.0000
  H   H487      1.0  0.34307  0.08041  0.76053  1.0000
  H   H488      1.0  0.48278  0.47926  0.85139  1.0000
  C   C267      1.0  0.38223  0.21632  0.77929  1.0000
  H   H489      1.0  0.31623  0.23669  0.99516  1.0000
  H   H490      1.0  0.02942  0.31190  0.97835  1.0000
  H   H491      1.0  0.39843  0.03414  0.89921  1.0000
  H   H492      1.0  0.31843  0.24292  0.93059  1.0000
  C   C268      1.0  0.35497  0.21094  0.78402  1.0000
  C   C269      1.0  0.00519  0.34205  0.97849  1.0000
  C   C270      1.0  0.44252  0.00813  0.91311  1.0000
  S   S78       1.0  0.25631  0.21235  0.99552  1.0000
  C   C271      1.0  0.38359  0.05604  0.75467  1.0000
  H   H493      1.0  0.27383  0.30392  0.77675  1.0000
  H   H494      1.0  0.29776  0.24334  0.96434  1.0000
  H   H495      1.0  0.37675  0.49304  0.79812  1.0000
  C   C272      1.0  0.48030  0.47375  0.83441  1.0000
  N   N20       1.0  0.38409  0.19203  0.77266  1.0000
  H   H496      1.0  0.33353  0.23634  0.95263  1.0000
  H   H497      1.0  0.45671  0.02376  0.92493  1.0000
  C   C273      1.0  0.33082  0.25224  0.94544  1.0000
  C   C274      1.0  0.28555  0.36734  0.75721  1.0000
  H   H498      1.0  0.15874  0.03026  0.99398  1.0000
  C   C275      1.0  0.41266  0.20160  0.77174  1.0000
  S   S79       1.0  0.99665  0.42557  0.81358  1.0000
  C   C276      1.0  0.00375  0.47717  0.81404  1.0000
  H   H499      1.0  0.02284  0.28645  0.87417  1.0000
  H   H500      1.0  0.17899  0.00304  0.98887  1.0000
  H   H501      1.0  0.17639  0.45237  0.76769  1.0000
  C   C277      1.0  0.38210  0.47236  0.76975  1.0000
  C   C278      1.0  0.33508  0.25644  0.99416  1.0000
  S   S80       1.0  0.34027  0.27605  0.77019  1.0000
  H   H502      1.0  0.34861  0.25150  0.98625  1.0000
  C   C279      1.0  0.36176  0.42353  0.76254  1.0000
  S   S81       1.0  0.03910  0.19348  0.98540  1.0000
  H   H503      1.0  0.41007  0.45454  0.78663  1.0000
  H   H504      1.0  0.14733  0.04012  0.97141  1.0000
  N   N21       1.0  0.33156  0.27637  0.98118  1.0000
  H   H505      1.0  0.02807  0.34794  0.94967  1.0000
  H   H506      1.0  0.25145  0.09705  0.96752  1.0000
  S   S82       1.0  0.23623  0.04448  0.98431  1.0000
  C   C280      1.0  0.26357  0.26916  0.75452  1.0000
  C   C281      1.0  0.12542  0.21549  0.99535  1.0000
  H   H507      1.0  0.37862  0.33202  0.95364  1.0000
  H   H508      1.0  0.38549  0.42252  0.79582  1.0000
  C   C282      1.0  0.05564  0.34857  0.99654  1.0000
  S   S83       1.0  0.23219  0.25178  0.99297  1.0000
  C   C283      1.0  0.36380  0.05916  0.76293  1.0000
  S   S84       1.0  0.38899  0.00743  0.82554  1.0000
  S   S85       1.0  0.01671  0.25094  0.98769  1.0000
  C   C284      1.0  0.10572  0.18968  0.98758  1.0000
  H   H509      1.0  0.39713  0.42111  0.75903  1.0000
  C   C285      1.0  0.35847  0.07825  0.75405  1.0000
  C   C286      1.0  0.35814  0.30060  0.97711  1.0000
  H   H510      1.0  0.33190  0.46034  0.77499  1.0000
  C   C287      1.0  0.35962  0.32213  0.96170  1.0000
  H   H511      1.0  0.44844  0.22847  0.75524  1.0000
  H   H512      1.0  0.43108  0.02754  0.86471  1.0000
  S   S86       1.0  0.00457  0.31570  0.84962  1.0000
  H   H513      1.0  0.02135  0.36333  0.98193  1.0000
  C   C288      1.0  0.15457  0.02671  0.97639  1.0000
  C   C289      1.0  0.41508  0.00289  0.91759  1.0000
  H   H514      1.0  0.27591  0.26261  0.76281  1.0000
  H   H515      1.0  0.01057  0.26276  0.90905  1.0000
  C   C290      1.0  0.42662  0.03863  0.87695  1.0000
  Fe  Fe40      1.0  0.23157  0.00285  0.99220  1.0000
  C   C291      1.0  0.99733  0.49708  0.80960  1.0000
  H   H516      1.0  0.41206  0.45553  0.82492  1.0000
  H   H517      1.0  0.06490  0.16345  0.97868  1.0000
  C   C292      1.0  0.40035  0.02046  0.88758  1.0000
  H   H518      1.0  0.42571  0.05486  0.86825  1.0000
  H   H519      1.0  0.35872  0.01098  0.91259  1.0000
  C   C293      1.0  0.30106  0.29601  0.98214  1.0000
  C   C294      1.0  0.35947  0.26935  0.75255  1.0000
  C   C295      1.0  0.38343  0.42420  0.74910  1.0000
  H   H520      1.0  0.35817  0.33810  0.97069  1.0000
  H   H521      1.0  0.36763  0.31193  0.99250  1.0000
  C   C296      1.0  0.38988  0.49733  0.78460  1.0000
  C   C297      1.0  0.07267  0.20287  0.98942  1.0000
  H   H522      1.0  0.32991  0.16427  0.75824  1.0000
  H   H523      1.0  0.15552  0.42657  0.74842  1.0000
  S   S87       1.0  0.26709  0.99906  0.99618  1.0000
  H   H524      1.0  0.33896  0.13911  0.75563  1.0000
  C   C298      1.0  0.37153  0.18100  0.75058  1.0000
  C   C299      1.0  0.34233  0.15867  0.74955  1.0000
  Fe  Fe41      1.0  0.19219  0.21493  0.99826  1.0000
  H   H525      1.0  0.24499  0.25003  0.74989  1.0000
  H   H526      1.0  0.14837  0.63508  0.19380  1.0000
  Fe  Fe42      1.0  0.34012  0.93242  0.19733  1.0000
  S   S88       1.0  0.36422  0.93463  0.16902  1.0000
  S   S89       1.0  0.31178  0.88849  0.20741  1.0000
  Fe  Fe43      1.0  0.39823  0.97067  0.18643  1.0000
  H   H527      1.0  0.01606  0.68489  0.24247  1.0000
  Fe  Fe44      1.0  0.35348  0.96376  0.15497  1.0000
  S   S90       1.0  0.34159  0.95957  0.11884  1.0000
  S   S91       1.0  0.37462  0.96689  0.21569  1.0000
  S   S92       1.0  0.32793  0.95969  0.18232  1.0000
  C   C300      1.0  0.48350  0.86400  0.22813  1.0000
  S   S93       1.0  0.04193  0.66148  0.21010  1.0000
  Fe  Fe45      1.0  0.24655  0.97096  0.02363  1.0000
  S   S94       1.0  0.21244  0.97717  0.02072  1.0000
  S   S95       1.0  0.26254  0.97630  0.05887  1.0000
  H   H528      1.0  0.44679  0.52600  0.18683  1.0000
  H   H529      1.0  0.27499  0.98430  0.10442  1.0000
  H   H530      1.0  0.27675  0.83278  0.21802  1.0000
  H   H531      1.0  0.28997  0.93054  0.14253  1.0000
  H   H532      1.0  0.30809  0.86356  0.16058  1.0000
  H   H533      1.0  0.14292  0.66079  0.24321  1.0000
  H   H534      1.0  0.26388  0.91305  0.09961  1.0000
  C   C301      1.0  0.46504  0.97474  0.18658  1.0000
  H   H535      1.0  0.48416  0.91373  0.23636  1.0000
  H   H536      1.0  0.13946  0.61722  0.16845  1.0000
  C   C302      1.0  0.46147  0.95741  0.16902  1.0000
  H   H537      1.0  0.14074  0.96174  0.01999  1.0000
  H   H538      1.0  0.06248  0.56795  0.20394  1.0000
  C   C303      1.0  0.31951  0.96454  0.10254  1.0000
  C   C304      1.0  0.30408  0.97389  0.11108  1.0000
  C   C305      1.0  0.28919  0.87380  0.22851  1.0000
  C   C306      1.0  0.28444  0.97105  0.07516  1.0000
  C   C307      1.0  0.29978  0.96159  0.06664  1.0000
  C   C308      1.0  0.31711  0.95837  0.08022  1.0000
  H   H539      1.0  0.46000  0.51008  0.20244  1.0000
  H   H540      1.0  0.27271  0.91071  0.18013  1.0000
  H   H541      1.0  0.29839  0.95685  0.04956  1.0000
  H   H542      1.0  0.32883  0.95109  0.07332  1.0000
  C   C309      1.0  0.47426  0.55282  0.21212  1.0000
  C   C310      1.0  0.06441  0.66977  0.23211  1.0000
  Fe  Fe46      1.0  0.00846  0.62087  0.19619  1.0000
  H   H543      1.0  0.11466  0.61706  0.22607  1.0000
  H   H544      1.0  0.23892  0.82489  0.14574  1.0000
  C   C311      1.0  0.27432  0.84523  0.22984  1.0000
  C   C312      1.0  0.46491  0.52957  0.19501  1.0000
  S   S96       1.0  0.14923  0.91224  0.00265  1.0000
  H   H545      1.0  0.22728  0.86794  0.13123  1.0000
  H   H546      1.0  0.28343  0.84617  0.13998  1.0000
  S   S97       1.0  0.22654  0.93306  0.00213  1.0000
  H   H547      1.0  0.44336  0.94789  0.15968  1.0000
  H   H548      1.0  0.04674  0.62931  0.24428  1.0000
  C   C313      1.0  0.05928  0.58226  0.21364  1.0000
  C   C314      1.0  0.29815  0.86655  0.14657  1.0000
  C   C315      1.0  0.99558  0.67368  0.23657  1.0000
  H   H549      1.0  0.45383  0.88158  0.20838  1.0000
  H   H550      1.0  0.30342  0.90353  0.15934  1.0000
  H   H551      1.0  0.23478  0.86121  0.15679  1.0000
  H   H552      1.0  0.24231  0.87631  0.09699  1.0000
  S   S98       1.0  0.01217  0.60244  0.16516  1.0000
  H   H553      1.0  0.05984  0.61982  0.21008  1.0000
  H   H554      1.0  0.21397  0.82238  0.12756  1.0000
  H   H555      1.0  0.09478  0.60635  0.16992  1.0000
  H   H556      1.0  0.10355  0.59457  0.19273  1.0000
  H   H557      1.0  0.15018  0.66651  0.21530  1.0000
  H   H558      1.0  0.14022  0.64851  0.17060  1.0000
  H   H559      1.0  0.27598  0.87410  0.16931  1.0000
  H   H560      1.0  0.47852  0.89726  0.18816  1.0000
  C   C316      1.0  0.06827  0.60903  0.20177  1.0000
  C   C317      1.0  0.26992  0.91274  0.14446  1.0000
  H   H561      1.0  0.06838  0.58539  0.22992  1.0000
  C   C318      1.0  0.10657  0.61342  0.18527  1.0000
  H   H562      1.0  0.24531  0.83503  0.11799  1.0000
  C   C319      1.0  0.26286  0.89331  0.09793  1.0000
  H   H563      1.0  0.47938  0.53440  0.18245  1.0000
  C   C320      1.0  0.27878  0.88958  0.11583  1.0000
  C   C321      1.0  0.28633  0.88333  0.15421  1.0000
  H   H564      1.0  0.28022  0.87198  0.11053  1.0000
  C   C322      1.0  0.26181  0.91466  0.16760  1.0000
  H   H565      1.0  0.03165  0.50309  0.18423  1.0000
  H   H566      1.0  0.09541  0.66411  0.20193  1.0000
  C   C323      1.0  0.48148  0.95264  0.16329  1.0000
  H   H567      1.0  0.12314  0.66878  0.18877  1.0000
  H   H568      1.0  0.27140  0.89367  0.08213  1.0000
  H   H569      1.0  0.09633  0.63122  0.23468  1.0000
  S   S99       1.0  0.44081  0.98240  0.19440  1.0000
  C   C324      1.0  0.10997  0.63288  0.22213  1.0000
  H   H570      1.0  0.25707  0.91621  0.13365  1.0000
  N   N22       1.0  0.26882  0.88663  0.13836  1.0000
  Fe  Fe47      1.0  0.36435  0.99449  0.19859  1.0000
  C   C325      1.0  0.28567  0.88957  0.24386  1.0000
  H   H571      1.0  0.05827  0.60270  0.18562  1.0000
  C   C326      1.0  0.09852  0.86895  0.00618  1.0000
  H   H572      1.0  0.47206  0.56886  0.20467  1.0000
  H   H573      1.0  0.29908  0.90714  0.11540  1.0000
  C   C327      1.0  0.23490  0.83502  0.13245  1.0000
  H   H574      1.0  0.24061  0.90078  0.16957  1.0000
  N   N23       1.0  0.09730  0.62767  0.19982  1.0000
  H   H575      1.0  0.26605  0.93566  0.17078  1.0000
  C   C328      1.0  0.10210  0.65397  0.19059  1.0000
  H   H576      1.0  0.31330  0.87776  0.13454  1.0000
  H   H577      1.0  0.47838  0.93938  0.14956  1.0000
  C   C329      1.0  0.24104  0.86352  0.13980  1.0000
  H   H578      1.0  0.09566  0.67253  0.16289  1.0000
  C   C330      1.0  0.13476  0.66097  0.22704  1.0000
  H   H579      1.0  0.06753  0.64153  0.16971  1.0000
  H   H580      1.0  0.03799  0.57194  0.21592  1.0000
  C   C331      1.0  0.13537  0.62992  0.17940  1.0000
  H   H581      1.0  0.46661  0.91595  0.20134  1.0000
  H   H582      1.0  0.13012  0.67728  0.22795  1.0000
  H   H583      1.0  0.47576  0.82305  0.23288  1.0000
  H   H584      1.0  0.30564  0.97886  0.12813  1.0000
  C   C332      1.0  0.28671  0.97704  0.09752  1.0000
  H   H585      1.0  0.09388  0.64136  0.15600  1.0000
  C   C333      1.0  0.47193  0.90034  0.20384  1.0000
  H   H586      1.0  0.47171  0.85619  0.21296  1.0000
  H   H587      1.0  0.08660  0.71225  0.22444  1.0000
  H   H588      1.0  0.29685  0.91152  0.24307  1.0000
  H   H589      1.0  0.46925  0.86142  0.24049  1.0000
  C   C334      1.0  0.08512  0.69686  0.23512  1.0000
  C   C335      1.0  0.08890  0.65170  0.16851  1.0000
  H   H590      1.0  0.45975  0.54508  0.22511  1.0000
  H   H591      1.0  0.48839  0.60601  0.22495  1.0000
  C   C336      1.0  0.48892  0.98687  0.19840  1.0000
  S   S100      1.0  0.00640  0.53388  0.18088  1.0000
  H   H592      1.0  0.48449  0.52945  0.24304  1.0000
  C   C337      1.0  0.07699  0.84222  0.00214  1.0000
  C   C338      1.0  0.25626  0.83256  0.24630  1.0000
  C   C339      1.0  0.06267  0.65017  0.24617  1.0000
  H   H593      1.0  0.99837  0.69695  0.09819  1.0000
  H   H594      1.0  0.24479  0.81063  0.24693  1.0000
  C   C340      1.0  0.15210  0.98286  0.01412  1.0000
  H   H595      1.0  0.14025  0.99243  0.01525  1.0000
  H   H596      1.0  0.16935  0.99429  0.02521  1.0000
  H   H597      1.0  0.05858  0.83583  0.00945  1.0000
  H   H598      1.0  0.09632  0.88276  0.01665  1.0000
  C   C341      1.0  0.49283  0.84420  0.23326  1.0000
  C   C342      1.0  0.49322  0.91087  0.22185  1.0000
  H   H599      1.0  0.00650  0.63815  0.24793  1.0000
  Fe  Fe48      1.0  0.21091  0.75202  0.32773  1.0000
  S   S101      1.0  0.21479  0.79281  0.33371  1.0000
  S   S102      1.0  0.24511  0.74978  0.34224  1.0000
  Fe  Fe49      1.0  0.16147  0.73153  0.29932  1.0000
  S   S103      1.0  0.16284  0.77122  0.30294  1.0000
  S   S104      1.0  0.12897  0.69132  0.28356  1.0000
  Fe  Fe50      1.0  0.20614  0.79171  0.29814  1.0000
  S   S105      1.0  0.23075  0.83376  0.28315  1.0000
  Fe  Fe51      1.0  0.17164  0.76987  0.33828  1.0000
  S   S106      1.0  0.14754  0.77954  0.36098  1.0000
  S   S107      1.0  0.20425  0.75195  0.29182  1.0000
  S   S108      1.0  0.16822  0.72905  0.33499  1.0000
  H   H600      1.0  0.25841  0.78386  0.30303  1.0000
  Fe  Fe52      1.0  0.29183  0.58949  0.38240  1.0000
  S   S109      1.0  0.29864  0.61272  0.35215  1.0000
  S   S110      1.0  0.26870  0.54341  0.38580  1.0000
  Fe  Fe53      1.0  0.32167  0.64192  0.41074  1.0000
  S   S111      1.0  0.33096  0.66909  0.38212  1.0000
  S   S112      1.0  0.33710  0.66372  0.44362  1.0000
  Fe  Fe54      1.0  0.28923  0.64006  0.37128  1.0000
  S   S113      1.0  0.25709  0.64742  0.35963  1.0000
  Fe  Fe55      1.0  0.33982  0.63989  0.36531  1.0000
  S   S114      1.0  0.37314  0.64664  0.34398  1.0000
  S   S115      1.0  0.27960  0.61473  0.40090  1.0000
  S   S116      1.0  0.33339  0.61482  0.39467  1.0000
  Fe  Fe56      1.0  0.12422  0.81834  0.47966  1.0000
  S   S117      1.0  0.09507  0.82855  0.46724  1.0000
  S   S118      1.0  0.15141  0.80890  0.46133  1.0000
  H   H601      1.0  0.39538  0.60757  0.39309  1.0000
  H   H602      1.0  0.20006  0.88522  0.42101  1.0000
  C   C343      1.0  0.17370  0.98855  0.48449  1.0000
  H   H603      1.0  0.14304  0.76314  0.49384  1.0000
  Fe  Fe57      1.0  0.11496  0.86478  0.49048  1.0000
  H   H604      1.0  0.15481  0.90219  0.38991  1.0000
  H   H605      1.0  0.43899  0.70716  0.43811  1.0000
  H   H606      1.0  0.31213  0.51446  0.28331  1.0000
  H   H607      1.0  0.03440  0.67021  0.26916  1.0000
  C   C344      1.0  0.39783  0.67777  0.40651  1.0000
  H   H608      1.0  0.39256  0.67788  0.45015  1.0000
  H   H609      1.0  0.31382  0.83460  0.33685  1.0000
  C   C345      1.0  0.32806  0.64885  0.46936  1.0000
  C   C346      1.0  0.08204  0.65746  0.26243  1.0000
  C   C347      1.0  0.31205  0.62075  0.47167  1.0000
  H   H610      1.0  0.16638  0.94102  0.41063  1.0000
  H   H611      1.0  0.30471  0.60739  0.45750  1.0000
  C   C348      1.0  0.45830  0.71727  0.33957  1.0000
  C   C349      1.0  0.43962  0.72184  0.34872  1.0000
  C   C350      1.0  0.41342  0.70058  0.34995  1.0000
  C   C351      1.0  0.40567  0.67439  0.34228  1.0000
  C   C352      1.0  0.42426  0.66987  0.33294  1.0000
  C   C353      1.0  0.45045  0.69115  0.33161  1.0000
  H   H612      1.0  0.44547  0.74202  0.35477  1.0000
  H   H613      1.0  0.39917  0.70450  0.35657  1.0000
  H   H614      1.0  0.41841  0.64974  0.32676  1.0000
  H   H615      1.0  0.38281  0.70447  0.41181  1.0000
  C   C354      1.0  0.24830  0.72105  0.34613  1.0000
  C   C355      1.0  0.27254  0.72527  0.35321  1.0000
  C   C356      1.0  0.27588  0.70309  0.35689  1.0000
  C   C357      1.0  0.25486  0.67638  0.35380  1.0000
  C   C358      1.0  0.23069  0.67222  0.34668  1.0000
  C   C359      1.0  0.22742  0.69437  0.34278  1.0000
  H   H616      1.0  0.28883  0.74581  0.35586  1.0000
  H   H617      1.0  0.29460  0.70664  0.36224  1.0000
  H   H618      1.0  0.21429  0.65167  0.34424  1.0000
  H   H619      1.0  0.20867  0.69076  0.33737  1.0000
  C   C360      1.0  0.14881  0.78661  0.38914  1.0000
  C   C361      1.0  0.12801  0.78761  0.39812  1.0000
  C   C362      1.0  0.12819  0.79370  0.42024  1.0000
  C   C363      1.0  0.14948  0.79944  0.43361  1.0000
  C   C364      1.0  0.17027  0.79837  0.42470  1.0000
  C   C365      1.0  0.16994  0.79191  0.40260  1.0000
  H   H620      1.0  0.11152  0.78338  0.38788  1.0000
  H   H621      1.0  0.11186  0.79393  0.42692  1.0000
  H   H622      1.0  0.18682  0.80270  0.43488  1.0000
  H   H623      1.0  0.18607  0.79125  0.39591  1.0000
  H   H624      1.0  0.45457  0.67818  0.40025  1.0000
  H   H625      1.0  0.19086  0.85999  0.44094  1.0000
  H   H626      1.0  0.44447  0.68038  0.44185  1.0000
  C   C366      1.0  0.25847  0.51998  0.36359  1.0000
  C   C367      1.0  0.26368  0.52869  0.34238  1.0000
  C   C368      1.0  0.44229  0.68740  0.39876  1.0000
  N   N24       1.0  0.41985  0.67418  0.41389  1.0000
  H   H627      1.0  0.47358  0.72358  0.41650  1.0000
  H   H628      1.0  0.27433  0.55023  0.33929  1.0000
  H   H629      1.0  0.37949  0.66351  0.41467  1.0000
  H   H630      1.0  0.12068  0.87743  0.43988  1.0000
  C   C369      1.0  0.42920  0.68472  0.43668  1.0000
  H   H631      1.0  0.14501  0.93292  0.43329  1.0000
  H   H632      1.0  0.33743  0.85080  0.30471  1.0000
  H   H633      1.0  0.33553  0.78652  0.32568  1.0000
  H   H634      1.0  0.10975  0.83408  0.41799  1.0000
  H   H635      1.0  0.08093  0.64202  0.27286  1.0000
  H   H636      1.0  0.31111  0.78580  0.29539  1.0000
  C   C370      1.0  0.40304  0.62960  0.39108  1.0000
  C   C371      1.0  0.16975  0.91513  0.43493  1.0000
  H   H637      1.0  0.41700  0.68335  0.46965  1.0000
  H   H638      1.0  0.43502  0.68346  0.38172  1.0000
  H   H639      1.0  0.12228  0.89301  0.41504  1.0000
  H   H640      1.0  0.46456  0.68733  0.32450  1.0000
  H   H641      1.0  0.30662  0.72201  0.42833  1.0000
  H   H642      1.0  0.19116  0.92436  0.43407  1.0000
  H   H643      1.0  0.26672  0.81322  0.28882  1.0000
  C   C372      1.0  0.02747  0.67793  0.28216  1.0000
  H   H644      1.0  0.14500  0.84827  0.39102  1.0000
  H   H645      1.0  0.47502  0.72528  0.38795  1.0000
  C   C373      1.0  0.40187  0.70647  0.40887  1.0000
  H   H646      1.0  0.18567  0.90875  0.39919  1.0000
  C   C374      1.0  0.25507  0.50949  0.32513  1.0000
  C   C375      1.0  0.29553  0.82445  0.32683  1.0000
  C   C376      1.0  0.15177  0.93874  0.48469  1.0000
  H   H647      1.0  0.32945  0.82821  0.28210  1.0000
  H   H648      1.0  0.03092  0.69819  0.27789  1.0000
  C   C377      1.0  0.15115  0.96251  0.48125  1.0000
  H   H649      1.0  0.45172  0.73019  0.40097  1.0000
  H   H650      1.0  0.22273  0.79523  0.46608  1.0000
  H   H651      1.0  0.15646  0.87023  0.36893  1.0000
  H   H652      1.0  0.19932  0.89347  0.44920  1.0000
  H   H653      1.0  0.29704  0.85494  0.28435  1.0000
  C   C378      1.0  0.25279  0.84834  0.26168  1.0000
  H   H654      1.0  0.25418  0.65580  0.47565  1.0000
  H   H655      1.0  0.31183  0.84782  0.26220  1.0000
  H   H656      1.0  0.17883  0.95699  0.43665  1.0000
  H   H657      1.0  0.28978  0.77453  0.31722  1.0000
  C   C379      1.0  0.16444  0.93753  0.42817  1.0000
  H   H658      1.0  0.40965  0.71801  0.39396  1.0000
  H   H659      1.0  0.22786  0.82588  0.47823  1.0000
  H   H660      1.0  0.28306  0.84947  0.34253  1.0000
  H   H661      1.0  0.32500  0.80364  0.34291  1.0000
  H   H662      1.0  0.33083  0.87573  0.28014  1.0000
  C   C380      1.0  0.26756  0.87690  0.26027  1.0000
  C   C381      1.0  0.30652  0.79304  0.31042  1.0000
  N   N25       1.0  0.26260  0.66956  0.43150  1.0000
  C   C382      1.0  0.27705  0.66114  0.44654  1.0000
  C   C383      1.0  0.27938  0.68205  0.41229  1.0000
  C   C384      1.0  0.23763  0.64408  0.42416  1.0000
  C   C385      1.0  0.25723  0.68906  0.44351  1.0000
  C   C386      1.0  0.26253  0.64553  0.46662  1.0000
  C   C387      1.0  0.30683  0.70686  0.41728  1.0000
  C   C388      1.0  0.21943  0.64767  0.40871  1.0000
  C   C389      1.0  0.25267  0.70859  0.42981  1.0000
  H   H663      1.0  0.29555  0.67918  0.45283  1.0000
  H   H664      1.0  0.27009  0.68837  0.40015  1.0000
  H   H665      1.0  0.24193  0.62944  0.41613  1.0000
  H   H666      1.0  0.22548  0.63337  0.43808  1.0000
  H   H667      1.0  0.24007  0.67765  0.45383  1.0000
  H   H668      1.0  0.27393  0.70242  0.45476  1.0000
  H   H669      1.0  0.24722  0.62418  0.46236  1.0000
  H   H670      1.0  0.27654  0.64435  0.47779  1.0000
  H   H671      1.0  0.13304  0.96081  0.47625  1.0000
  H   H672      1.0  0.31994  0.70047  0.42411  1.0000
  H   H673      1.0  0.31547  0.71710  0.40200  1.0000
  H   H674      1.0  0.21061  0.65807  0.41690  1.0000
  H   H675      1.0  0.20310  0.62723  0.40333  1.0000
  H   H676      1.0  0.22900  0.65826  0.39389  1.0000
  H   H677      1.0  0.23790  0.71166  0.43762  1.0000
  H   H678      1.0  0.24542  0.70155  0.41308  1.0000
  H   H679      1.0  0.27060  0.72910  0.42967  1.0000
  C   C390      1.0  0.32114  0.83675  0.29341  1.0000
  H   H680      1.0  0.25916  0.51650  0.30880  1.0000
  C   C391      1.0  0.27374  0.78521  0.27172  1.0000
  H   H681      1.0  0.28195  0.66667  0.40348  1.0000
  H   H682      1.0  0.28285  0.64817  0.43779  1.0000
  H   H683      1.0  0.08749  0.84528  0.41492  1.0000
  H   H684      1.0  0.04023  0.68065  0.29634  1.0000
  S   S119      1.0  0.12272  0.90645  0.48072  1.0000
  H   H685      1.0  0.30256  0.86512  0.31993  1.0000
  C   C392      1.0  0.31423  0.85432  0.27946  1.0000
  H   H686      1.0  0.26861  0.83790  0.31645  1.0000
  H   H687      1.0  0.42023  0.63738  0.38080  1.0000
  C   C393      1.0  0.10446  0.70415  0.25143  1.0000
  N   N26       1.0  0.15526  0.88850  0.42215  1.0000
  H   H688      1.0  0.34729  0.82172  0.32145  1.0000
  H   H689      1.0  0.39175  0.63274  0.42287  1.0000
  C   C394      1.0  0.10772  0.85078  0.41170  1.0000
  H   H690      1.0  0.49257  0.57539  0.25218  1.0000
  H   H691      1.0  0.10953  0.85176  0.39396  1.0000
  H   H692      1.0  0.16532  0.91162  0.45232  1.0000
  C   C395      1.0  0.10330  0.68436  0.26493  1.0000
  C   C396      1.0  0.28695  0.84537  0.32591  1.0000
  H   H693      1.0  0.28090  0.80712  0.33635  1.0000
  C   C397      1.0  0.16085  0.86840  0.38606  1.0000
  C   C398      1.0  0.27386  0.79957  0.29295  1.0000
  C   C399      1.0  0.33737  0.66584  0.48802  1.0000
  C   C400      1.0  0.19794  0.96728  0.49405  1.0000
  H   H694      1.0  0.38759  0.63103  0.38249  1.0000
  H   H695      1.0  0.17929  0.86838  0.38592  1.0000
  H   H696      1.0  0.15231  0.86482  0.44992  1.0000
  H   H697      1.0  0.34974  0.68761  0.48645  1.0000
  C   C401      1.0  0.16052  0.86878  0.43350  1.0000
  C   C402      1.0  0.19722  0.99108  0.49106  1.0000
  H   H698      1.0  0.41442  0.71874  0.42277  1.0000
  C   C403      1.0  0.18945  0.87771  0.43615  1.0000
  C   C404      1.0  0.40980  0.64399  0.41354  1.0000
  H   H699      1.0  0.42424  0.63999  0.42140  1.0000
  H   H700      1.0  0.39277  0.67169  0.38921  1.0000
  H   H701      1.0  0.39917  0.65119  0.45576  1.0000
  H   H702      1.0  0.26500  0.88933  0.27201  1.0000
  H   H703      1.0  0.15056  0.84857  0.42536  1.0000
  C   C405      1.0  0.33004  0.80221  0.32603  1.0000
  C   C406      1.0  0.12663  0.87851  0.42285  1.0000
  C   C407      1.0  0.40802  0.67337  0.45377  1.0000
  C   C408      1.0  0.16445  0.89331  0.39926  1.0000
  C   C409      1.0  0.46139  0.71836  0.40152  1.0000
  N   N27       1.0  0.29936  0.81407  0.30559  1.0000
  H   H704      1.0  0.29365  0.58799  0.49397  1.0000
  C   C410      1.0  0.19708  0.78809  0.49257  1.0000
  H   H705      1.0  0.27407  0.76646  0.27483  1.0000
  H   H706      1.0  0.18250  0.78780  0.48110  1.0000
  H   H707      1.0  0.99839  0.64522  0.30093  1.0000
  C   C411      1.0  0.22358  0.80516  0.48183  1.0000
  S   S120      1.0  0.49120  0.74461  0.33933  1.0000
  C   C412      1.0  0.99416  0.60634  0.27038  1.0000
  C   C413      1.0  0.17538  0.94127  0.49093  1.0000
  H   H708      1.0  0.19261  0.76669  0.49285  1.0000
  C   C414      1.0  0.99881  0.65834  0.28776  1.0000
  H   H709      1.0  0.00945  0.61778  0.28307  1.0000
  H   H710      1.0  0.25533  0.77860  0.26249  1.0000
  S   S121      1.0  0.02762  0.77154  0.49052  1.0000
  H   H711      1.0  0.23983  0.80637  0.49149  1.0000
  H   H712      1.0  0.99677  0.76941  0.44818  1.0000
  H   H713      1.0  0.00157  0.59643  0.25966  1.0000
  H   H714      1.0  0.29003  0.79880  0.26138  1.0000
  H   H715      1.0  0.17626  0.92320  0.49341  1.0000
  C   C415      1.0  0.30580  0.60979  0.49241  1.0000
  Fe  Fe58      1.0  0.07063  0.80533  0.49537  1.0000
  H   H716      1.0  0.12069  0.72492  0.25312  1.0000
  C   C416      1.0  0.27796  0.51792  0.54876  1.0000
  Fe  Fe59      1.0  0.18500  0.76981  0.64585  1.0000
  S   S122      1.0  0.17306  0.72830  0.65799  1.0000
  S   S123      1.0  0.17419  0.76968  0.61027  1.0000
  Fe  Fe60      1.0  0.20903  0.79704  0.69011  1.0000
  S   S124      1.0  0.19849  0.75740  0.70523  1.0000
  S   S125      1.0  0.22461  0.83760  0.70858  1.0000
  Fe  Fe61      1.0  0.21256  0.74848  0.67437  1.0000
  S   S126      1.0  0.23647  0.72821  0.67864  1.0000
  Fe  Fe62      1.0  0.15986  0.73994  0.68771  1.0000
  S   S127      1.0  0.11866  0.71098  0.69915  1.0000
  S   S128      1.0  0.22579  0.78952  0.66039  1.0000
  S   S129      1.0  0.16914  0.78008  0.67444  1.0000
  Fe  Fe63      1.0  0.30819  0.61170  0.61742  1.0000
  S   S130      1.0  0.32114  0.65337  0.63168  1.0000
  S   S131      1.0  0.30224  0.57705  0.63882  1.0000
  Fe  Fe64      1.0  0.31485  0.63099  0.57077  1.0000
  S   S132      1.0  0.32850  0.67386  0.58157  1.0000
  S   S133      1.0  0.30726  0.61154  0.53681  1.0000
  Fe  Fe65      1.0  0.35268  0.66902  0.60730  1.0000
  S   S134      1.0  0.39347  0.70618  0.61409  1.0000
  Fe  Fe66      1.0  0.29622  0.65571  0.60534  1.0000
  S   S135      1.0  0.27091  0.67471  0.60564  1.0000
  S   S136      1.0  0.34151  0.62738  0.59464  1.0000
  S   S137      1.0  0.28080  0.61273  0.59290  1.0000
  Fe  Fe67      1.0  0.11826  0.83107  0.52672  1.0000
  S   S138      1.0  0.08855  0.84225  0.51770  1.0000
  S   S139      1.0  0.13505  0.83910  0.56118  1.0000
  C   C417      1.0  0.25055  0.85362  0.72813  1.0000
  H   H717      1.0  0.25192  0.56016  0.56119  1.0000
  H   H718      1.0  0.20998  0.50461  0.62771  1.0000
  C   C418      1.0  0.25550  0.87773  0.73877  1.0000
  C   C419      1.0  0.10435  0.69427  0.72339  1.0000
  C   C420      1.0  0.07706  0.67922  0.72442  1.0000
  C   C421      1.0  0.19088  0.98899  0.55190  1.0000
  H   H719      1.0  0.06537  0.67864  0.71073  1.0000
  C   C422      1.0  0.22237  0.50698  0.70267  1.0000
  C   C423      1.0  0.21652  0.79953  0.52912  1.0000
  H   H720      1.0  0.13865  0.66491  0.71974  1.0000
  H   H721      1.0  0.13070  0.67274  0.67228  1.0000
  C   C424      1.0  0.24561  0.71318  0.65813  1.0000
  C   C425      1.0  0.25821  0.69927  0.66400  1.0000
  C   C426      1.0  0.26609  0.68732  0.64822  1.0000
  C   C427      1.0  0.26137  0.68912  0.62635  1.0000
  C   C428      1.0  0.24859  0.70286  0.62052  1.0000
  C   C429      1.0  0.24077  0.71485  0.63627  1.0000
  H   H722      1.0  0.26193  0.69774  0.68087  1.0000
  H   H723      1.0  0.27552  0.67646  0.65297  1.0000
  H   H724      1.0  0.24473  0.70426  0.60365  1.0000
  H   H725      1.0  0.23105  0.72542  0.63149  1.0000
  C   C430      1.0  0.16080  0.78786  0.59848  1.0000
  C   C431      1.0  0.16663  0.81332  0.60661  1.0000
  C   C432      1.0  0.15809  0.82847  0.59526  1.0000
  C   C433      1.0  0.14352  0.81832  0.57577  1.0000
  C   C434      1.0  0.13686  0.79244  0.56809  1.0000
  C   C435      1.0  0.14565  0.77744  0.57930  1.0000
  H   H726      1.0  0.17834  0.82165  0.62130  1.0000
  H   H727      1.0  0.16319  0.84837  0.60146  1.0000
  H   H728      1.0  0.12525  0.78416  0.55336  1.0000
  H   H729      1.0  0.14079  0.75765  0.57303  1.0000
  C   C436      1.0  0.46010  0.70763  0.65337  1.0000
  C   C437      1.0  0.43584  0.68331  0.65052  1.0000
  C   C438      1.0  0.41527  0.68254  0.63863  1.0000
  C   C439      1.0  0.41865  0.70621  0.62955  1.0000
  C   C440      1.0  0.44285  0.73064  0.63255  1.0000
  C   C441      1.0  0.46350  0.73137  0.64433  1.0000
  H   H730      1.0  0.43295  0.66485  0.65750  1.0000
  H   H731      1.0  0.39679  0.66361  0.63653  1.0000
  H   H732      1.0  0.44566  0.74909  0.62566  1.0000
  C   C442      1.0  0.34811  0.94338  0.73063  1.0000
  C   C443      1.0  0.33092  0.65490  0.50877  1.0000
  C   C444      1.0  0.31522  0.62674  0.51110  1.0000
  C   C445      1.0  0.13301  0.77922  0.72727  1.0000
  H   H733      1.0  0.33834  0.66820  0.52295  1.0000
  H   H734      1.0  0.48489  0.69003  0.57280  1.0000
  H   H735      1.0  0.21246  0.84998  0.54295  1.0000
  C   C446      1.0  0.31642  0.54492  0.57175  1.0000
  C   C447      1.0  0.25019  0.53666  0.63241  1.0000
  C   C448      1.0  0.27467  0.54377  0.64086  1.0000
  C   C449      1.0  0.27752  0.52389  0.65127  1.0000
  N   N28       1.0  0.14927  0.65449  0.68938  1.0000
  N   N29       1.0  0.32745  0.97286  0.72540  1.0000
  H   H736      1.0  0.24764  0.55188  0.62472  1.0000
  H   H737      1.0  0.29638  0.52924  0.65794  1.0000
  H   H738      1.0  0.16003  0.66685  0.64262  1.0000
  N   N30       1.0  0.16278  0.93629  0.55560  1.0000
  C   C450      1.0  0.13937  0.91228  0.54439  1.0000
  C   C451      1.0  0.18634  0.93474  0.55036  1.0000
  C   C452      1.0  0.16556  0.96180  0.54637  1.0000
  C   C453      1.0  0.15805  0.93505  0.57951  1.0000
  C   C454      1.0  0.11385  0.91249  0.54503  1.0000
  C   C455      1.0  0.18419  0.90742  0.55506  1.0000
  C   C456      1.0  0.17913  0.50983  0.73354  1.0000
  C   C457      1.0  0.18219  0.94831  0.59494  1.0000
  H   H739      1.0  0.14321  0.91065  0.52711  1.0000
  H   H740      1.0  0.13502  0.89272  0.55148  1.0000
  H   H741      1.0  0.20411  0.95091  0.55908  1.0000
  H   H742      1.0  0.19072  0.93860  0.53302  1.0000
  H   H743      1.0  0.16381  0.95995  0.52849  1.0000
  H   H744      1.0  0.14946  0.96462  0.55144  1.0000
  H   H745      1.0  0.14639  0.94440  0.58354  1.0000
  H   H746      1.0  0.14597  0.91354  0.58462  1.0000
  H   H747      1.0  0.11432  0.92774  0.53401  1.0000
  H   H748      1.0  0.09740  0.89239  0.53920  1.0000
  H   H749      1.0  0.10945  0.91610  0.56157  1.0000
  H   H750      1.0  0.20384  0.91011  0.55521  1.0000
  H   H751      1.0  0.17544  0.89932  0.57082  1.0000
  H   H752      1.0  0.17244  0.89198  0.54219  1.0000
  H   H753      1.0  0.29175  0.93355  0.72000  1.0000
  H   H754      1.0  0.28963  0.97651  0.70208  1.0000
  C   C458      1.0  0.16886  0.77654  0.52303  1.0000
  H   H755      1.0  0.19655  0.96961  0.59122  1.0000
  H   H756      1.0  0.12708  0.75819  0.51869  1.0000
  H   H757      1.0  0.20863  0.98907  0.54736  1.0000
  C   C459      1.0  0.15486  0.67379  0.70833  1.0000
  H   H758      1.0  0.20040  0.52268  0.73198  1.0000
  H   H759      1.0  0.15654  0.69297  0.70282  1.0000
  H   H760      1.0  0.17870  0.82324  0.54353  1.0000
  H   H761      1.0  0.18275  0.68925  0.67589  1.0000
  H   H762      1.0  0.16730  0.75640  0.52373  1.0000
  H   H763      1.0  0.23938  0.52460  0.56156  1.0000
  C   C460      1.0  0.19403  0.83812  0.53326  1.0000
  C   C461      1.0  0.28592  0.53817  0.53029  1.0000
  H   H764      1.0  0.27834  0.55193  0.53235  1.0000
  N   N31       1.0  0.19501  0.79770  0.51483  1.0000
  H   H765      1.0  0.17899  0.66477  0.72991  1.0000
  H   H766      1.0  0.21853  0.52376  0.70122  1.0000
  H   H767      1.0  0.24118  0.54254  0.58581  1.0000
  H   H768      1.0  0.29282  0.57086  0.56843  1.0000
  S   S140      1.0  0.09873  0.79257  0.50631  1.0000
  N   N32       1.0  0.28704  0.53059  0.57109  1.0000
  C   C462      1.0  0.17325  0.66675  0.67588  1.0000
  H   H769      1.0  0.13955  0.79881  0.71930  1.0000
  H   H770      1.0  0.26240  0.82433  0.72553  1.0000
  H   H771      1.0  0.08533  0.63824  0.67756  1.0000
  H   H772      1.0  0.35147  0.56786  0.59207  1.0000
  N   N33       1.0  0.35115  0.75017  0.63440  1.0000
  C   C463      1.0  0.35821  0.75428  0.61092  1.0000
  C   C464      1.0  0.37560  0.76942  0.64740  1.0000
  C   C465      1.0  0.33082  0.75763  0.63776  1.0000
  C   C466      1.0  0.34058  0.72068  0.63926  1.0000
  C   C467      1.0  0.33533  0.74020  0.59430  1.0000
  C   C468      1.0  0.39834  0.76450  0.64502  1.0000
  C   C469      1.0  0.32258  0.75794  0.66104  1.0000
  C   C470      1.0  0.34068  0.71339  0.66318  1.0000
  H   H773      1.0  0.36921  0.77635  0.60725  1.0000
  H   H774      1.0  0.37136  0.74667  0.60699  1.0000
  H   H775      1.0  0.37218  0.76918  0.66483  1.0000
  H   H776      1.0  0.38284  0.79085  0.64297  1.0000
  H   H777      1.0  0.33747  0.77812  0.63127  1.0000
  H   H778      1.0  0.31241  0.74312  0.62870  1.0000
  H   H779      1.0  0.32030  0.70776  0.63269  1.0000
  H   H780      1.0  0.35179  0.71316  0.63063  1.0000
  H   H781      1.0  0.32400  0.75043  0.59364  1.0000
  H   H782      1.0  0.34305  0.74132  0.57799  1.0000
  H   H783      1.0  0.32220  0.71842  0.59756  1.0000
  H   H784      1.0  0.40664  0.76950  0.62876  1.0000
  H   H785      1.0  0.41430  0.77803  0.65671  1.0000
  H   H786      1.0  0.39262  0.74331  0.64856  1.0000
  H   H787      1.0  0.30766  0.76381  0.66082  1.0000
  H   H788      1.0  0.33879  0.77309  0.67172  1.0000
  H   H789      1.0  0.31300  0.73746  0.66795  1.0000
  H   H790      1.0  0.32123  0.69580  0.66694  1.0000
  H   H791      1.0  0.34511  0.72958  0.67525  1.0000
  H   H792      1.0  0.35460  0.70643  0.66586  1.0000
  H   H793      1.0  0.19767  0.69333  0.71259  1.0000
  H   H794      1.0  0.18919  0.66621  0.64491  1.0000
  C   C471      1.0  0.13439  0.60386  0.68160  1.0000
  C   C472      1.0  0.45831  0.69650  0.59037  1.0000
  H   H795      1.0  0.27744  0.52663  0.51482  1.0000
  C   C473      1.0  0.12647  0.65217  0.67677  1.0000
  H   H796      1.0  0.21780  0.84044  0.50762  1.0000
  C   C474      1.0  0.33009  0.55585  0.59405  1.0000
  C   C475      1.0  0.48322  0.70774  0.57727  1.0000
  H   H797      1.0  0.15133  0.60369  0.67500  1.0000
  H   H798      1.0  0.16095  0.62990  0.70642  1.0000
  C   C476      1.0  0.14340  0.62764  0.69808  1.0000
  C   C477      1.0  0.17977  0.68230  0.72203  1.0000
  H   H799      1.0  0.44216  0.67828  0.58176  1.0000
  H   H800      1.0  0.22007  0.78286  0.52482  1.0000
  H   H801      1.0  0.12208  0.60387  0.66819  1.0000
  H   H802      1.0  0.46056  0.68995  0.60655  1.0000
  H   H803      1.0  0.12279  0.64099  0.66116  1.0000
  C   C478      1.0  0.10021  0.63785  0.68815  1.0000
  H   H804      1.0  0.17080  0.78524  0.72225  1.0000
  H   H805      1.0  0.28324  0.55708  0.59388  1.0000
  H   H806      1.0  0.32291  0.53121  0.56546  1.0000
  C   C479      1.0  0.27970  0.55137  0.57643  1.0000
  H   H807      1.0  0.19194  0.99536  0.56896  1.0000
  C   C480      1.0  0.27702  0.50867  0.58763  1.0000
  H   H808      1.0  0.15898  0.63569  0.64912  1.0000
  C   C481      1.0  0.25150  0.54382  0.57083  1.0000
  C   C482      1.0  0.22886  0.50990  0.63427  1.0000
  C   C483      1.0  0.16968  0.65797  0.65185  1.0000
  H   H809      1.0  0.19196  0.93645  0.59517  1.0000
  H   H810      1.0  0.35449  0.98188  0.69964  1.0000
  H   H811      1.0  0.09328  0.61620  0.69108  1.0000
  H   H812      1.0  0.48197  0.75027  0.64655  1.0000
  H   H813      1.0  0.32510  0.56282  0.56117  1.0000
  H   H814      1.0  0.23066  0.80211  0.56221  1.0000
  H   H815      1.0  0.21609  0.96905  0.49902  1.0000
  H   H816      1.0  0.32605  0.53924  0.60512  1.0000
  H   H817      1.0  0.18707  0.83036  0.73818  1.0000
  H   H818      1.0  0.32478  0.56971  0.60166  1.0000
  H   H819      1.0  0.17117  0.52337  0.73199  1.0000
  H   H820      1.0  0.18722  0.85198  0.52855  1.0000
  S   S141      1.0  0.48537  0.70701  0.66818  1.0000
  C   C484      1.0  0.33645  0.95918  0.74085  1.0000
  H   H821      1.0  0.48830  0.74941  0.60276  1.0000
  C   C485      1.0  0.30641  0.95113  0.71072  1.0000
  C   C486      1.0  0.29184  0.95995  0.69542  1.0000
  H   H822      1.0  0.12891  0.62077  0.71104  1.0000
  H   H823      1.0  0.30728  0.55043  0.52847  1.0000
  H   H824      1.0  0.18819  0.66298  0.68299  1.0000
  C   C487      1.0  0.14498  0.77242  0.51008  1.0000
  H   H825      1.0  0.36530  0.95651  0.72094  1.0000
  H   H826      1.0  0.31458  0.94185  0.70008  1.0000
  H   H827      1.0  0.45195  0.71137  0.59193  1.0000
  H   H828      1.0  0.04362  0.65335  0.74350  1.0000
  H   H829      1.0  0.25659  0.50449  0.54722  1.0000
  H   H830      1.0  0.24340  0.88599  0.73495  1.0000
  H   H831      1.0  0.20710  0.81187  0.56027  1.0000
  C   C488      1.0  0.15655  0.77763  0.73539  1.0000
  H   H832      1.0  0.10083  0.64830  0.70345  1.0000
  H   H833      1.0  0.33337  0.92534  0.72094  1.0000
  C   C489      1.0  0.35076  0.99271  0.71275  1.0000
  H   H834      1.0  0.19730  0.77648  0.55810  1.0000
  H   H835      1.0  0.16627  0.78117  0.53977  1.0000
  C   C490      1.0  0.26601  0.84289  0.73349  1.0000
  H   H836      1.0  0.12170  0.76278  0.71489  1.0000
  H   H837      1.0  0.27165  0.94252  0.69245  1.0000
  H   H838      1.0  0.14989  0.75575  0.73639  1.0000
  C   C491      1.0  0.19794  0.82526  0.51285  1.0000
  H   H839      1.0  0.12186  0.58434  0.68972  1.0000
  C   C492      1.0  0.06463  0.66478  0.74297  1.0000
  H   H840      1.0  0.23146  0.50783  0.71854  1.0000
  C   C493      1.0  0.21234  0.79747  0.55370  1.0000
  H   H841      1.0  0.28530  0.50411  0.54512  1.0000
  H   H842      1.0  0.28205  0.51787  0.60422  1.0000
  H   H843      1.0  0.30154  0.96606  0.67971  1.0000
  C   C494      1.0  0.31788  0.98780  0.73886  1.0000
  H   H844      1.0  0.14538  0.79177  0.50871  1.0000
  C   C495      1.0  0.11917  0.69469  0.74117  1.0000
  H   H845      1.0  0.23714  0.51084  0.69052  1.0000
  H   H846      1.0  0.47953  0.71456  0.56162  1.0000
  H   H847      1.0  0.11971  0.77673  0.74032  1.0000
  H   H848      1.0  0.23523  0.81887  0.52658  1.0000
  H   H849      1.0  0.35484  0.93535  0.74374  1.0000
  H   H850      1.0  0.14013  0.70592  0.74059  1.0000
  H   H851      1.0  0.17585  0.94839  0.61163  1.0000
  C   C496      1.0  0.99613  0.78989  0.50674  1.0000
  H   H852      1.0  0.18161  0.69665  0.73512  1.0000
  H   H853      1.0  0.27597  0.95646  0.73992  1.0000
  H   H854      1.0  0.20758  0.80317  0.74604  1.0000
  H   H855      1.0  0.01363  0.80973  0.50887  1.0000
  S   S142      1.0  0.14565  0.85621  0.50095  1.0000
  H   H856      1.0  0.18520  0.82530  0.49966  1.0000
  C   C497      1.0  0.99777  0.76801  0.49863  1.0000
  Fe  Fe68      1.0  0.34046  0.93839  0.79638  1.0000
  S   S143      1.0  0.35282  0.94164  0.83146  1.0000
  H   H857      1.0  0.18017  0.75040  0.75072  1.0000
  Fe  Fe69      1.0  0.19352  0.94060  0.99764  1.0000
  Fe  Fe70      1.0  0.39375  0.97128  0.82084  1.0000
  S   S144      1.0  0.42760  0.96840  0.83598  1.0000
  Fe  Fe71      1.0  0.34718  0.97740  0.83400  1.0000
  C   C498      1.0  0.46636  0.98304  0.80555  1.0000
  S   S145      1.0  0.38159  0.96573  0.78594  1.0000
  S   S146      1.0  0.33217  0.97229  0.79937  1.0000
  S   S147      1.0  0.01298  0.59178  0.82002  1.0000
  S   S148      1.0  0.06486  0.64724  0.78455  1.0000
  C   C499      1.0  0.07928  0.82390  0.98861  1.0000
  H   H858      1.0  0.44435  0.92896  0.78206  1.0000
  H   H859      1.0  0.03455  0.74286  0.95221  1.0000
  Fe  Fe72      1.0  0.24538  0.96160  0.97421  1.0000
  S   S149      1.0  0.21103  0.96684  0.96868  1.0000
  H   H860      1.0  0.06267  0.73076  0.87876  1.0000
  H   H861      1.0  0.38625  0.97401  0.86754  1.0000
  H   H862      1.0  0.35137  0.97445  0.75252  1.0000
  H   H863      1.0  0.41019  0.50646  0.79095  1.0000
  H   H864      1.0  0.01032  0.51794  0.81497  1.0000
  H   H865      1.0  0.01072  0.69909  0.88113  1.0000
  H   H866      1.0  0.04803  0.77290  0.89757  1.0000
  H   H867      1.0  0.11728  0.74369  0.76268  1.0000
  C   C500      1.0  0.11730  0.94873  0.97842  1.0000
  C   C501      1.0  0.29099  0.98674  0.91613  1.0000
  C   C502      1.0  0.05223  0.74530  0.94467  1.0000
  H   H868      1.0  0.40121  0.95007  0.90551  1.0000
  C   C503      1.0  0.45766  0.97362  0.82618  1.0000
  C   C504      1.0  0.47327  0.96791  0.83965  1.0000
  H   H869      1.0  0.20555  0.80620  0.77432  1.0000
  H   H870      1.0  0.99523  0.71562  0.89172  1.0000
  Fe  Fe73      1.0  0.01033  0.75618  0.99022  1.0000
  H   H871      1.0  0.43667  0.87053  0.81615  1.0000
  C   C505      1.0  0.31044  0.97784  0.88480  1.0000
  C   C506      1.0  0.07940  0.66515  0.76075  1.0000
  H   H872      1.0  0.27890  0.90911  0.76294  1.0000
  C   C507      1.0  0.28087  0.96014  0.92312  1.0000
  C   C508      1.0  0.46124  0.86842  0.79014  1.0000
  C   C509      1.0  0.27580  0.89108  0.75448  1.0000
  H   H873      1.0  0.37047  0.93517  0.89045  1.0000
  H   H874      1.0  0.28751  0.98323  0.75989  1.0000
  H   H875      1.0  0.03999  0.56585  0.86415  1.0000
  H   H876      1.0  0.07703  0.73183  0.91595  1.0000
  H   H877      1.0  0.43541  0.83897  0.81350  1.0000
  H   H878      1.0  0.01906  0.52978  0.86410  1.0000
  C   C510      1.0  0.10674  0.68019  0.75971  1.0000
  C   C511      1.0  0.48787  0.90734  0.81661  1.0000
  C   C512      1.0  0.01979  0.54885  0.86042  1.0000
  H   H879      1.0  0.11688  0.99220  0.98136  1.0000
  H   H880      1.0  0.40665  0.98620  0.92936  1.0000
  C   C513      1.0  0.30009  0.95115  0.89166  1.0000
  C   C514      1.0  0.39187  0.94899  0.88969  1.0000
  H   H881      1.0  0.44997  0.92117  0.80823  1.0000
  H   H882      1.0  0.46666  0.90896  0.76497  1.0000
  H   H883      1.0  0.10579  0.81910  0.96885  1.0000
  H   H884      1.0  0.18530  0.83504  0.78784  1.0000
  Fe  Fe74      1.0  0.02170  0.61996  0.79230  1.0000
  H   H885      1.0  0.41867  0.98685  0.87564  1.0000
  H   H886      1.0  0.47066  0.85634  0.79287  1.0000
  H   H887      1.0  0.41905  0.84773  0.79400  1.0000
  H   H888      1.0  0.15552  0.95482  0.95408  1.0000
  C   C515      1.0  0.19226  0.76599  0.76329  1.0000
  H   H889      1.0  0.18507  0.75842  0.77955  1.0000
  C   C516      1.0  0.17600  0.99643  0.94399  1.0000
  H   H890      1.0  0.12260  0.93318  0.98147  1.0000
  H   H891      1.0  0.15861  0.82335  0.75159  1.0000
  H   H892      1.0  0.08987  0.95114  0.95556  1.0000
  H   H893      1.0  0.14249  0.73883  0.77330  1.0000
  C   C517      1.0  0.15209  0.78177  0.77530  1.0000
  C   C518      1.0  0.47175  0.91530  0.78223  1.0000
  H   H894      1.0  0.00290  0.57256  0.86744  1.0000
  H   H895      1.0  0.13977  0.79087  0.77703  1.0000
  H   H896      1.0  0.32035  0.94432  0.75077  1.0000
  H   H897      1.0  0.34196  0.98140  0.92818  1.0000
  H   H898      1.0  0.10850  0.95047  0.99350  1.0000
  C   C519      1.0  0.19304  0.84271  0.77174  1.0000
  C   C520      1.0  0.44761  0.91443  0.79113  1.0000
  C   C521      1.0  0.28557  0.94248  0.91066  1.0000
  C   C522      1.0  0.39888  0.97730  0.88198  1.0000
  H   H899      1.0  0.18292  0.98976  0.93009  1.0000
  C   C523      1.0  0.36899  0.97992  0.90622  1.0000
  H   H900      1.0  0.02657  0.73505  0.87979  1.0000
  H   H901      1.0  0.47208  0.90758  0.82518  1.0000
  H   H902      1.0  0.21201  0.76896  0.76263  1.0000
  N   N34       1.0  0.48092  0.89842  0.79321  1.0000
  C   C524      1.0  0.30565  0.99547  0.89719  1.0000
  H   H903      1.0  0.48775  0.93703  0.78233  1.0000
  C   C525      1.0  0.13293  0.75063  0.77528  1.0000
  H   H904      1.0  0.03107  0.70230  0.91280  1.0000
  C   C526      1.0  0.02361  0.76925  0.92346  1.0000
  H   H905      1.0  0.00883  0.55842  0.89044  1.0000
  C   C527      1.0  0.04783  0.76976  0.91508  1.0000
  C   C528      1.0  0.02650  0.71873  0.91269  1.0000
  H   H906      1.0  0.09652  0.75417  0.88286  1.0000
  C   C529      1.0  0.15139  0.97152  0.95246  1.0000
  C   C530      1.0  0.01455  0.71774  0.89013  1.0000
  H   H907      1.0  0.07580  0.76738  0.88002  1.0000
  C   C531      1.0  0.07704  0.75043  0.88686  1.0000
  H   H908      1.0  0.29839  0.84797  0.75300  1.0000
  H   H909      1.0  0.27787  0.92185  0.91579  1.0000
  H   H910      1.0  0.09972  0.92743  0.94727  1.0000
  N   N35       1.0  0.04989  0.74543  0.92041  1.0000
  H   H911      1.0  0.47990  0.86880  0.83089  1.0000
  H   H912      1.0  0.16401  0.78751  0.79056  1.0000
  C   C532      1.0  0.00084  0.55344  0.87357  1.0000
  H   H913      1.0  0.05492  0.72372  0.97197  1.0000
  H   H914      1.0  0.02558  0.77397  0.94100  1.0000
  H   H915      1.0  0.06522  0.78883  0.92174  1.0000
  N   N36       1.0  0.14112  0.97569  0.97324  1.0000
  H   H916      1.0  0.38860  0.51290  0.77520  1.0000
  H   H917      1.0  0.21368  0.84836  0.77118  1.0000
  H   H918      1.0  0.06883  0.76515  0.95106  1.0000
  C   C533      1.0  0.09501  0.93629  0.96118  1.0000
  H   H919      1.0  0.13669  0.96494  0.93906  1.0000
  H   H920      1.0  0.36519  0.96166  0.91517  1.0000
  S   S150      1.0  0.31777  0.89661  0.77897  1.0000
  H   H921      1.0  0.02175  0.78540  0.91562  1.0000
  C   C534      1.0  0.36121  0.99583  0.92142  1.0000
  C   C535      1.0  0.07459  0.74903  0.91151  1.0000
  C   C536      1.0  0.19455  0.79356  0.75982  1.0000
  H   H922      1.0  0.39867  0.93960  0.87777  1.0000
  S   S151      1.0  0.05261  0.78989  0.98234  1.0000
  H   H923      1.0  0.09183  0.76782  0.91869  1.0000
  H   H924      1.0  0.01052  0.71235  0.92423  1.0000
  H   H925      1.0  0.07515  0.72582  0.95078  1.0000
  H   H926      1.0  0.12313  0.74502  0.79097  1.0000
  H   H927      1.0  0.07737  0.91915  0.96827  1.0000
  S   S152      1.0  0.26284  0.94793  0.94735  1.0000
  H   H928      1.0  0.16809  0.96828  0.99071  1.0000
  C   C537      1.0  0.05580  0.72275  0.95414  1.0000
  H   H929      1.0  0.04010  0.70208  0.94869  1.0000
  C   C538      1.0  0.29264  0.96981  0.75102  1.0000
  H   H930      1.0  0.30343  0.93721  0.88244  1.0000
  H   H931      1.0  0.11833  0.68053  0.77337  1.0000
  C   C539      1.0  0.29164  0.88066  0.75953  1.0000
  H   H932      1.0  0.42972  0.89424  0.78845  1.0000
  H   H933      1.0  0.00528  0.74963  0.91999  1.0000
  C   C540      1.0  0.43700  0.85619  0.80435  1.0000
  C   C541      1.0  0.12288  0.87788  0.99704  1.0000
  C   C542      1.0  0.16122  0.98286  0.99105  1.0000
  H   H934      1.0  0.46693  0.96074  0.85568  1.0000
  H   H935      1.0  0.44330  0.98957  0.91605  1.0000
  H   H936      1.0  0.01640  0.54939  0.84289  1.0000
  H   H937      1.0  0.48898  0.87972  0.75263  1.0000
  H   H938      1.0  0.29489  0.95739  0.76325  1.0000
  S   S153      1.0  0.99649  0.63524  0.80468  1.0000
  N   N37       1.0  0.16947  0.79314  0.75619  1.0000
  N   N38       1.0  0.39653  0.99540  0.89843  1.0000
  S   S154      1.0  0.33068  0.99085  0.86177  1.0000
  S   S155      1.0  0.00383  0.71377  0.99158  1.0000
  C   C543      1.0  0.10357  0.83291  0.97931  1.0000
  H   H939      1.0  0.45395  0.86360  0.77308  1.0000
  H   H940      1.0  0.19306  0.86185  0.76960  1.0000
  H   H941      1.0  0.14364  0.86588  0.97632  1.0000
  C   C544      1.0  0.17645  0.82220  0.75335  1.0000
  H   H942      1.0  0.00475  0.63218  0.91256  1.0000
  C   C545      1.0  0.49013  0.98655  0.79854  1.0000
  C   C546      1.0  0.12520  0.85954  0.98354  1.0000
  H   H943      1.0  0.35482  0.97193  0.89229  1.0000
  H   H944      1.0  0.45478  0.98768  0.79497  1.0000
  H   H945      1.0  0.17500  0.50195  0.75008  1.0000
  C   C547      1.0  0.13345  0.99675  0.97092  1.0000
  H   H946      1.0  0.12608  0.99608  0.95419  1.0000
  C   C548      1.0  0.28643  0.85637  0.74908  1.0000
  H   H947      1.0  0.99855  0.49931  0.89080  1.0000
  Fe  Fe75      1.0  0.95896  0.32268  0.20827  1.0000
  S   S156      1.0  0.94451  0.33063  0.17736  1.0000
  H   H948      1.0  0.58528  0.49677  0.08344  1.0000
  Fe  Fe76      1.0  0.97385  0.32402  0.16037  1.0000
  S   S157      1.0  0.96099  0.29367  0.13123  1.0000
  C   C549      1.0  0.95810  0.12441  0.03152  1.0000
  C   C550      1.0  0.88565  0.33734  0.19308  1.0000
  H   H949      1.0  0.97420  0.34353  0.01305  1.0000
  H   H950      1.0  0.64258  0.43198  0.24328  1.0000
  S   S158      1.0  0.64999  0.05405  0.21063  1.0000
  S   S159      1.0  0.98611  0.31301  0.19130  1.0000
  N   N39       1.0  0.77353  0.14309  0.22426  1.0000
  H   H951      1.0  0.95323  0.48525  0.17748  1.0000
  C   C551      1.0  0.50964  0.49241  0.19105  1.0000
  C   C552      1.0  0.83992  0.07461  0.01125  1.0000
  C   C553      1.0  0.85688  0.26319  0.23526  1.0000
  H   H952      1.0  0.89410  0.06211  0.00265  1.0000
  C   C554      1.0  0.68434  0.05483  0.24179  1.0000
  H   H953      1.0  0.91270  0.37979  0.19833  1.0000
  C   C555      1.0  0.97302  0.28915  0.10626  1.0000
  C   C556      1.0  0.95935  0.26363  0.09527  1.0000
  C   C557      1.0  0.96841  0.25870  0.07585  1.0000
  C   C558      1.0  0.88215  0.11314  0.00009  1.0000
  H   H954      1.0  0.94162  0.24744  0.10190  1.0000
  H   H955      1.0  0.95762  0.23891  0.06779  1.0000
  H   H956      1.0  0.68762  0.01847  0.07987  1.0000
  H   H957      1.0  0.67851  0.03458  0.23591  1.0000
  H   H958      1.0  0.52474  0.49425  0.13446  1.0000
  N   N40       1.0  0.90430  0.36245  0.23010  1.0000
  H   H959      1.0  0.55219  0.46825  0.15719  1.0000
  H   H960      1.0  0.66300  0.00546  0.11376  1.0000
  Fe  Fe77      1.0  0.62623  0.00943  0.19881  1.0000
  H   H961      1.0  0.93970  0.36911  0.21615  1.0000
  H   H962      1.0  0.61541  0.02451  0.11507  1.0000
  H   H963      1.0  0.96510  0.31232  0.02718  1.0000
  C   C559      1.0  0.95793  0.45036  0.17862  1.0000
  H   H964      1.0  0.83444  0.17363  0.21971  1.0000
  H   H965      1.0  0.74376  0.13874  0.20125  1.0000
  H   H966      1.0  0.73154  0.11638  0.22309  1.0000
  C   C560      1.0  0.74545  0.10272  0.19728  1.0000
  H   H967      1.0  0.58927  0.01407  0.09590  1.0000
  H   H968      1.0  0.72614  0.09248  0.18872  1.0000
  C   C561      1.0  0.77895  0.12390  0.23637  1.0000
  H   H969      1.0  0.95013  0.41339  0.22733  1.0000
  C   C562      1.0  0.59631  0.00690  0.10938  1.0000
  H   H970      1.0  0.52857  0.45263  0.13489  1.0000
  H   H971      1.0  0.90513  0.08548  0.02499  1.0000
  N   N41       1.0  0.96058  0.11047  0.01171  1.0000
  Fe  Fe78      1.0  0.97686  0.37473  0.18259  1.0000
  C   C563      1.0  0.88306  0.27658  0.22901  1.0000
  H   H972      1.0  0.76064  0.10706  0.24310  1.0000
  H   H973      1.0  0.79796  0.14500  0.19838  1.0000
  H   H974      1.0  0.74550  0.17218  0.22091  1.0000
  H   H975      1.0  0.92596  0.41981  0.21632  1.0000
  C   C564      1.0  0.53586  0.46792  0.14834  1.0000
  H   H976      1.0  0.86540  0.32178  0.19706  1.0000
  S   S160      1.0  0.91125  0.14535  0.00695  1.0000
  H   H977      1.0  0.98463  0.34464  0.04036  1.0000
  H   H978      1.0  0.78035  0.19576  0.21861  1.0000
  C   C565      1.0  0.49665  0.46806  0.20242  1.0000
  H   H979      1.0  0.58500  0.48827  0.13076  1.0000
  H   H980      1.0  0.97896  0.15336  0.05788  1.0000
  H   H981      1.0  0.78770  0.16819  0.19601  1.0000
  S   S161      1.0  0.96251  0.40493  0.17973  1.0000
  H   H982      1.0  0.88521  0.34224  0.17590  1.0000
  C   C566      1.0  0.98079  0.33366  0.02455  1.0000
  H   H983      1.0  0.88089  0.36905  0.20679  1.0000
  H   H984      1.0  0.51371  0.10065  0.19927  1.0000
  C   C567      1.0  0.77009  0.16129  0.23984  1.0000
  C   C568      1.0  0.67301  0.06841  0.23261  1.0000
  C   C569      1.0  0.89611  0.36355  0.20715  1.0000
  H   H985      1.0  0.91993  0.33622  0.22645  1.0000
  H   H986      1.0  0.86520  0.11076  0.03088  1.0000
  C   C570      1.0  0.74795  0.12601  0.21187  1.0000
  H   H987      1.0  0.95058  0.13777  0.02693  1.0000
  H   H988      1.0  0.82093  0.19195  0.23216  1.0000
  H   H989      1.0  0.87459  0.31969  0.23172  1.0000
  C   C571      1.0  0.97533  0.44095  0.18039  1.0000
  H   H990      1.0  0.67234  0.10550  0.23348  1.0000
  S   S162      1.0  0.93614  0.29777  0.23715  1.0000
  H   H991      1.0  0.89814  0.32854  0.19437  1.0000
  H   H992      1.0  0.64958  0.46167  0.22907  1.0000
  H   H993      1.0  0.83034  0.19811  0.20536  1.0000
  C   C572      1.0  0.82133  0.18160  0.21717  1.0000
  H   H994      1.0  0.84198  0.26086  0.22389  1.0000
  H   H995      1.0  0.74598  0.08681  0.20675  1.0000
  H   H996      1.0  0.88812  0.28424  0.21294  1.0000
  H   H997      1.0  0.95980  0.08085  0.03334  1.0000
  C   C573      1.0  0.76471  0.18215  0.22947  1.0000
  C   C574      1.0  0.86266  0.10049  0.01547  1.0000
  C   C575      1.0  0.79433  0.15894  0.20823  1.0000
  C   C576      1.0  0.96692  0.47852  0.17901  1.0000
  H   H998      1.0  0.53439  0.48892  0.09922  1.0000
  H   H999      1.0  0.93731  0.43574  0.17673  1.0000
  H   H1000     1.0  0.50656  0.46518  0.21588  1.0000
  H   H1001     1.0  0.94364  0.10938  0.04259  1.0000
  H   H1002     1.0  0.82538  0.06535  0.02339  1.0000
  C   C577      1.0  0.65147  0.45432  0.24504  1.0000
  C   C578      1.0  0.92694  0.35806  0.22974  1.0000
  H   H1003     1.0  0.76038  0.11021  0.18480  1.0000
  Fe  Fe79      1.0  0.99082  0.24015  0.01654  1.0000
  C   C579      1.0  0.99146  0.27923  0.06710  1.0000
  H   H1004     1.0  0.55059  0.47209  0.10585  1.0000
  C   C580      1.0  0.49776  0.08213  0.19081  1.0000
  H   H1005     1.0  0.78604  0.11390  0.22530  1.0000
  H   H1006     1.0  0.55866  0.49614  0.06911  1.0000
  H   H1007     1.0  0.91554  0.06105  0.02245  1.0000
  H   H1008     1.0  0.97775  0.28434  0.00857  1.0000
  C   C581      1.0  0.49645  0.49570  0.17370  1.0000
  C   C582      1.0  0.68097  0.09481  0.24046  1.0000
  H   H1009     1.0  0.98809  0.12873  0.05473  1.0000
  C   C583      1.0  0.88117  0.33919  0.24059  1.0000
  H   H1010     1.0  0.50698  0.07274  0.18168  1.0000
  C   C584      1.0  0.91122  0.07489  0.01361  1.0000
  H   H1011     1.0  0.86432  0.34218  0.23999  1.0000
  H   H1012     1.0  0.98273  0.25817  0.14268  1.0000
  H   H1013     1.0  0.69019  0.46376  0.23887  1.0000
  H   H1014     1.0  0.76422  0.19544  0.24236  1.0000
  C   C585      1.0  0.90260  0.28005  0.24363  1.0000
  S   S163      1.0  0.98612  0.19879  0.01927  1.0000
  H   H1015     1.0  0.96013  0.07283  0.00583  1.0000
  C   C586      1.0  0.98291  0.14176  0.04564  1.0000
  C   C587      1.0  0.96833  0.09024  0.01773  1.0000
  S   S164      1.0  0.99002  0.36686  0.21444  1.0000
  H   H1016     1.0  0.89359  0.39088  0.24163  1.0000
  C   C588      1.0  0.55407  0.49287  0.10378  1.0000
  C   C589      1.0  0.93302  0.41490  0.23119  1.0000
  C   C590      1.0  0.91103  0.38888  0.24130  1.0000
  H   H1017     1.0  0.93975  0.43249  0.24264  1.0000
  H   H1018     1.0  0.51977  0.46071  0.15982  1.0000
  H   H1019     1.0  0.96313  0.38734  0.24757  1.0000
  C   C591      1.0  0.93427  0.09542  0.00017  1.0000
  H   H1020     1.0  0.99325  0.26630  0.17025  1.0000
  S   S165      1.0  0.60941  0.00006  0.16458  1.0000
  C   C592      1.0  0.54316  0.49647  0.14084  1.0000
  H   H1021     1.0  0.58292  0.00133  0.12296  1.0000
  C   C593      1.0  0.99359  0.49788  0.18096  1.0000
  H   H1022     1.0  0.71449  0.19566  0.38934  1.0000
  H   H1023     1.0  0.49525  0.29296  0.30641  1.0000
  C   C594      1.0  0.75791  0.48738  0.39127  1.0000
  Fe  Fe80      1.0  0.68261  0.31053  0.38185  1.0000
  S   S166      1.0  0.68899  0.34628  0.40283  1.0000
  S   S167      1.0  0.71690  0.30561  0.37380  1.0000
  Fe  Fe81      1.0  0.62568  0.29114  0.37204  1.0000
  S   S168      1.0  0.62794  0.32521  0.39168  1.0000
  S   S169      1.0  0.58987  0.25556  0.35504  1.0000
  Fe  Fe82      1.0  0.66651  0.35269  0.37669  1.0000
  S   S170      1.0  0.67250  0.39360  0.36673  1.0000
  Fe  Fe83      1.0  0.65017  0.31652  0.41661  1.0000
  S   S171      1.0  0.63645  0.31741  0.45064  1.0000
  S   S172      1.0  0.66251  0.31907  0.35484  1.0000
  S   S173      1.0  0.64556  0.28041  0.39774  1.0000
  Fe  Fe84      1.0  0.75044  0.19750  0.32325  1.0000
  S   S174      1.0  0.75155  0.16149  0.33569  1.0000
  S   S175      1.0  0.71755  0.20187  0.33683  1.0000
  Fe  Fe85      1.0  0.79608  0.21241  0.29291  1.0000
  S   S176      1.0  0.80036  0.17799  0.30421  1.0000
  H   H1024     1.0  0.73634  0.47481  0.38986  1.0000
  Fe  Fe86      1.0  0.75644  0.15272  0.30121  1.0000
  S   S177      1.0  0.73706  0.10970  0.28626  1.0000
  Fe  Fe87      1.0  0.79485  0.18949  0.33774  1.0000
  S   S178      1.0  0.81930  0.19623  0.36859  1.0000
  S   S179      1.0  0.75224  0.18648  0.28857  1.0000
  S   S180      1.0  0.79374  0.22624  0.32668  1.0000
  Fe  Fe88      1.0  0.83306  0.11445  0.46905  1.0000
  S   S181      1.0  0.86022  0.09868  0.47345  1.0000
  S   S182      1.0  0.81368  0.11040  0.43592  1.0000
  H   H1025     1.0  0.59746  0.22145  0.41656  1.0000
  H   H1026     1.0  0.54767  0.27011  0.45434  1.0000
  H   H1027     1.0  0.93198  0.15280  0.41723  1.0000
  H   H1028     1.0  0.72764  0.22803  0.40354  1.0000
  H   H1029     1.0  0.56362  0.30164  0.40038  1.0000
  H   H1030     1.0  0.70376  0.19766  0.41529  1.0000
  H   H1031     1.0  0.72169  0.16431  0.37067  1.0000
  H   H1032     1.0  0.65403  0.28450  0.30276  1.0000
  H   H1033     1.0  0.78978  0.14034  0.26945  1.0000
  H   H1034     1.0  0.66904  0.27408  0.28398  1.0000
  H   H1035     1.0  0.57295  0.26654  0.40007  1.0000
  C   C595      1.0  0.53383  0.22810  0.42682  1.0000
  H   H1036     1.0  0.52926  0.20933  0.43539  1.0000
  H   H1037     1.0  0.69391  0.30273  0.32825  1.0000
  C   C596      1.0  0.81643  0.17187  0.38742  1.0000
  C   C597      1.0  0.82941  0.18105  0.40768  1.0000
  C   C598      1.0  0.82814  0.16253  0.42296  1.0000
  C   C599      1.0  0.81447  0.13461  0.41795  1.0000
  C   C600      1.0  0.80121  0.12543  0.39782  1.0000
  C   C601      1.0  0.80198  0.14389  0.38271  1.0000
  H   H1038     1.0  0.84056  0.20264  0.41156  1.0000
  H   H1039     1.0  0.83777  0.16978  0.43858  1.0000
  H   H1040     1.0  0.79041  0.10385  0.39381  1.0000
  H   H1041     1.0  0.79187  0.13646  0.36724  1.0000
  C   C602      1.0  0.71888  0.23088  0.34864  1.0000
  C   C603      1.0  0.69750  0.22730  0.36024  1.0000
  C   C604      1.0  0.69680  0.24987  0.36853  1.0000
  C   C605      1.0  0.71741  0.27633  0.36508  1.0000
  C   C606      1.0  0.73916  0.27984  0.35412  1.0000
  C   C607      1.0  0.73990  0.25727  0.34590  1.0000
  H   H1042     1.0  0.68122  0.20694  0.36257  1.0000
  H   H1043     1.0  0.68023  0.24683  0.37737  1.0000
  H   H1044     1.0  0.75532  0.30021  0.35157  1.0000
  H   H1045     1.0  0.75644  0.26035  0.33697  1.0000
  C   C608      1.0  0.64093  0.30497  0.47528  1.0000
  C   C609      1.0  0.68689  0.42264  0.29274  1.0000
  C   C610      1.0  0.65652  0.29364  0.47717  1.0000
  H   H1046     1.0  0.75385  0.14879  0.25073  1.0000
  H   H1047     1.0  0.66612  0.29199  0.46319  1.0000
  C   C611      1.0  0.74243  0.46362  0.33333  1.0000
  C   C612      1.0  0.74212  0.43960  0.33786  1.0000
  C   C613      1.0  0.72099  0.41805  0.34825  1.0000
  C   C614      1.0  0.69999  0.42040  0.35430  1.0000
  C   C615      1.0  0.70043  0.44458  0.34998  1.0000
  C   C616      1.0  0.72147  0.46602  0.33943  1.0000
  H   H1048     1.0  0.75828  0.43756  0.33322  1.0000
  H   H1049     1.0  0.72092  0.39960  0.35151  1.0000
  H   H1050     1.0  0.68423  0.44654  0.35459  1.0000
  H   H1051     1.0  0.72136  0.48426  0.33584  1.0000
  C   C617      1.0  0.53798  0.22847  0.34280  1.0000
  C   C618      1.0  0.55935  0.25299  0.35116  1.0000
  C   C619      1.0  0.55589  0.27463  0.35628  1.0000
  C   C620      1.0  0.53134  0.27176  0.35300  1.0000
  H   H1052     1.0  0.54042  0.21160  0.33877  1.0000
  H   H1053     1.0  0.57222  0.29371  0.36247  1.0000
  H   H1054     1.0  0.52894  0.28871  0.35685  1.0000
  N   N42       1.0  0.65550  0.24931  0.31232  1.0000
  C   C621      1.0  0.67437  0.23956  0.31333  1.0000
  C   C622      1.0  0.64896  0.25268  0.33507  1.0000
  C   C623      1.0  0.63157  0.22877  0.29946  1.0000
  C   C624      1.0  0.68491  0.23662  0.29165  1.0000
  C   C625      1.0  0.63126  0.22616  0.34692  1.0000
  C   C626      1.0  0.60958  0.23504  0.29738  1.0000
  H   H1055     1.0  0.69150  0.25333  0.32392  1.0000
  H   H1056     1.0  0.66543  0.21930  0.32079  1.0000
  C   C627      1.0  0.66719  0.27635  0.30158  1.0000
  H   H1057     1.0  0.70951  0.29439  0.30756  1.0000
  H   H1058     1.0  0.63661  0.22700  0.28262  1.0000
  H   H1059     1.0  0.62339  0.20783  0.30554  1.0000
  H   H1060     1.0  0.69464  0.25580  0.28274  1.0000
  H   H1061     1.0  0.69982  0.23113  0.29498  1.0000
  H   H1062     1.0  0.66953  0.21988  0.28130  1.0000
  H   H1063     1.0  0.78438  0.01700  0.48268  1.0000
  H   H1064     1.0  0.63934  0.21273  0.34759  1.0000
  H   H1065     1.0  0.62943  0.23144  0.36382  1.0000
  H   H1066     1.0  0.81711  0.15434  0.25190  1.0000
  C   C628      1.0  0.94513  0.36742  0.25011  1.0000
  C   C629      1.0  0.57167  0.27340  0.41649  1.0000
  H   H1067     1.0  0.57346  0.22464  0.44644  1.0000
  C   C630      1.0  0.71163  0.09405  0.26618  1.0000
  H   H1068     1.0  0.91812  0.17008  0.39100  1.0000
  H   H1069     1.0  0.97641  0.18518  0.42456  1.0000
  C   C631      1.0  0.55572  0.24483  0.47367  1.0000
  C   C632      1.0  0.88173  0.12445  0.42198  1.0000
  H   H1070     1.0  0.60809  0.24585  0.31164  1.0000
  C   C633      1.0  0.88616  0.17613  0.39230  1.0000
  H   H1071     1.0  0.67840  0.40030  0.29120  1.0000
  H   H1072     1.0  0.59956  0.25705  0.43898  1.0000
  C   C634      1.0  0.84982  0.25287  0.25607  1.0000
  H   H1073     1.0  0.55993  0.30150  0.42870  1.0000
  N   N43       1.0  0.56135  0.25078  0.43236  1.0000
  H   H1074     1.0  0.69422  0.37939  0.47979  1.0000
  H   H1075     1.0  0.71490  0.41274  0.49240  1.0000
  H   H1076     1.0  0.86424  0.24807  0.28657  1.0000
  H   H1077     1.0  0.97039  0.20865  0.43825  1.0000
  H   H1078     1.0  0.76605  0.48971  0.37513  1.0000
  H   H1079     1.0  0.88483  0.12558  0.40441  1.0000
  C   C635      1.0  0.69999  0.10748  0.25726  1.0000
  H   H1080     1.0  0.63955  0.26491  0.33569  1.0000
  C   C636      1.0  0.55645  0.28812  0.41438  1.0000
  H   H1081     1.0  0.95179  0.35291  0.25264  1.0000
  H   H1082     1.0  0.53800  0.22447  0.47086  1.0000
  H   H1083     1.0  0.51981  0.23374  0.43267  1.0000
  H   H1084     1.0  0.96504  0.20331  0.40920  1.0000
  C   C637      1.0  0.98112  0.19363  0.48695  1.0000
  C   C638      1.0  0.67727  0.43203  0.27349  1.0000
  H   H1085     1.0  0.67977  0.46536  0.30725  1.0000
  S   S183      1.0  0.92779  0.16763  0.48968  1.0000
  H   H1086     1.0  0.87148  0.15401  0.39120  1.0000
  H   H1087     1.0  0.68242  0.42539  0.25846  1.0000
  H   H1088     1.0  0.77294  0.25241  0.39720  1.0000
  C   C639      1.0  0.58211  0.22632  0.41352  1.0000
  C   C640      1.0  0.56188  0.26327  0.45413  1.0000
  H   H1089     1.0  0.51284  0.19783  0.40090  1.0000
  H   H1090     1.0  0.65564  0.41953  0.27347  1.0000
  H   H1091     1.0  0.58127  0.28194  0.45768  1.0000
  H   H1092     1.0  0.89126  0.35129  0.27512  1.0000
  N   N44       1.0  0.91408  0.17626  0.42505  1.0000
  C   C641      1.0  0.93521  0.16977  0.42828  1.0000
  C   C642      1.0  0.88909  0.15218  0.43245  1.0000
  C   C643      1.0  0.92127  0.20088  0.43926  1.0000
  C   C644      1.0  0.91269  0.18208  0.40154  1.0000
  C   C645      1.0  0.96326  0.19335  0.42474  1.0000
  C   C646      1.0  0.90091  0.20921  0.44131  1.0000
  H   H1093     1.0  0.93487  0.16243  0.44486  1.0000
  H   H1094     1.0  0.87227  0.15477  0.42966  1.0000
  H   H1095     1.0  0.89013  0.15034  0.45022  1.0000
  H   H1096     1.0  0.92610  0.19779  0.45595  1.0000
  H   H1097     1.0  0.93910  0.21925  0.43364  1.0000
  H   H1098     1.0  0.92722  0.20374  0.39829  1.0000
  C   C647      1.0  0.86929  0.25587  0.27052  1.0000
  C   C648      1.0  0.69458  0.39714  0.48755  1.0000
  H   H1099     1.0  0.70834  0.43217  0.29328  1.0000
  H   H1100     1.0  0.89828  0.21751  0.42619  1.0000
  H   H1101     1.0  0.90819  0.22599  0.45364  1.0000
  H   H1102     1.0  0.88218  0.19261  0.44718  1.0000
  H   H1103     1.0  0.88861  0.18365  0.37562  1.0000
  H   H1104     1.0  0.71656  0.13328  0.38089  1.0000
  H   H1105     1.0  0.69974  0.31831  0.30274  1.0000
  H   H1106     1.0  0.76381  0.47489  0.40037  1.0000
  H   H1107     1.0  0.93637  0.36826  0.26531  1.0000
  C   C649      1.0  0.57960  0.24022  0.43391  1.0000
  H   H1108     1.0  0.66694  0.26468  0.34527  1.0000
  H   H1109     1.0  0.59206  0.28920  0.42114  1.0000
  H   H1110     1.0  0.70618  0.15214  0.39626  1.0000
  C   C650      1.0  0.73280  0.47515  0.26221  1.0000
  C   C651      1.0  0.69407  0.29894  0.31073  1.0000
  S   S184      1.0  0.85843  0.15251  0.48888  1.0000
  C   C652      1.0  0.51341  0.22559  0.33953  1.0000
  H   H1111     1.0  0.89293  0.11630  0.42977  1.0000
  S   S185      1.0  0.81667  0.23734  0.26334  1.0000
  H   H1112     1.0  0.86628  0.31672  0.26982  1.0000
  H   H1113     1.0  0.89887  0.32623  0.26523  1.0000
  H   H1114     1.0  0.86081  0.10946  0.42444  1.0000
  H   H1115     1.0  0.91037  0.27185  0.27575  1.0000
  H   H1116     1.0  0.53530  0.27381  0.41161  1.0000
  H   H1117     1.0  0.50323  0.35838  0.32575  1.0000
  H   H1118     1.0  0.61628  0.31545  0.49230  1.0000
  C   C653      1.0  0.89548  0.26943  0.26433  1.0000
  C   C654      1.0  0.50998  0.24730  0.34453  1.0000
  H   H1119     1.0  0.68041  0.42653  0.30823  1.0000
  H   H1120     1.0  0.58819  0.23956  0.39945  1.0000
  N   N45       1.0  0.68656  0.46197  0.27352  1.0000
  H   H1121     1.0  0.87804  0.18632  0.40156  1.0000
  C   C655      1.0  0.88512  0.33357  0.26406  1.0000
  H   H1122     1.0  0.75071  0.47907  0.27104  1.0000
  H   H1123     1.0  0.57252  0.24276  0.47828  1.0000
  H   H1124     1.0  0.91657  0.38963  0.25849  1.0000
  H   H1125     1.0  0.70581  0.12773  0.26313  1.0000
  H   H1126     1.0  0.61128  0.21489  0.33967  1.0000
  C   C656      1.0  0.78367  0.99961  0.48982  1.0000
  C   C657      1.0  0.67294  0.46772  0.29110  1.0000
  N   N46       1.0  0.76021  0.19850  0.40333  1.0000
  C   C658      1.0  0.78540  0.20810  0.41589  1.0000
  C   C659      1.0  0.76711  0.21407  0.38276  1.0000
  C   C660      1.0  0.74834  0.16863  0.39776  1.0000
  C   C661      1.0  0.74246  0.20329  0.41712  1.0000
  C   C662      1.0  0.78368  0.19223  0.43625  1.0000
  C   C663      1.0  0.78201  0.24534  0.38554  1.0000
  C   C664      1.0  0.72173  0.15425  0.38569  1.0000
  C   C665      1.0  0.72122  0.20623  0.40523  1.0000
  H   H1127     1.0  0.79999  0.20767  0.40546  1.0000
  H   H1128     1.0  0.79439  0.22974  0.42136  1.0000
  H   H1129     1.0  0.74986  0.20811  0.37233  1.0000
  H   H1130     1.0  0.77926  0.20898  0.37278  1.0000
  H   H1131     1.0  0.76198  0.16546  0.38799  1.0000
  H   H1132     1.0  0.74496  0.15664  0.41247  1.0000
  H   H1133     1.0  0.73262  0.18672  0.42885  1.0000
  H   H1134     1.0  0.75414  0.22247  0.42697  1.0000
  H   H1135     1.0  0.78142  0.17227  0.43200  1.0000
  H   H1136     1.0  0.80227  0.20384  0.44578  1.0000
  H   H1137     1.0  0.76784  0.18930  0.44680  1.0000
  H   H1138     1.0  0.80267  0.25356  0.39042  1.0000
  H   H1139     1.0  0.78214  0.25425  0.36976  1.0000
  H   H1140     1.0  0.59048  0.21565  0.29585  1.0000
  H   H1141     1.0  0.65165  0.45262  0.29040  1.0000
  H   H1142     1.0  0.49717  0.20667  0.33299  1.0000
  C   C666      1.0  0.67644  0.49628  0.29148  1.0000
  C   C667      1.0  0.71547  0.47938  0.27789  1.0000
  H   H1143     1.0  0.72098  0.47755  0.29468  1.0000
  H   H1144     1.0  0.51570  0.22939  0.39597  1.0000
  H   H1145     1.0  0.61216  0.24740  0.28303  1.0000
  Fe  Fe89      1.0  0.88465  0.13583  0.49496  1.0000
  H   H1146     1.0  0.71242  0.05702  0.26518  1.0000
  C   C668      1.0  0.70361  0.06764  0.25838  1.0000
  H   H1147     1.0  0.56388  0.20671  0.40963  1.0000
  S   S186      1.0  0.76936  0.48989  0.31998  1.0000
  H   H1148     1.0  0.66571  0.49795  0.30520  1.0000
  C   C669      1.0  0.68056  0.46882  0.25169  1.0000
  H   H1149     1.0  0.54291  0.22497  0.39211  1.0000
  C   C670      1.0  0.52655  0.22017  0.40260  1.0000
  H   H1150     1.0  0.72374  0.45421  0.25544  1.0000
  H   H1151     1.0  0.80292  0.12045  0.26116  1.0000
  H   H1152     1.0  0.97981  0.21064  0.48149  1.0000
  H   H1153     1.0  0.68895  0.49110  0.25047  1.0000
  C   C671      1.0  0.79849  0.13592  0.25564  1.0000
  H   H1154     1.0  0.64023  0.45899  0.25640  1.0000
  C   C672      1.0  0.95824  0.16939  0.49233  1.0000
  C   C673      1.0  0.62853  0.30689  0.49362  1.0000
  H   H1155     1.0  0.50585  0.34511  0.30048  1.0000
  H   H1156     1.0  0.55237  0.25454  0.48784  1.0000
  H   H1157     1.0  0.68776  0.40584  0.47507  1.0000
  H   H1158     1.0  0.73843  0.48940  0.24868  1.0000
  S   S187      1.0  0.80865  0.09163  0.49716  1.0000
  H   H1159     1.0  0.78715  0.17305  0.25098  1.0000
  C   C674      1.0  0.65989  0.28466  0.49731  1.0000
  Fe  Fe90      1.0  0.74691  0.15614  0.70183  1.0000
  S   S188      1.0  0.75425  0.19857  0.69831  1.0000
  S   S189      1.0  0.72387  0.13588  0.73198  1.0000
  Fe  Fe91      1.0  0.77486  0.15977  0.65951  1.0000
  S   S190      1.0  0.78295  0.20176  0.65309  1.0000
  S   S191      1.0  0.78882  0.13628  0.63923  1.0000
  Fe  Fe92      1.0  0.79456  0.21052  0.68858  1.0000
  S   S192      1.0  0.83145  0.25141  0.69748  1.0000
  Fe  Fe93      1.0  0.74201  0.18652  0.66361  1.0000
  S   S193      1.0  0.70932  0.18862  0.64601  1.0000
  S   S194      1.0  0.78842  0.16921  0.69458  1.0000
  S   S195      1.0  0.73296  0.14354  0.66744  1.0000
  H   H1160     1.0  0.80646  0.10829  0.61226  1.0000
  C   C675      1.0  0.69520  0.36314  0.66370  1.0000
  H   H1161     1.0  0.71518  0.41398  0.66610  1.0000
  Fe  Fe94      1.0  0.64430  0.28865  0.57314  1.0000
  S   S196      1.0  0.62240  0.25991  0.59981  1.0000
  S   S197      1.0  0.65334  0.27634  0.54086  1.0000
  Fe  Fe95      1.0  0.66255  0.33989  0.60225  1.0000
  S   S198      1.0  0.64176  0.31519  0.63080  1.0000
  S   S199      1.0  0.69317  0.38503  0.60007  1.0000
  Fe  Fe96      1.0  0.65719  0.28818  0.62141  1.0000
  S   S200      1.0  0.68324  0.28290  0.64558  1.0000
  Fe  Fe97      1.0  0.60842  0.28882  0.60730  1.0000
  S   S201      1.0  0.56677  0.27966  0.61081  1.0000
  S   S202      1.0  0.67963  0.31447  0.59427  1.0000
  S   S203      1.0  0.62854  0.31578  0.57911  1.0000
  Fe  Fe98      1.0  0.83605  0.12885  0.51762  1.0000
  S   S204      1.0  0.86401  0.11501  0.52517  1.0000
  S   S205      1.0  0.82109  0.14929  0.54035  1.0000
  H   H1162     1.0  0.74214  0.01717  0.59789  1.0000
  H   H1163     1.0  0.65778  0.36923  0.50112  1.0000
  C   C676      1.0  0.70587  0.45330  0.64779  1.0000
  C   C677      1.0  0.68229  0.42802  0.64726  1.0000
  C   C678      1.0  0.67803  0.40697  0.63269  1.0000
  C   C679      1.0  0.69727  0.41111  0.61832  1.0000
  C   C680      1.0  0.72069  0.43650  0.61857  1.0000
  C   C681      1.0  0.72506  0.45748  0.63332  1.0000
  H   H1164     1.0  0.66731  0.42466  0.65835  1.0000
  H   H1165     1.0  0.65983  0.38763  0.63255  1.0000
  H   H1166     1.0  0.73566  0.43996  0.60745  1.0000
  H   H1167     1.0  0.74325  0.47685  0.63353  1.0000
  C   C682      1.0  0.51923  0.21797  0.65042  1.0000
  C   C683      1.0  0.54126  0.23690  0.63911  1.0000
  C   C684      1.0  0.53943  0.25429  0.62467  1.0000
  H   H1168     1.0  0.78599  0.01467  0.57835  1.0000
  H   H1169     1.0  0.52098  0.20486  0.66174  1.0000
  H   H1170     1.0  0.55968  0.23819  0.64171  1.0000
  H   H1171     1.0  0.51353  0.26541  0.61029  1.0000
  C   C685      1.0  0.63190  0.29791  0.51372  1.0000
  C   C686      1.0  0.64782  0.28699  0.51571  1.0000
  H   H1172     1.0  0.61856  0.09931  0.67487  1.0000
  H   H1173     1.0  0.62213  0.29936  0.52766  1.0000
  N   N47       1.0  0.76681  0.02857  0.55665  1.0000
  C   C687      1.0  0.91784  0.49636  0.71933  1.0000
  C   C688      1.0  0.81570  0.05430  0.56811  1.0000
  H   H1174     1.0  0.51029  0.28611  0.65239  1.0000
  C   C689      1.0  0.85383  0.26007  0.71971  1.0000
  C   C690      1.0  0.87685  0.28591  0.72073  1.0000
  H   H1175     1.0  0.65388  0.08601  0.68140  1.0000
  H   H1176     1.0  0.88063  0.29999  0.70799  1.0000
  C   C691      1.0  0.70185  0.21464  0.64723  1.0000
  C   C692      1.0  0.71828  0.23978  0.65774  1.0000
  C   C693      1.0  0.71212  0.26032  0.65729  1.0000
  C   C694      1.0  0.68966  0.25608  0.64617  1.0000
  C   C695      1.0  0.67300  0.23076  0.63601  1.0000
  C   C696      1.0  0.67902  0.21014  0.63662  1.0000
  H   H1177     1.0  0.73584  0.24350  0.66604  1.0000
  H   H1178     1.0  0.72501  0.27973  0.66542  1.0000
  H   H1179     1.0  0.65539  0.22703  0.62779  1.0000
  H   H1180     1.0  0.66607  0.19068  0.62859  1.0000
  C   C697      1.0  0.79688  0.13955  0.61150  1.0000
  C   C698      1.0  0.79590  0.15872  0.59860  1.0000
  C   C699      1.0  0.80333  0.16128  0.57692  1.0000
  C   C700      1.0  0.81195  0.14488  0.56782  1.0000
  C   C701      1.0  0.81306  0.12579  0.58075  1.0000
  C   C702      1.0  0.80540  0.12303  0.60240  1.0000
  H   H1181     1.0  0.78944  0.17159  0.60531  1.0000
  H   H1182     1.0  0.80241  0.17614  0.56709  1.0000
  H   H1183     1.0  0.82002  0.11336  0.57407  1.0000
  H   H1184     1.0  0.55259  0.33075  0.65705  1.0000
  H   H1185     1.0  0.72202  0.36955  0.70126  1.0000
  H   H1186     1.0  0.75647  0.45291  0.67976  1.0000
  C   C703      1.0  0.72849  0.40959  0.67534  1.0000
  H   H1187     1.0  0.73000  0.02753  0.52919  1.0000
  H   H1188     1.0  0.64599  0.39342  0.53742  1.0000
  H   H1189     1.0  0.67058  0.40348  0.50918  1.0000
  H   H1190     1.0  0.72324  0.31205  0.57656  1.0000
  H   H1191     1.0  0.63686  0.09806  0.70886  1.0000
  H   H1192     1.0  0.82268  0.06671  0.55354  1.0000
  N   N48       1.0  0.71474  0.25570  0.57624  1.0000
  C   C704      1.0  0.71842  0.24051  0.59422  1.0000
  C   C705      1.0  0.69027  0.25590  0.58071  1.0000
  C   C706      1.0  0.73815  0.28439  0.57699  1.0000
  C   C707      1.0  0.71284  0.24123  0.55521  1.0000
  C   C708      1.0  0.74362  0.23964  0.59411  1.0000
  C   C709      1.0  0.66459  0.22809  0.57843  1.0000
  C   C710      1.0  0.73505  0.30670  0.56648  1.0000
  C   C711      1.0  0.70547  0.25098  0.53479  1.0000
  H   H1193     1.0  0.71832  0.24962  0.61014  1.0000
  H   H1194     1.0  0.70221  0.21891  0.59425  1.0000
  H   H1195     1.0  0.68770  0.26951  0.56994  1.0000
  H   H1196     1.0  0.69146  0.26448  0.59722  1.0000
  H   H1197     1.0  0.74452  0.29170  0.59403  1.0000
  H   H1198     1.0  0.75504  0.28495  0.56942  1.0000
  H   H1199     1.0  0.73173  0.24303  0.55180  1.0000
  H   H1200     1.0  0.69914  0.21883  0.55616  1.0000
  H   H1201     1.0  0.74396  0.22842  0.60843  1.0000
  H   H1202     1.0  0.74441  0.22839  0.57978  1.0000
  H   H1203     1.0  0.76138  0.26020  0.59552  1.0000
  H   H1204     1.0  0.66098  0.21950  0.56175  1.0000
  H   H1205     1.0  0.66362  0.21310  0.58991  1.0000
  H   H1206     1.0  0.64819  0.23100  0.58203  1.0000
  H   H1207     1.0  0.62445  0.12687  0.72500  1.0000
  H   H1208     1.0  0.75620  0.05227  0.60551  1.0000
  H   H1209     1.0  0.50808  0.31401  0.66203  1.0000
  H   H1210     1.0  0.72311  0.26725  0.52705  1.0000
  H   H1211     1.0  0.69190  0.25811  0.53759  1.0000
  H   H1212     1.0  0.69487  0.23356  0.52308  1.0000
  H   H1213     1.0  0.69167  0.43437  0.53949  1.0000
  H   H1214     1.0  0.75897  0.39894  0.64938  1.0000
  N   N49       1.0  0.72400  0.38213  0.66839  1.0000
  C   C712      1.0  0.70329  0.35240  0.54104  1.0000
  C   C713      1.0  0.66469  0.36927  0.54272  1.0000
  C   C714      1.0  0.74962  0.04364  0.52455  1.0000
  H   H1215     1.0  0.54962  0.32924  0.68571  1.0000
  C   C715      1.0  0.50964  0.26579  0.69245  1.0000
  C   C716      1.0  0.64453  0.14480  0.72398  1.0000
  C   C717      1.0  0.65694  0.11526  0.70604  1.0000
  N   N50       1.0  0.68661  0.38308  0.52725  1.0000
  C   C718      1.0  0.51522  0.25218  0.62152  1.0000
  C   C719      1.0  0.75930  0.03783  0.59583  1.0000
  H   H1216     1.0  0.81426  0.06639  0.58147  1.0000
  H   H1217     1.0  0.72818  0.41259  0.53125  1.0000
  H   H1218     1.0  0.71655  0.36870  0.55282  1.0000
  H   H1219     1.0  0.69037  0.34178  0.66108  1.0000
  C   C720      1.0  0.80282  0.00360  0.50508  1.0000
  H   H1220     1.0  0.77774  0.03076  0.52316  1.0000
  H   H1221     1.0  0.78894  0.06229  0.53593  1.0000
  H   H1222     1.0  0.77697  0.03900  0.60271  1.0000
  C   C721      1.0  0.67616  0.38808  0.50670  1.0000
  C   C722      1.0  0.77184  0.04120  0.53488  1.0000
  H   H1223     1.0  0.76527  0.36955  0.69938  1.0000
  N   N51       1.0  0.86786  0.20962  0.65709  1.0000
  C   C723      1.0  0.85895  0.19961  0.63408  1.0000
  C   C724      1.0  0.85975  0.22977  0.66231  1.0000
  C   C725      1.0  0.85362  0.18538  0.67127  1.0000
  C   C726      1.0  0.89693  0.22193  0.65913  1.0000
  C   C727      1.0  0.86326  0.17686  0.62581  1.0000
  C   C728      1.0  0.86992  0.25417  0.64735  1.0000
  C   C729      1.0  0.85785  0.19090  0.69580  1.0000
  C   C730      1.0  0.91160  0.24301  0.67783  1.0000
  H   H1224     1.0  0.83783  0.19207  0.63173  1.0000
  H   H1225     1.0  0.86915  0.21645  0.62266  1.0000
  H   H1226     1.0  0.86586  0.23845  0.67885  1.0000
  H   H1227     1.0  0.83814  0.21938  0.66203  1.0000
  H   H1228     1.0  0.83227  0.17485  0.66782  1.0000
  H   H1229     1.0  0.85908  0.17003  0.66777  1.0000
  H   H1230     1.0  0.90158  0.20563  0.66059  1.0000
  H   H1231     1.0  0.90622  0.23274  0.64413  1.0000
  H   H1232     1.0  0.84975  0.15712  0.63320  1.0000
  H   H1233     1.0  0.85883  0.17369  0.60817  1.0000
  H   H1234     1.0  0.88364  0.18210  0.62831  1.0000
  H   H1235     1.0  0.86682  0.26983  0.65500  1.0000
  H   H1236     1.0  0.89098  0.26380  0.64452  1.0000
  H   H1237     1.0  0.85883  0.24809  0.63172  1.0000
  H   H1238     1.0  0.87793  0.19713  0.70105  1.0000
  H   H1239     1.0  0.84474  0.17161  0.70399  1.0000
  H   H1240     1.0  0.85271  0.20575  0.70165  1.0000
  H   H1241     1.0  0.92827  0.24128  0.68353  1.0000
  H   H1242     1.0  0.90012  0.24074  0.69217  1.0000
  H   H1243     1.0  0.92040  0.26408  0.67201  1.0000
  C   C731      1.0  0.73774  0.38440  0.64774  1.0000
  H   H1244     1.0  0.67776  0.03561  0.72200  1.0000
  H   H1245     1.0  0.72648  0.30122  0.54996  1.0000
  H   H1246     1.0  0.83163  0.22225  0.73588  1.0000
  H   H1247     1.0  0.64055  0.16005  0.68555  1.0000
  H   H1248     1.0  0.68371  0.19837  0.71970  1.0000
  C   C732      1.0  0.67677  0.36206  0.68119  1.0000
  C   C733      1.0  0.69543  0.36350  0.52177  1.0000
  C   C734      1.0  0.70975  0.43553  0.53458  1.0000
  H   H1249     1.0  0.67764  0.38171  0.68326  1.0000
  H   H1250     1.0  0.66616  0.40232  0.56208  1.0000
  C   C735      1.0  0.70265  0.10140  0.73915  1.0000
  H   H1251     1.0  0.72367  0.40970  0.69257  1.0000
  H   H1252     1.0  0.68918  0.36859  0.64846  1.0000
  C   C736      1.0  0.64375  0.14267  0.68454  1.0000
  H   H1253     1.0  0.79436  0.01579  0.55120  1.0000
  H   H1254     1.0  0.65576  0.14682  0.67003  1.0000
  H   H1255     1.0  0.90135  0.47543  0.71504  1.0000
  C   C737      1.0  0.54388  0.31668  0.67061  1.0000
  H   H1256     1.0  0.64867  0.34966  0.53550  1.0000
  H   H1257     1.0  0.75451  0.32553  0.56551  1.0000
  H   H1258     1.0  0.69741  0.16338  0.71777  1.0000
  C   C738      1.0  0.68096  0.05244  0.73232  1.0000
  H   H1259     1.0  0.71264  0.37320  0.51134  1.0000
  C   C739      1.0  0.51408  0.29948  0.66690  1.0000
  H   H1260     1.0  0.74089  0.34784  0.64995  1.0000
  H   H1261     1.0  0.74985  0.04159  0.50673  1.0000
  H   H1262     1.0  0.65642  0.34673  0.67602  1.0000
  C   C740      1.0  0.89488  0.29390  0.73827  1.0000
  C   C741      1.0  0.75578  0.43481  0.67234  1.0000
  H   H1263     1.0  0.94853  0.49045  0.70757  1.0000
  S   S206      1.0  0.71058  0.47828  0.66742  1.0000
  H   H1264     1.0  0.68043  0.35560  0.69689  1.0000
  H   H1265     1.0  0.68632  0.10895  0.69158  1.0000
  H   H1266     1.0  0.68586  0.33667  0.54930  1.0000
  H   H1267     1.0  0.68088  0.19699  0.69050  1.0000
  C   C742      1.0  0.66779  0.10746  0.68667  1.0000
  C   C743      1.0  0.61689  0.11704  0.67941  1.0000
  H   H1268     1.0  0.71143  0.20866  0.70377  1.0000
  H   H1269     1.0  0.74447  0.04612  0.56721  1.0000
  H   H1270     1.0  0.67161  0.12018  0.67244  1.0000
  H   H1271     1.0  0.63519  0.37200  0.56004  1.0000
  C   C744      1.0  0.76103  0.38460  0.69249  1.0000
  C   C745      1.0  0.76236  0.04611  0.57207  1.0000
  H   H1272     1.0  0.60354  0.11182  0.69298  1.0000
  C   C746      1.0  0.69798  0.07937  0.72584  1.0000
  H   H1273     1.0  0.71077  0.40628  0.55516  1.0000
  C   C747      1.0  0.79006  0.02689  0.56364  1.0000
  C   C748      1.0  0.73416  0.35761  0.63845  1.0000
  C   C749      1.0  0.73186  0.37004  0.68615  1.0000
  H   H1274     1.0  0.76635  0.40103  0.70480  1.0000
  H   H1275     1.0  0.74590  0.36207  0.62382  1.0000
  H   H1276     1.0  0.68009  0.34567  0.51215  1.0000
  H   H1277     1.0  0.67124  0.36396  0.55766  1.0000
  C   C750      1.0  0.65804  0.14776  0.74613  1.0000
  H   H1278     1.0  0.71339  0.34213  0.53505  1.0000
  Fe  Fe99      1.0  0.83760  0.07869  0.50302  1.0000
  C   C751      1.0  0.70934  0.40870  0.53749  1.0000
  H   H1279     1.0  0.70770  0.08306  0.71069  1.0000
  H   H1280     1.0  0.51989  0.31019  0.71274  1.0000
  H   H1281     1.0  0.64199  0.16254  0.72248  1.0000
  H   H1282     1.0  0.66831  0.11555  0.72044  1.0000
  H   H1283     1.0  0.91232  0.31394  0.73891  1.0000
  H   H1284     1.0  0.73107  0.39303  0.63501  1.0000
  H   H1285     1.0  0.75971  0.43920  0.65501  1.0000
  H   H1286     1.0  0.77402  0.39292  0.67873  1.0000
  H   H1287     1.0  0.69508  0.16280  0.68950  1.0000
  C   C752      1.0  0.84924  0.24213  0.73635  1.0000
  H   H1288     1.0  0.77827  0.06782  0.57141  1.0000
  H   H1289     1.0  0.55249  0.30366  0.67049  1.0000
  C   C753      1.0  0.68577  0.16463  0.70421  1.0000
  H   H1290     1.0  0.71370  0.34304  0.63325  1.0000
  H   H1291     1.0  0.60776  0.12095  0.66533  1.0000
  H   H1292     1.0  0.52991  0.27883  0.69896  1.0000
  H   H1293     1.0  0.77153  0.43319  0.68010  1.0000
  N   N52       1.0  0.65777  0.14182  0.70465  1.0000
  H   H1294     1.0  0.83111  0.05011  0.57294  1.0000
  C   C754      1.0  0.69028  0.19362  0.70462  1.0000
  C   C755      1.0  0.65263  0.38562  0.55067  1.0000
  H   H1295     1.0  0.71372  0.44238  0.51775  1.0000
  H   H1296     1.0  0.67788  0.16607  0.74745  1.0000
  H   H1297     1.0  0.72469  0.34813  0.68273  1.0000
  S   S207      1.0  0.82788  0.03674  0.51435  1.0000
  H   H1298     1.0  0.86988  0.48576  0.72856  1.0000
  H   H1299     1.0  0.72581  0.45179  0.54487  1.0000
  H   H1300     1.0  0.93789  0.47699  0.73355  1.0000
  H   H1301     1.0  0.75219  0.06377  0.52874  1.0000
  C   C756      1.0  0.94220  0.49435  0.72321  1.0000
  H   H1302     1.0  0.67211  0.27607  0.49865  1.0000
  H   H1303     1.0  0.51091  0.25456  0.67827  1.0000
  C   C757      1.0  0.50099  0.30195  0.70373  1.0000
  H   H1304     1.0  0.50137  0.32000  0.69702  1.0000
  H   H1305     1.0  0.94304  0.12887  0.50367  1.0000
  H   H1306     1.0  0.98638  0.13345  0.50720  1.0000
  H   H1307     1.0  0.50454  0.23252  0.71181  1.0000
  N   N53       1.0  0.49851  0.28282  0.68561  1.0000
  C   C758      1.0  0.74317  0.00011  0.55593  1.0000
  H   H1308     1.0  0.72482  0.00035  0.55541  1.0000
  C   C759      1.0  0.98504  0.15033  0.50144  1.0000
  C   C760      1.0  0.49510  0.21610  0.64746  1.0000
  C   C761      1.0  0.96036  0.14765  0.49947  1.0000
  C   C762      1.0  0.49523  0.24476  0.70981  1.0000
  H   H1309     1.0  0.49692  0.25466  0.72569  1.0000
  H   H1310     1.0  0.94079  0.26922  0.98473  1.0000
  S   S208      1.0  0.97682  0.36271  0.77027  1.0000
  N   N54       1.0  0.76568  0.05149  0.93909  1.0000
  C   C763      1.0  0.86717  0.25019  0.75395  1.0000
  H   H1311     1.0  0.74505  0.03522  0.89692  1.0000
  S   S209      1.0  0.97091  0.25504  0.94050  1.0000
  Fe  Fe100     1.0  0.95162  0.32303  0.78677  1.0000
  S   S210      1.0  0.91143  0.28534  0.77818  1.0000
  S   S211      1.0  0.96013  0.34291  0.82020  1.0000
  H   H1312     1.0  0.78139  0.05067  0.97046  1.0000
  C   C764      1.0  0.95963  0.24949  0.81673  1.0000
  C   C765      1.0  0.74413  0.05441  0.94832  1.0000
  H   H1313     1.0  0.70290  0.04062  0.94601  1.0000
  C   C766      1.0  0.98048  0.12147  0.97404  1.0000
  H   H1314     1.0  0.94681  0.49585  0.89199  1.0000
  H   H1315     1.0  0.51110  0.49584  0.78715  1.0000
  H   H1316     1.0  0.96634  0.30971  0.88186  1.0000
  C   C767      1.0  0.85580  0.07325  0.97620  1.0000
  H   H1317     1.0  0.64657  0.15006  0.75888  1.0000
  H   H1318     1.0  0.78388  0.02569  0.91016  1.0000
  H   H1319     1.0  0.92924  0.11006  0.99364  1.0000
  H   H1320     1.0  0.70918  0.01364  0.94668  1.0000
  C   C768      1.0  0.66828  0.04714  0.75209  1.0000
  H   H1321     1.0  0.97044  0.27142  0.82117  1.0000
  H   H1322     1.0  0.80904  0.10723  0.95009  1.0000
  C   C769      1.0  0.78776  0.06299  0.95570  1.0000
  C   C770      1.0  0.77561  0.06755  0.91893  1.0000
  C   C771      1.0  0.89005  0.27616  0.75513  1.0000
  H   H1323     1.0  0.98652  0.28204  0.98223  1.0000
  C   C772      1.0  0.95813  0.46266  0.79086  1.0000
  C   C773      1.0  0.96484  0.44285  0.79489  1.0000
  H   H1324     1.0  0.94025  0.45670  0.78200  1.0000
  H   H1325     1.0  0.95215  0.42202  0.78917  1.0000
  C   C774      1.0  0.67270  0.06918  0.76526  1.0000
  H   H1326     1.0  0.73921  0.01117  0.92452  1.0000
  C   C775      1.0  0.97426  0.48994  0.79820  1.0000
  H   H1327     1.0  0.86309  0.23628  0.76686  1.0000
  C   C776      1.0  0.79896  0.09288  0.96318  1.0000
  H   H1328     1.0  0.79431  0.06972  0.91409  1.0000
  C   C777      1.0  0.98121  0.27235  0.91544  1.0000
  C   C778      1.0  0.83637  0.06055  0.99163  1.0000
  H   H1329     1.0  0.75045  0.01085  0.95067  1.0000
  H   H1330     1.0  0.74350  0.05212  0.96615  1.0000
  H   H1331     1.0  0.71393  0.03226  0.92229  1.0000
  C   C779      1.0  0.97873  0.49075  0.88350  1.0000
  C   C780      1.0  0.75679  0.05760  0.89911  1.0000
  H   H1332     1.0  0.74776  0.07521  0.94578  1.0000
  H   H1333     1.0  0.78402  0.09633  0.97004  1.0000
  C   C781      1.0  0.71611  0.03402  0.94005  1.0000
  H   H1334     1.0  0.89767  0.48548  0.79097  1.0000
  H   H1335     1.0  0.66315  0.06549  0.78050  1.0000
  H   H1336     1.0  0.80457  0.06202  0.94977  1.0000
  H   H1337     1.0  0.74365  0.06575  0.89973  1.0000
  H   H1338     1.0  0.78094  0.08896  0.92199  1.0000
  C   C782      1.0  0.90568  0.49020  0.75682  1.0000
  H   H1339     1.0  0.96587  0.24742  0.80044  1.0000
  S   S212      1.0  0.61015  0.00614  0.81788  1.0000
  S   S213      1.0  0.80866  0.02706  0.98553  1.0000
  C   C783      1.0  0.68980  0.09611  0.75882  1.0000
  C   C784      1.0  0.95646  0.29089  0.98332  1.0000
  C   C785      1.0  0.49994  0.49073  0.82023  1.0000
  H   H1340     1.0  0.89052  0.46868  0.75247  1.0000
  C   C786      1.0  0.98766  0.44988  0.80669  1.0000
  C   C787      1.0  0.97936  0.13187  0.99683  1.0000
  S   S214      1.0  0.73341  0.00212  0.99303  1.0000
  H   H1341     1.0  0.69323  0.11296  0.76926  1.0000
  C   C788      1.0  0.96897  0.28587  0.90743  1.0000
  N   N55       1.0  0.91885  0.24292  0.83579  1.0000
  C   C789      1.0  0.92994  0.23725  0.81610  1.0000
  C   C790      1.0  0.88964  0.22491  0.83355  1.0000
  C   C791      1.0  0.92860  0.23513  0.85530  1.0000
  C   C792      1.0  0.92822  0.27290  0.83670  1.0000
  H   H1342     1.0  0.98072  0.10236  0.97432  1.0000
  C   C793      1.0  0.87698  0.23003  0.81384  1.0000
  C   C794      1.0  0.91681  0.23520  0.87708  1.0000
  C   C795      1.0  0.91270  0.28214  0.85030  1.0000
  H   H1343     1.0  0.92078  0.21493  0.81300  1.0000
  H   H1344     1.0  0.92562  0.24520  0.80135  1.0000
  H   H1345     1.0  0.87968  0.22644  0.84779  1.0000
  H   H1346     1.0  0.88384  0.20309  0.83267  1.0000
  H   H1347     1.0  0.92541  0.21437  0.85278  1.0000
  H   H1348     1.0  0.94999  0.24911  0.85781  1.0000
  H   H1349     1.0  0.94884  0.28500  0.84256  1.0000
  H   H1350     1.0  0.92850  0.28026  0.82018  1.0000
  Fe  Fe101     1.0  0.97980  0.23256  0.96699  1.0000
  H   H1351     1.0  0.81385  0.09804  0.97623  1.0000
  S   S215      1.0  0.64746  0.01266  0.75944  1.0000
  H   H1352     1.0  0.88242  0.22454  0.79846  1.0000
  H   H1353     1.0  0.85548  0.21704  0.81462  1.0000
  H   H1354     1.0  0.88185  0.25142  0.81349  1.0000
  H   H1355     1.0  0.89570  0.22001  0.87746  1.0000
  H   H1356     1.0  0.92102  0.25571  0.88188  1.0000
  H   H1357     1.0  0.92622  0.22947  0.88977  1.0000
  H   H1358     1.0  0.92643  0.29969  0.86100  1.0000
  H   H1359     1.0  0.89789  0.26675  0.86068  1.0000
  H   H1360     1.0  0.90313  0.28990  0.83959  1.0000
  H   H1361     1.0  0.95392  0.28587  0.91668  1.0000
  S   S216      1.0  0.97393  0.19024  0.96682  1.0000
  H   H1362     1.0  0.85347  0.06276  0.96095  1.0000
  H   H1363     1.0  0.76825  0.06474  0.88427  1.0000
  H   H1364     1.0  0.89288  0.10856  0.96816  1.0000
  C   C796      1.0  0.97588  0.29934  0.88756  1.0000
  H   H1365     1.0  0.96545  0.23864  0.82796  1.0000
  Fe  Fe102     1.0  0.98764  0.38233  0.80366  1.0000
  H   H1366     1.0  0.79322  0.02140  0.93719  1.0000
  H   H1367     1.0  0.65887  0.12947  0.75001  1.0000
  C   C797      1.0  0.87831  0.09934  0.98027  1.0000
  H   H1368     1.0  0.95000  0.30336  0.99162  1.0000
  C   C798      1.0  0.75670  0.02183  0.93534  1.0000
  H   H1369     1.0  0.96378  0.11827  0.96374  1.0000
  C   C799      1.0  0.77670  0.01581  0.92577  1.0000
  S   S217      1.0  0.98360  0.31391  0.78969  1.0000
  H   H1370     1.0  0.95799  0.29508  0.96586  1.0000
  H   H1371     1.0  0.93070  0.47872  0.85780  1.0000
  Fe  Fe103     1.0  0.99338  0.33547  0.82234  1.0000
  H   H1372     1.0  0.96586  0.47038  0.89029  1.0000
  H   H1373     1.0  0.93189  0.48789  0.83044  1.0000
  H   H1374     1.0  0.92337  0.48980  0.76151  1.0000
  C   C800      1.0  0.49629  0.48316  0.79832  1.0000
  H   H1375     1.0  0.93449  0.08357  0.98592  1.0000
  H   H1376     1.0  0.97443  0.14786  0.99466  1.0000
  H   H1377     1.0  0.98737  0.34319  0.97906  1.0000
  H   H1378     1.0  0.97910  0.48658  0.86613  1.0000
  C   C801      1.0  0.93527  0.49597  0.84731  1.0000
  C   C802      1.0  0.98208  0.29474  0.99288  1.0000
  H   H1379     1.0  0.87720  0.49389  0.77637  1.0000
  S   S218      1.0  0.95442  0.22387  0.99588  1.0000
  Fe  Fe104     1.0  0.95062  0.18275  0.99682  1.0000
  C   C803      1.0  0.89735  0.49810  0.77774  1.0000
  H   H1380     1.0  0.53231  0.91403  0.13681  1.0000
  Fe  Fe105     1.0  0.95129  0.57727  0.19966  1.0000
  S   S219      1.0  0.95126  0.55551  0.16905  1.0000
  S   S220      1.0  0.91425  0.55793  0.21911  1.0000
  H   H1381     1.0  0.92296  0.61301  0.22324  1.0000
  H   H1382     1.0  0.89939  0.63094  0.24355  1.0000
  Fe  Fe106     1.0  0.97379  0.59750  0.15494  1.0000
  S   S221      1.0  0.96098  0.60121  0.12043  1.0000
  C   C804      1.0  0.87644  0.55454  0.24532  1.0000
  S   S222      1.0  0.97128  0.61850  0.18499  1.0000
  Fe  Fe107     1.0  0.59659  0.62112  0.19558  1.0000
  S   S223      1.0  0.57573  0.59074  0.16801  1.0000
  S   S224      1.0  0.58662  0.65331  0.20409  1.0000
  Fe  Fe108     1.0  0.63296  0.59986  0.20514  1.0000
  S   S225      1.0  0.61458  0.56783  0.17850  1.0000
  H   H1383     1.0  0.54728  0.95585  0.11920  1.0000
  Fe  Fe109     1.0  0.61590  0.60108  0.15821  1.0000
  S   S226      1.0  0.62650  0.60404  0.12234  1.0000
  Fe  Fe110     1.0  0.57588  0.56008  0.19002  1.0000
  S   S227      1.0  0.54229  0.51772  0.19922  1.0000
  S   S228      1.0  0.63651  0.63338  0.18425  1.0000
  S   S229      1.0  0.59449  0.59015  0.21804  1.0000
  Fe  Fe111     1.0  0.61955  0.96742  0.16414  1.0000
  S   S230      1.0  0.63833  0.97833  0.19775  1.0000
  S   S231      1.0  0.63383  0.95260  0.13554  1.0000
  Fe  Fe112     1.0  0.57116  0.96955  0.17918  1.0000
  S   S232      1.0  0.58737  0.98114  0.21305  1.0000
  S   S233      1.0  0.53002  0.95809  0.16673  1.0000
  H   H1384     1.0  0.99089  0.66145  0.12438  1.0000
  Fe  Fe113     1.0  0.59818  0.94907  0.20988  1.0000
  H   H1385     1.0  0.58187  0.52620  0.08280  1.0000
  S   S234      1.0  0.58015  0.93607  0.17654  1.0000
  Fe  Fe114     1.0  0.97718  0.70670  0.01924  1.0000
  C   C805      1.0  0.56013  0.95981  0.07978  1.0000
  H   H1386     1.0  0.53095  0.90471  0.10904  1.0000
  Fe  Fe115     1.0  0.71869  0.70759  0.02595  1.0000
  S   S235      1.0  0.75913  0.74440  0.02215  1.0000
  S   S236      1.0  0.70373  0.70114  0.06076  1.0000
  Fe  Fe116     1.0  0.71619  0.97452  0.02163  1.0000
  S   S237      1.0  0.75083  0.96924  0.02607  1.0000
  H   H1387     1.0  0.91470  0.62854  0.15758  1.0000
  C   C806      1.0  0.58292  0.88957  0.24374  1.0000
  H   H1388     1.0  0.87847  0.59886  0.17431  1.0000
  C   C807      1.0  0.67866  0.99775  0.08515  1.0000
  H   H1389     1.0  0.55709  0.56428  0.11187  1.0000
  H   H1390     1.0  0.59452  0.93395  0.10423  1.0000
  H   H1391     1.0  0.83025  0.51865  0.13108  1.0000
  N   N56       1.0  0.56437  0.50932  0.12461  1.0000
  H   H1392     1.0  0.95274  0.63509  0.04988  1.0000
  C   C808      1.0  0.65286  0.96369  0.11168  1.0000
  C   C809      1.0  0.65555  0.94464  0.09918  1.0000
  C   C810      1.0  0.66981  0.95207  0.07999  1.0000
  C   C811      1.0  0.68155  0.97876  0.07274  1.0000
  H   H1393     1.0  0.91830  0.65398  0.05097  1.0000
  C   C812      1.0  0.59990  0.94288  0.07055  1.0000
  H   H1394     1.0  0.64662  0.92392  0.10445  1.0000
  H   H1395     1.0  0.67168  0.93710  0.07078  1.0000
  H   H1396     1.0  0.61259  0.98162  0.11438  1.0000
  C   C813      1.0  0.64826  0.63146  0.10560  1.0000
  C   C814      1.0  0.65078  0.62567  0.08392  1.0000
  C   C815      1.0  0.66760  0.64649  0.07001  1.0000
  C   C816      1.0  0.68220  0.67364  0.07752  1.0000
  C   C817      1.0  0.67960  0.67945  0.09918  1.0000
  C   C818      1.0  0.66287  0.65861  0.11311  1.0000
  H   H1397     1.0  0.63967  0.60486  0.07781  1.0000
  H   H1398     1.0  0.66923  0.64153  0.05347  1.0000
  H   H1399     1.0  0.69071  0.70026  0.10529  1.0000
  H   H1400     1.0  0.66126  0.66358  0.12965  1.0000
  C   C819      1.0  0.96744  0.62786  0.10224  1.0000
  C   C820      1.0  0.95662  0.62083  0.08108  1.0000
  C   C821      1.0  0.96096  0.64099  0.06609  1.0000
  C   C822      1.0  0.97610  0.66866  0.07204  1.0000
  C   C823      1.0  0.87974  0.75606  0.00211  1.0000
  H   H1401     1.0  0.51067  0.62352  0.24694  1.0000
  H   H1402     1.0  0.52345  0.62295  0.22161  1.0000
  H   H1403     1.0  0.53962  0.92020  0.21006  1.0000
  C   C824      1.0  0.85571  0.56258  0.19119  1.0000
  H   H1404     1.0  0.58966  0.51241  0.15129  1.0000
  H   H1405     1.0  0.89315  0.61530  0.13375  1.0000
  N   N57       1.0  0.88095  0.56762  0.15639  1.0000
  C   C825      1.0  0.64788  0.66947  0.23805  1.0000
  H   H1406     1.0  0.59027  0.94533  0.05615  1.0000
  H   H1407     1.0  0.65893  0.55863  0.21522  1.0000
  C   C826      1.0  0.54899  0.54221  0.11426  1.0000
  H   H1408     1.0  0.53981  0.91882  0.06412  1.0000
  H   H1409     1.0  0.85482  0.54380  0.19639  1.0000
  H   H1410     1.0  0.89789  0.66177  0.03559  1.0000
  C   C827      1.0  0.52524  0.89808  0.21135  1.0000
  H   H1411     1.0  0.83022  0.52439  0.15972  1.0000
  C   C828      1.0  0.54433  0.91709  0.12255  1.0000
  H   H1412     1.0  0.57866  0.54969  0.13803  1.0000
  C   C829      1.0  0.89837  0.57194  0.23339  1.0000
  H   H1413     1.0  0.92716  0.62799  0.13197  1.0000
  H   H1414     1.0  0.94502  0.59958  0.07613  1.0000
  H   H1415     1.0  0.53834  0.60902  0.18299  1.0000
  H   H1416     1.0  0.62109  0.55064  0.13129  1.0000
  H   H1417     1.0  0.83723  0.55797  0.18315  1.0000
  C   C830      1.0  0.58674  0.85102  0.23275  1.0000
  H   H1418     1.0  0.81615  0.53674  0.14135  1.0000
  H   H1419     1.0  0.50644  0.84484  0.22115  1.0000
  H   H1420     1.0  0.54371  0.55917  0.23598  1.0000
  C   C831      1.0  0.98660  0.67568  0.09330  1.0000
  H   H1421     1.0  0.85400  0.57757  0.14204  1.0000
  C   C832      1.0  0.83274  0.53365  0.14384  1.0000
  H   H1422     1.0  0.60279  0.92568  0.06688  1.0000
  H   H1423     1.0  0.70364  0.79480  0.00442  1.0000
  C   C833      1.0  0.57958  0.66285  0.22926  1.0000
  H   H1424     1.0  0.61970  0.96099  0.07313  1.0000
  N   N58       1.0  0.57558  0.95632  0.09743  1.0000
  H   H1425     1.0  0.58284  0.69923  0.21680  1.0000
  H   H1426     1.0  0.89157  0.65314  0.06368  1.0000
  H   H1427     1.0  0.85754  0.57432  0.20619  1.0000
  H   H1428     1.0  0.51205  0.57870  0.17139  1.0000
  C   C834      1.0  0.71035  0.83574  0.00532  1.0000
  C   C835      1.0  0.90600  0.58810  0.14607  1.0000
  C   C836      1.0  0.88300  0.54316  0.16119  1.0000
  C   C837      1.0  0.91004  0.61647  0.14227  1.0000
  C   C838      1.0  0.98241  0.65553  0.10825  1.0000
  H   H1429     1.0  0.92317  0.59131  0.15580  1.0000
  H   H1430     1.0  0.90758  0.58043  0.12995  1.0000
  H   H1431     1.0  0.89941  0.54897  0.17291  1.0000
  H   H1432     1.0  0.86413  0.56076  0.12414  1.0000
  C   C839      1.0  0.57889  0.68687  0.23082  1.0000
  H   H1433     1.0  0.64743  0.65201  0.22959  1.0000
  H   H1434     1.0  0.54875  0.50982  0.15557  1.0000
  H   H1435     1.0  0.52908  0.88025  0.18152  1.0000
  C   C840      1.0  0.58765  0.50876  0.13346  1.0000
  N   N59       1.0  0.91370  0.71143  0.06308  1.0000
  C   C841      1.0  0.93403  0.74078  0.05911  1.0000
  C   C842      1.0  0.89091  0.70359  0.04783  1.0000
  C   C843      1.0  0.92554  0.69441  0.05818  1.0000
  C   C844      1.0  0.90657  0.70943  0.08639  1.0000
  S   S238      1.0  0.72700  0.68203  0.00358  1.0000
  C   C845      1.0  0.87689  0.71940  0.05101  1.0000
  C   C846      1.0  0.90686  0.66412  0.05188  1.0000
  C   C847      1.0  0.88414  0.68174  0.09369  1.0000
  H   H1436     1.0  0.93833  0.74367  0.04166  1.0000
  H   H1437     1.0  0.92694  0.75459  0.06340  1.0000
  H   H1438     1.0  0.87570  0.68177  0.04858  1.0000
  H   H1439     1.0  0.89730  0.70609  0.03086  1.0000
  H   H1440     1.0  0.93886  0.70289  0.04442  1.0000
  H   H1441     1.0  0.93788  0.69512  0.07207  1.0000
  H   H1442     1.0  0.92353  0.71401  0.09702  1.0000
  H   H1443     1.0  0.90242  0.72547  0.09128  1.0000
  H   H1444     1.0  0.59679  0.88570  0.21303  1.0000
  H   H1445     1.0  0.54047  0.53159  0.09853  1.0000
  H   H1446     1.0  0.51748  0.90305  0.17757  1.0000
  C   C848      1.0  0.96041  0.75229  0.07142  1.0000
  H   H1447     1.0  0.62919  0.52502  0.13089  1.0000
  H   H1448     1.0  0.88925  0.74104  0.04669  1.0000
  C   C849      1.0  0.50887  0.98196  0.19276  1.0000
  H   H1449     1.0  0.97390  0.77338  0.06618  1.0000
  H   H1450     1.0  0.55354  0.97369  0.08532  1.0000
  H   H1451     1.0  0.89147  0.66833  0.09843  1.0000
  H   H1452     1.0  0.86808  0.67100  0.08158  1.0000
  H   H1453     1.0  0.87502  0.68513  0.10783  1.0000
  C   C850      1.0  0.58339  0.93625  0.09083  1.0000
  C   C851      1.0  0.57128  0.50383  0.08396  1.0000
  C   C852      1.0  0.52210  0.57523  0.20498  1.0000
  H   H1454     1.0  0.53729  0.88990  0.21736  1.0000
  C   C853      1.0  0.51894  0.59125  0.18655  1.0000
  H   H1455     1.0  0.53361  0.53582  0.12629  1.0000
  H   H1456     1.0  0.52336  0.55851  0.19693  1.0000
  H   H1457     1.0  0.86584  0.52718  0.16944  1.0000
  H   H1458     1.0  0.87301  0.52486  0.12810  1.0000
  H   H1459     1.0  0.69128  0.82935  0.01125  1.0000
  N   N60       1.0  0.50127  0.56370  0.22162  1.0000
  H   H1460     1.0  0.64424  0.68621  0.20799  1.0000
  H   H1461     1.0  0.89715  0.58711  0.18748  1.0000
  C   C854      1.0  0.87929  0.58031  0.17726  1.0000
  C   C855      1.0  0.68746  0.55423  0.23355  1.0000
  C   C856      1.0  0.89298  0.60957  0.24413  1.0000
  C   C857      1.0  0.50542  0.96492  0.17501  1.0000
  C   C858      1.0  0.88717  0.52928  0.14150  1.0000
  C   C859      1.0  0.67438  0.56768  0.22743  1.0000
  H   H1462     1.0  0.57392  0.95683  0.13247  1.0000
  H   H1463     1.0  0.58736  0.54965  0.11124  1.0000
  H   H1464     1.0  0.67712  0.69876  0.21599  1.0000
  H   H1465     1.0  0.59210  0.84111  0.22076  1.0000
  C   C860      1.0  0.58940  0.87632  0.22830  1.0000
  H   H1466     1.0  0.88482  0.50965  0.14639  1.0000
  H   H1467     1.0  0.90723  0.54176  0.13555  1.0000
  H   H1468     1.0  0.56620  0.91555  0.08780  1.0000
  C   C861      1.0  0.66461  0.99040  0.10446  1.0000
  Fe  Fe117     1.0  0.72884  0.93258  0.00301  1.0000
  H   H1469     1.0  0.68191  0.53487  0.22591  1.0000
  H   H1470     1.0  0.89445  0.77694  0.00628  1.0000
  H   H1471     1.0  0.86982  0.71791  0.06757  1.0000
  S   S239      1.0  0.66576  0.61087  0.23000  1.0000
  H   H1472     1.0  0.85950  0.71046  0.03994  1.0000
  H   H1473     1.0  0.67670  0.73360  0.06523  1.0000
  N   N61       1.0  0.72171  0.78870  0.06792  1.0000
  C   C862      1.0  0.72216  0.77225  0.08642  1.0000
  C   C863      1.0  0.73803  0.78736  0.05036  1.0000
  C   C864      1.0  0.69447  0.77752  0.05898  1.0000
  C   C865      1.0  0.73220  0.81752  0.07594  1.0000
  C   C866      1.0  0.70367  0.76784  0.10489  1.0000
  C   C867      1.0  0.76771  0.80396  0.05474  1.0000
  C   C868      1.0  0.67969  0.74722  0.05174  1.0000
  C   C869      1.0  0.73482  0.83792  0.05880  1.0000
  H   H1474     1.0  0.71763  0.75178  0.08070  1.0000
  H   H1475     1.0  0.74205  0.78194  0.09387  1.0000
  H   H1476     1.0  0.73406  0.79380  0.03472  1.0000
  H   H1477     1.0  0.73267  0.76595  0.04714  1.0000
  H   H1478     1.0  0.68237  0.78043  0.07077  1.0000
  H   H1479     1.0  0.69470  0.78906  0.04468  1.0000
  H   H1480     1.0  0.71925  0.81814  0.08818  1.0000
  H   H1481     1.0  0.75116  0.82601  0.08492  1.0000
  H   H1482     1.0  0.68295  0.75644  0.09943  1.0000
  H   H1483     1.0  0.70577  0.75524  0.11721  1.0000
  H   H1484     1.0  0.70853  0.78722  0.11312  1.0000
  H   H1485     1.0  0.77343  0.79730  0.06937  1.0000
  H   H1486     1.0  0.77736  0.80073  0.04091  1.0000
  H   H1487     1.0  0.77548  0.82614  0.05590  1.0000
  H   H1488     1.0  0.66010  0.74139  0.04525  1.0000
  H   H1489     1.0  0.50649  0.59962  0.18990  1.0000
  S   S240      1.0  0.69362  0.93700  0.99995  1.0000
  H   H1490     1.0  0.71616  0.83716  0.05604  1.0000
  H   H1491     1.0  0.74145  0.83470  0.04317  1.0000
  H   H1492     1.0  0.75005  0.85888  0.06423  1.0000
  C   C870      1.0  0.56055  0.94782  0.11808  1.0000
  H   H1493     1.0  0.61219  0.99104  0.08735  1.0000
  H   H1494     1.0  0.96993  0.74062  0.06783  1.0000
  H   H1495     1.0  0.84783  0.76317  0.00477  1.0000
  S   S241      1.0  0.98224  0.69530  0.05394  1.0000
  S   S242      1.0  0.98821  0.58105  0.21294  1.0000
  C   C871      1.0  0.57118  0.53834  0.12231  1.0000
  C   C872      1.0  0.71734  0.81603  0.00153  1.0000
  H   H1496     1.0  0.49640  0.86884  0.18635  1.0000
  C   C873      1.0  0.57423  0.64700  0.24749  1.0000
  H   H1497     1.0  0.70091  0.70223  0.24515  1.0000
  H   H1498     1.0  0.55722  0.90922  0.12669  1.0000
  H   H1499     1.0  0.52096  0.92427  0.08397  1.0000
  S   S243      1.0  0.69945  0.98949  0.04827  1.0000
  C   C874      1.0  0.85852  0.56112  0.14111  1.0000
  S   S244      1.0  0.98530  0.74977  0.01870  1.0000
  C   C875      1.0  0.90648  0.59953  0.23271  1.0000
  H   H1500     1.0  0.68965  0.74326  0.03864  1.0000
  C   C876      1.0  0.65784  0.69301  0.22221  1.0000
  H   H1501     1.0  0.55117  0.94246  0.24161  1.0000
  C   C877      1.0  0.51616  0.88694  0.18802  1.0000
  H   H1502     1.0  0.62716  0.66230  0.24040  1.0000
  C   C878      1.0  0.53546  0.93373  0.07127  1.0000
  Fe  Fe118     1.0  0.98947  0.56186  0.18134  1.0000
  H   H1503     1.0  0.99193  0.68863  0.22869  1.0000
  H   H1504     1.0  0.65835  0.71103  0.22940  1.0000
  S   S245      1.0  0.58671  0.92195  0.23943  1.0000
  C   C879      1.0  0.50686  0.58470  0.23914  1.0000
  S   S246      1.0  0.70043  0.71926  0.99932  1.0000
  H   H1505     1.0  0.52620  0.93913  0.05824  1.0000
  H   H1506     1.0  0.50599  0.51426  0.16479  1.0000
  C   C880      1.0  0.68144  0.59284  0.23706  1.0000
  H   H1507     1.0  0.95858  0.75357  0.08906  1.0000
  H   H1508     1.0  0.52705  0.99164  0.20200  1.0000
  H   H1509     1.0  0.54159  0.58885  0.21289  1.0000
  H   H1510     1.0  0.49833  0.52445  0.21973  1.0000
  S   S247      1.0  0.92156  0.74839  0.99974  1.0000
  H   H1511     1.0  0.57253  0.96984  0.06577  1.0000
  C   C881      1.0  0.52592  0.54690  0.24517  1.0000
  C   C882      1.0  0.60017  0.98354  0.10187  1.0000
  C   C883      1.0  0.72774  0.86361  0.00160  1.0000
  C   C884      1.0  0.50713  0.61046  0.23233  1.0000
  C   C885      1.0  0.85318  0.74827  0.00131  1.0000
  S   S248      1.0  0.71770  0.88756  0.00708  1.0000
  C   C886      1.0  0.50114  0.54007  0.23207  1.0000
  H   H1512     1.0  0.95661  0.64787  0.24595  1.0000
  H   H1513     1.0  0.50880  0.93169  0.21731  1.0000
  C   C887      1.0  0.61457  0.52984  0.12494  1.0000
  H   H1514     1.0  0.61521  0.53007  0.10719  1.0000
  H   H1515     1.0  0.57449  0.62839  0.24650  1.0000
  H   H1516     1.0  0.52633  0.59243  0.24689  1.0000
  H   H1517     1.0  0.68935  0.66700  0.24242  1.0000
  N   N62       1.0  0.50467  0.89358  0.22708  1.0000
  H   H1518     1.0  0.97365  0.61239  0.24421  1.0000
  H   H1519     1.0  0.86989  0.53313  0.24587  1.0000
  H   H1520     1.0  0.99294  0.65866  0.22381  1.0000
  Fe  Fe119     1.0  0.58584  0.77771  0.33270  1.0000
  S   S249      1.0  0.55282  0.73470  0.33679  1.0000
  S   S250      1.0  0.62019  0.80696  0.35539  1.0000
  Fe  Fe120     1.0  0.56518  0.78102  0.28748  1.0000
  S   S251      1.0  0.53056  0.73798  0.28832  1.0000
  C   C888      1.0  0.57312  0.69516  0.25037  1.0000
  Fe  Fe121     1.0  0.52666  0.74830  0.32279  1.0000
  Fe  Fe122     1.0  0.55902  0.72718  0.30198  1.0000
  S   S252      1.0  0.56014  0.68869  0.29363  1.0000
  S   S253      1.0  0.55951  0.79205  0.32078  1.0000
  S   S254      1.0  0.59376  0.76935  0.29899  1.0000
  Fe  Fe123     1.0  0.78471  0.58606  0.32452  1.0000
  S   S255      1.0  0.74875  0.54584  0.31486  1.0000
  S   S256      1.0  0.77907  0.60739  0.35338  1.0000
  Fe  Fe124     1.0  0.81586  0.58249  0.28725  1.0000
  C   C889      1.0  0.69022  0.68273  0.25373  1.0000
  Fe  Fe125     1.0  0.75707  0.56033  0.28086  1.0000
  C   C890      1.0  0.75949  0.74425  0.49107  1.0000
  S   S257      1.0  0.79123  0.60156  0.29062  1.0000
  S   S258      1.0  0.57578  0.80727  0.25756  1.0000
  C   C891      1.0  0.72983  0.52332  0.37470  1.0000
  H   H1521     1.0  0.80959  0.57223  0.37725  1.0000
  H   H1522     1.0  0.79944  0.52859  0.35613  1.0000
  H   H1523     1.0  0.73453  0.83032  0.40725  1.0000
  H   H1524     1.0  0.62799  0.90373  0.32662  1.0000
  C   C892      1.0  0.67974  0.87488  0.32697  1.0000
  Fe  Fe126     1.0  0.68574  0.81605  0.47322  1.0000
  S   S259      1.0  0.65418  0.78699  0.44850  1.0000
  S   S260      1.0  0.72725  0.84707  0.46588  1.0000
  Fe  Fe127     1.0  0.84324  0.68101  0.46870  1.0000
  S   S261      1.0  0.85601  0.72518  0.47416  1.0000
  S   S262      1.0  0.85076  0.66435  0.43773  1.0000
  H   H1525     1.0  0.92964  0.78408  0.42397  1.0000
  C   C893      1.0  0.57752  0.83857  0.25263  1.0000
  H   H1526     1.0  0.62703  0.90780  0.28263  1.0000
  C   C894      1.0  0.77246  0.55964  0.40534  1.0000
  H   H1527     1.0  0.80972  0.51885  0.38035  1.0000
  H   H1528     1.0  0.61319  0.64744  0.27890  1.0000
  H   H1529     1.0  0.69147  0.87862  0.34207  1.0000
  S   S263      1.0  0.78213  0.54236  0.27518  1.0000
  H   H1530     1.0  0.83158  0.54917  0.36696  1.0000
  N   N63       1.0  0.98006  0.64175  0.26945  1.0000
  C   C895      1.0  0.76690  0.51422  0.40427  1.0000
  C   C896      1.0  0.70163  0.60426  0.25292  1.0000
  H   H1531     1.0  0.62837  0.88042  0.26924  1.0000
  H   H1532     1.0  0.56336  0.84225  0.28326  1.0000
  H   H1533     1.0  0.72702  0.53964  0.38124  1.0000
  H   H1534     1.0  0.71082  0.70115  0.28502  1.0000
  H   H1535     1.0  0.79099  0.55610  0.43527  1.0000
  H   H1536     1.0  0.65365  0.91500  0.26620  1.0000
  C   C897      1.0  0.61933  0.88194  0.32154  1.0000
  H   H1537     1.0  0.70084  0.66563  0.28092  1.0000
  H   H1538     1.0  0.95653  0.60964  0.29160  1.0000
  H   H1539     1.0  0.64610  0.86436  0.34426  1.0000
  H   H1540     1.0  0.64497  0.72193  0.27531  1.0000
  H   H1541     1.0  0.84603  0.55086  0.26574  1.0000
  S   S264      1.0  0.85501  0.60593  0.27051  1.0000
  C   C898      1.0  0.64043  0.70058  0.27483  1.0000
  C   C899      1.0  0.80001  0.62458  0.37610  1.0000
  C   C900      1.0  0.79078  0.63352  0.39304  1.0000
  C   C901      1.0  0.80603  0.64579  0.41201  1.0000
  C   C902      1.0  0.83077  0.64937  0.41417  1.0000
  C   C903      1.0  0.84009  0.64062  0.39718  1.0000
  C   C904      1.0  0.82481  0.62826  0.37823  1.0000
  H   H1542     1.0  0.77159  0.63068  0.39157  1.0000
  H   H1543     1.0  0.79861  0.65241  0.42494  1.0000
  H   H1544     1.0  0.85924  0.64336  0.39870  1.0000
  H   H1545     1.0  0.83220  0.62161  0.36530  1.0000
  H   H1546     1.0  0.75241  0.55022  0.41145  1.0000
  C   C905      1.0  0.56772  0.67934  0.26861  1.0000
  C   C906      1.0  0.56826  0.65518  0.26702  1.0000
  H   H1547     1.0  0.56404  0.64277  0.28103  1.0000
  H   H1548     1.0  0.66593  0.89989  0.34003  1.0000
  C   C907      1.0  0.62881  0.80104  0.38150  1.0000
  C   C908      1.0  0.61644  0.77515  0.39029  1.0000
  C   C909      1.0  0.62438  0.77134  0.41082  1.0000
  C   C910      1.0  0.64460  0.79333  0.42295  1.0000
  C   C911      1.0  0.65686  0.81926  0.41424  1.0000
  C   C912      1.0  0.64912  0.82302  0.39360  1.0000
  H   H1549     1.0  0.60083  0.75803  0.38124  1.0000
  H   H1550     1.0  0.61469  0.75120  0.41738  1.0000
  H   H1551     1.0  0.67237  0.83641  0.42335  1.0000
  H   H1552     1.0  0.65883  0.84315  0.38703  1.0000
  H   H1553     1.0  0.65926  0.65714  0.28990  1.0000
  H   H1554     1.0  0.69702  0.51266  0.29405  1.0000
  C   C913      1.0  0.76201  0.94997  0.49286  1.0000
  H   H1555     1.0  0.76665  0.55297  0.36198  1.0000
  C   C914      1.0  0.65735  0.87949  0.33185  1.0000
  H   H1556     1.0  0.58593  0.86531  0.34239  1.0000
  H   H1557     1.0  0.91346  0.79510  0.45602  1.0000
  H   H1558     1.0  0.81635  0.55861  0.40026  1.0000
  C   C915      1.0  0.57065  0.85164  0.26797  1.0000
  S   S265      1.0  0.81165  0.57008  0.32199  1.0000
  H   H1559     1.0  0.50274  0.89500  0.26202  1.0000
  C   C916      1.0  0.60406  0.86486  0.34083  1.0000
  N   N64       1.0  0.93176  0.75001  0.43599  1.0000
  C   C917      1.0  0.92040  0.76806  0.43623  1.0000
  C   C918      1.0  0.93115  0.74123  0.41285  1.0000
  C   C919      1.0  0.95953  0.76674  0.44466  1.0000
  C   C920      1.0  0.91550  0.72627  0.45012  1.0000
  C   C921      1.0  0.78471  0.74843  0.49243  1.0000
  C   C922      1.0  0.90384  0.72346  0.40210  1.0000
  C   C923      1.0  0.57337  0.87698  0.26354  1.0000
  C   C924      1.0  0.92096  0.70289  0.45002  1.0000
  H   H1560     1.0  0.63192  0.69144  0.29045  1.0000
  H   H1561     1.0  0.89924  0.75618  0.43185  1.0000
  H   H1562     1.0  0.94093  0.72953  0.41096  1.0000
  H   H1563     1.0  0.94242  0.75941  0.40279  1.0000
  C   C925      1.0  0.70805  0.68536  0.27300  1.0000
  H   H1564     1.0  0.96006  0.76846  0.46256  1.0000
  H   H1565     1.0  0.91766  0.73325  0.46720  1.0000
  H   H1566     1.0  0.89436  0.71727  0.44664  1.0000
  H   H1567     1.0  0.97629  0.58969  0.27749  1.0000
  N   N65       1.0  0.77529  0.53949  0.39152  1.0000
  H   H1568     1.0  0.94325  0.79720  0.46325  1.0000
  H   H1569     1.0  0.89333  0.73446  0.40061  1.0000
  H   H1570     1.0  0.90587  0.71751  0.38548  1.0000
  H   H1571     1.0  0.89181  0.70430  0.41071  1.0000
  H   H1572     1.0  0.97574  0.72525  0.48993  1.0000
  H   H1573     1.0  0.52512  0.94403  0.25418  1.0000
  H   H1574     1.0  0.71914  0.51680  0.35890  1.0000
  H   H1575     1.0  0.93690  0.70711  0.46162  1.0000
  H   H1576     1.0  0.92507  0.69778  0.43396  1.0000
  H   H1577     1.0  0.90318  0.68394  0.45487  1.0000
  N   N66       1.0  0.63992  0.87695  0.31303  1.0000
  C   C926      1.0  0.65552  0.89917  0.29743  1.0000
  C   C927      1.0  0.62660  0.84873  0.30270  1.0000
  C   C928      1.0  0.63997  0.90035  0.27788  1.0000
  C   C929      1.0  0.64190  0.84314  0.28567  1.0000
  H   H1578     1.0  0.60451  0.87790  0.30867  1.0000
  H   H1579     1.0  0.67187  0.89799  0.29092  1.0000
  H   H1580     1.0  0.66511  0.91950  0.30587  1.0000
  H   H1581     1.0  0.62074  0.83314  0.31523  1.0000
  H   H1582     1.0  0.60807  0.84389  0.29441  1.0000
  H   H1583     1.0  0.92083  0.61733  0.29570  1.0000
  S   S266      1.0  0.77311  0.82201  0.49135  1.0000
  S   S267      1.0  0.73545  0.91698  0.48497  1.0000
  H   H1584     1.0  0.63867  0.82253  0.28801  1.0000
  H   H1585     1.0  0.66315  0.85721  0.28619  1.0000
  H   H1586     1.0  0.63403  0.84239  0.26918  1.0000
  S   S268      1.0  0.80695  0.66543  0.48755  1.0000
  H   H1587     1.0  0.95050  0.64774  0.30365  1.0000
  C   C930      1.0  0.79085  0.57189  0.42539  1.0000
  H   H1588     1.0  0.52948  0.89299  0.25278  1.0000
  H   H1589     1.0  0.94070  0.60666  0.26647  1.0000
  H   H1590     1.0  0.61213  0.62350  0.25906  1.0000
  N   N67       1.0  0.66315  0.67604  0.25909  1.0000
  N   N68       1.0  0.71920  0.77480  0.42225  1.0000
  C   C931      1.0  0.71837  0.76668  0.44539  1.0000
  C   C932      1.0  0.74740  0.79103  0.41629  1.0000
  C   C933      1.0  0.70544  0.74900  0.40847  1.0000
  C   C934      1.0  0.70557  0.79057  0.42019  1.0000
  C   C935      1.0  0.69110  0.74681  0.45394  1.0000
  C   C936      1.0  0.76534  0.81535  0.43164  1.0000
  C   C937      1.0  0.70450  0.75246  0.38400  1.0000
  C   C938      1.0  0.71515  0.81240  0.40282  1.0000
  H   H1591     1.0  0.73034  0.75723  0.44786  1.0000
  H   H1592     1.0  0.72709  0.78490  0.45651  1.0000
  H   H1593     1.0  0.74975  0.79907  0.39985  1.0000
  H   H1594     1.0  0.75577  0.77771  0.41573  1.0000
  H   H1595     1.0  0.71440  0.73649  0.41131  1.0000
  H   H1596     1.0  0.68471  0.73610  0.41285  1.0000
  H   H1597     1.0  0.68428  0.77647  0.41712  1.0000
  H   H1598     1.0  0.70692  0.80141  0.43560  1.0000
  H   H1599     1.0  0.67701  0.75313  0.45001  1.0000
  H   H1600     1.0  0.68345  0.72571  0.44775  1.0000
  H   H1601     1.0  0.69240  0.74628  0.47177  1.0000
  H   H1602     1.0  0.77129  0.80831  0.44593  1.0000
  H   H1603     1.0  0.78342  0.82984  0.42338  1.0000
  H   H1604     1.0  0.75605  0.82661  0.43719  1.0000
  H   H1605     1.0  0.72397  0.76551  0.37728  1.0000
  H   H1606     1.0  0.69144  0.76004  0.37979  1.0000
  H   H1607     1.0  0.69590  0.73214  0.37582  1.0000
  H   H1608     1.0  0.71571  0.80461  0.38660  1.0000
  H   H1609     1.0  0.70158  0.81998  0.40163  1.0000
  C   C939      1.0  0.81096  0.53602  0.37145  1.0000
  C   C940      1.0  0.80346  0.55290  0.38564  1.0000
  H   H1610     1.0  0.61554  0.87342  0.35617  1.0000
  H   H1611     1.0  0.81095  0.58732  0.42089  1.0000
  H   H1612     1.0  0.67486  0.70305  0.28719  1.0000
  Fe  Fe128     1.0  0.77602  0.53094  0.31001  1.0000
  H   H1613     1.0  0.73601  0.76268  0.49001  1.0000
  C   C941      1.0  0.65126  0.65137  0.27306  1.0000
  H   H1614     1.0  0.59842  0.84332  0.33897  1.0000
  H   H1615     1.0  0.81868  0.81792  0.49339  1.0000
  S   S269      1.0  0.72359  0.54784  0.25628  1.0000
  H   H1616     1.0  0.67219  0.85336  0.32200  1.0000
  H   H1617     1.0  0.69317  0.88898  0.31498  1.0000
  C   C942      1.0  0.75887  0.53401  0.37126  1.0000
  C   C943      1.0  0.77680  0.79314  0.49156  1.0000
  H   H1618     1.0  0.91241  0.76842  0.47081  1.0000
  H   H1619     1.0  0.75014  0.50995  0.41436  1.0000
  C   C944      1.0  0.93948  0.63415  0.28962  1.0000
  H   H1620     1.0  0.97081  0.73565  0.44207  1.0000
  H   H1621     1.0  0.96895  0.78806  0.43906  1.0000
  H   H1622     1.0  0.77525  0.57698  0.39564  1.0000
  C   C945      1.0  0.92276  0.78287  0.45791  1.0000
  H   H1623     1.0  0.78421  0.58295  0.43571  1.0000
  H   H1624     1.0  0.82551  0.77883  0.49430  1.0000
  H   H1625     1.0  0.74865  0.97017  0.47209  1.0000
  H   H1626     1.0  0.93417  0.64507  0.27804  1.0000
  H   H1627     1.0  0.56827  0.88702  0.27561  1.0000
  H   H1628     1.0  0.75978  0.51950  0.35998  1.0000
  H   H1629     1.0  0.62547  0.69059  0.26182  1.0000
  S   S270      1.0  0.78815  0.71943  0.49337  1.0000
  H   H1630     1.0  0.97536  0.67614  0.26388  1.0000
  C   C946      1.0  0.97589  0.65976  0.25454  1.0000
  C   C947      1.0  0.62139  0.63487  0.27441  1.0000
  C   C948      1.0  0.95420  0.62180  0.27899  1.0000
  Fe  Fe129     1.0  0.73846  0.82843  0.49253  1.0000
  C   C949      1.0  0.86281  0.56451  0.25657  1.0000
  H   H1631     1.0  0.73027  0.59996  0.27117  1.0000
  H   H1632     1.0  0.78277  0.51756  0.41577  1.0000
  C   C950      1.0  0.87105  0.59214  0.25612  1.0000
  C   C951      1.0  0.80202  0.79734  0.49275  1.0000
  C   C952      1.0  0.97830  0.75718  0.43856  1.0000
  C   C953      1.0  0.71472  0.59083  0.25903  1.0000
  C   C954      1.0  0.76339  0.97299  0.48385  1.0000
  H   H1633     1.0  0.61580  0.61937  0.28694  1.0000
  Fe  Fe130     1.0  0.82085  0.70976  0.49497  1.0000
  C   C955      1.0  0.80599  0.77520  0.49326  1.0000
  H   H1634     1.0  0.99258  0.67132  0.29583  1.0000
  C   C956      1.0  0.66561  0.70042  0.27095  1.0000
  C   C957      1.0  0.75553  0.76638  0.49074  1.0000
  H   H1635     1.0  0.52745  0.55736  0.26079  1.0000
  H   H1636     1.0  0.72083  0.50560  0.38531  1.0000
  H   H1637     1.0  0.65651  0.63644  0.26722  1.0000
  H   H1638     1.0  0.70729  0.62370  0.26049  1.0000
  C   C958      1.0  0.98863  0.62522  0.25693  1.0000
  C   C959      1.0  0.70775  0.56573  0.24932  1.0000
  H   H1639     1.0  0.54594  0.93661  0.26956  1.0000
  Fe  Fe131     1.0  0.72430  0.87314  0.49197  1.0000
  H   H1640     1.0  0.72757  0.69152  0.26695  1.0000
  H   H1641     1.0  0.67936  0.71973  0.26296  1.0000
  H   H1642     1.0  0.50200  0.84802  0.24961  1.0000
  H   H1643     1.0  0.57269  0.71372  0.25129  1.0000
  C   C960      1.0  0.51757  0.90226  0.24931  1.0000
  C   C961      1.0  0.53585  0.93317  0.25361  1.0000
  H   H1644     1.0  0.74286  0.72366  0.49046  1.0000
  H   H1645     1.0  0.98342  0.76078  0.42136  1.0000
  H   H1646     1.0  0.72202  0.50130  0.27709  1.0000
  C   C962      1.0  0.97471  0.74238  0.49601  1.0000
  H   H1647     1.0  0.52504  0.52763  0.24898  1.0000
  S   S271      1.0  0.69733  0.79571  0.49815  1.0000
  S   S272      1.0  0.86645  0.68047  0.49737  1.0000
  S   S273      1.0  0.68187  0.84264  0.49812  1.0000
  H   H1648     1.0  0.66847  0.50023  0.27669  1.0000
  Fe  Fe132     1.0  0.57879  0.77255  0.64802  1.0000
  S   S274      1.0  0.55585  0.72810  0.65560  1.0000
  S   S275      1.0  0.58879  0.78643  0.61332  1.0000
  Fe  Fe133     1.0  0.57418  0.78998  0.69442  1.0000
  S   S276      1.0  0.55029  0.74644  0.70471  1.0000
  S   S277      1.0  0.59445  0.82718  0.71764  1.0000
  Fe  Fe134     1.0  0.57872  0.73958  0.68707  1.0000
  S   S278      1.0  0.60119  0.72071  0.70084  1.0000
  Fe  Fe135     1.0  0.52894  0.73824  0.67242  1.0000
  S   S279      1.0  0.60380  0.78353  0.67811  1.0000
  S   S280      1.0  0.55073  0.78227  0.66347  1.0000
  Fe  Fe136     1.0  0.78662  0.57907  0.66272  1.0000
  S   S281      1.0  0.74380  0.55922  0.66929  1.0000
  S   S282      1.0  0.80799  0.61533  0.64037  1.0000
  Fe  Fe137     1.0  0.79673  0.55185  0.70125  1.0000
  S   S283      1.0  0.82120  0.54114  0.72327  1.0000
  Fe  Fe138     1.0  0.75570  0.56949  0.70435  1.0000
  H   H1649     1.0  0.72433  0.96062  0.53901  1.0000
  S   S284      1.0  0.78744  0.54023  0.66580  1.0000
  S   S285      1.0  0.79862  0.59160  0.69773  1.0000
  Fe  Fe139     1.0  0.69673  0.82487  0.52248  1.0000
  S   S286      1.0  0.68654  0.81089  0.55723  1.0000
  S   S287      1.0  0.73883  0.85714  0.51797  1.0000
  Fe  Fe140     1.0  0.83096  0.66810  0.51685  1.0000
  S   S288      1.0  0.84276  0.71124  0.52547  1.0000
  S   S289      1.0  0.81699  0.63126  0.53838  1.0000
  H   H1650     1.0  0.92938  0.68371  0.57493  1.0000
  C   C963      1.0  0.55720  0.83626  0.73516  1.0000
  C   C964      1.0  0.50401  0.75428  0.59129  1.0000
  H   H1651     1.0  0.66693  0.98810  0.68457  1.0000
  C   C965      1.0  0.88623  0.52453  0.71346  1.0000
  H   H1652     1.0  0.55198  0.72633  0.55422  1.0000
  H   H1653     1.0  0.62230  0.96201  0.69645  1.0000
  H   H1654     1.0  0.75881  0.97913  0.53709  1.0000
  H   H1655     1.0  0.97070  0.80331  0.51791  1.0000
  H   H1656     1.0  0.93768  0.55082  0.70984  1.0000
  H   H1657     1.0  0.60783  0.62379  0.69151  1.0000
  H   H1658     1.0  0.65413  0.95268  0.68018  1.0000
  H   H1659     1.0  0.56892  0.93347  0.73679  1.0000
  C   C966      1.0  0.56488  0.67788  0.72508  1.0000
  H   H1660     1.0  0.64444  0.98170  0.71776  1.0000
  C   C967      1.0  0.58251  0.93502  0.72427  1.0000
  H   H1661     1.0  0.60714  0.54312  0.69309  1.0000
  H   H1662     1.0  0.79214  0.56043  0.74674  1.0000
  H   H1663     1.0  0.63064  0.56061  0.71430  1.0000
  C   C968      1.0  0.87187  0.58621  0.72687  1.0000
  H   H1664     1.0  0.59681  0.54953  0.71799  1.0000
  H   H1665     1.0  0.86660  0.59474  0.71374  1.0000
  C   C969      1.0  0.80835  0.61871  0.61186  1.0000
  C   C970      1.0  0.80150  0.59689  0.59748  1.0000
  C   C971      1.0  0.80402  0.60110  0.57508  1.0000
  C   C972      1.0  0.81305  0.62704  0.56671  1.0000
  C   C973      1.0  0.81932  0.64874  0.58104  1.0000
  C   C974      1.0  0.81726  0.64463  0.60347  1.0000
  H   H1666     1.0  0.79475  0.57688  0.60363  1.0000
  H   H1667     1.0  0.79902  0.58413  0.56416  1.0000
  H   H1668     1.0  0.82589  0.66869  0.57488  1.0000
  H   H1669     1.0  0.82252  0.66163  0.61443  1.0000
  H   H1670     1.0  0.54454  0.78915  0.58907  1.0000
  H   H1671     1.0  0.53058  0.75259  0.56083  1.0000
  H   H1672     1.0  0.96693  0.55826  0.72457  1.0000
  C   C975      1.0  0.60610  0.59958  0.73112  1.0000
  C   C976      1.0  0.95034  0.73867  0.50114  1.0000
  C   C977      1.0  0.59067  0.69338  0.71879  1.0000
  H   H1673     1.0  0.65057  0.59977  0.73225  1.0000
  H   H1674     1.0  0.93289  0.71876  0.49926  1.0000
  H   H1675     1.0  0.57528  0.60411  0.71565  1.0000
  H   H1676     1.0  0.57177  0.91610  0.71418  1.0000
  C   C978      1.0  0.61608  0.79289  0.59803  1.0000
  C   C979      1.0  0.61739  0.80089  0.57654  1.0000
  C   C980      1.0  0.63871  0.80644  0.56379  1.0000
  C   C981      1.0  0.65904  0.80405  0.57241  1.0000
  C   C982      1.0  0.65765  0.79591  0.59388  1.0000
  C   C983      1.0  0.63633  0.79034  0.60661  1.0000
  H   H1677     1.0  0.60190  0.80299  0.56971  1.0000
  H   H1678     1.0  0.63948  0.81268  0.54734  1.0000
  H   H1679     1.0  0.67323  0.79404  0.60076  1.0000
  H   H1680     1.0  0.63563  0.78423  0.62309  1.0000
  S   S290      1.0  0.75459  0.53053  0.71016  1.0000
  N   N69       1.0  0.62685  0.93819  0.72090  1.0000
  H   H1681     1.0  0.67740  0.97143  0.70227  1.0000
  C   C984      1.0  0.65162  0.61679  0.72324  1.0000
  C   C985      1.0  0.57763  0.58839  0.72366  1.0000
  H   H1682     1.0  0.95183  0.57697  0.73004  1.0000
  C   C986      1.0  0.93097  0.70373  0.57489  1.0000
  H   H1683     1.0  0.92094  0.50775  0.70439  1.0000
  H   H1684     1.0  0.60316  0.76446  0.72669  1.0000
  H   H1685     1.0  0.54325  0.82088  0.72380  1.0000
  C   C987      1.0  0.94862  0.76065  0.50878  1.0000
  H   H1686     1.0  0.95709  0.74208  0.55859  1.0000
  H   H1687     1.0  0.66246  0.93749  0.72517  1.0000
  H   H1688     1.0  0.83659  0.60896  0.73903  1.0000
  H   H1689     1.0  0.87920  0.51414  0.74617  1.0000
  H   H1690     1.0  0.58697  0.95291  0.71460  1.0000
  H   H1691     1.0  0.49989  0.72294  0.62222  1.0000
  C   C988      1.0  0.61283  0.91230  0.70702  1.0000
  C   C989      1.0  0.71206  0.58160  0.73853  1.0000
  H   H1692     1.0  0.63749  0.81438  0.72554  1.0000
  C   C990      1.0  0.89754  0.60026  0.73565  1.0000
  N   N70       1.0  0.62536  0.60835  0.71338  1.0000
  C   C991      1.0  0.61780  0.58534  0.69724  1.0000
  C   C992      1.0  0.62581  0.63144  0.70176  1.0000
  N   N71       1.0  0.91080  0.50834  0.73787  1.0000
  C   C993      1.0  0.61289  0.55836  0.70651  1.0000
  C   C994      1.0  0.64892  0.64761  0.68692  1.0000
  H   H1693     1.0  0.53188  0.70149  0.57294  1.0000
  C   C995      1.0  0.53279  0.71685  0.56197  1.0000
  H   H1694     1.0  0.63320  0.59136  0.68521  1.0000
  H   H1695     1.0  0.89868  0.54661  0.71753  1.0000
  C   C996      1.0  0.97171  0.78618  0.51181  1.0000
  H   H1696     1.0  0.93968  0.71276  0.54052  1.0000
  H   H1697     1.0  0.90403  0.66920  0.53046  1.0000
  C   C997      1.0  0.51321  0.72307  0.61001  1.0000
  H   H1698     1.0  0.65043  0.63431  0.67469  1.0000
  H   H1699     1.0  0.64602  0.66255  0.67811  1.0000
  H   H1700     1.0  0.66757  0.65947  0.69627  1.0000
  H   H1701     1.0  0.53435  0.77883  0.61632  1.0000
  H   H1702     1.0  0.81614  0.98342  0.52594  1.0000
  H   H1703     1.0  0.79347  0.60228  0.74218  1.0000
  N   N72       1.0  0.74814  0.78668  0.55991  1.0000
  C   C998      1.0  0.77548  0.80672  0.55302  1.0000
  C   C999      1.0  0.74759  0.76100  0.56566  1.0000
  C   C1000     1.0  0.74312  0.79878  0.57962  1.0000
  C   C1001     1.0  0.72938  0.78252  0.54167  1.0000
  C   C1002     1.0  0.78189  0.83594  0.54908  1.0000
  C   C1003     1.0  0.75263  0.74648  0.54697  1.0000
  C   C1004     1.0  0.71751  0.78059  0.59116  1.0000
  C   C1005     1.0  0.70190  0.75648  0.54161  1.0000
  H   H1704     1.0  0.79017  0.80838  0.56513  1.0000
  H   H1705     1.0  0.77974  0.79972  0.53770  1.0000
  H   H1706     1.0  0.72895  0.74561  0.57249  1.0000
  H   H1707     1.0  0.76230  0.76544  0.57876  1.0000
  H   H1708     1.0  0.75925  0.80551  0.59186  1.0000
  H   H1709     1.0  0.74266  0.81729  0.57545  1.0000
  H   H1710     1.0  0.72670  0.80023  0.54092  1.0000
  H   H1711     1.0  0.73778  0.78233  0.52593  1.0000
  H   H1712     1.0  0.78318  0.84698  0.56430  1.0000
  H   H1713     1.0  0.80119  0.84755  0.54159  1.0000
  H   H1714     1.0  0.76771  0.83618  0.53769  1.0000
  H   H1715     1.0  0.77296  0.75837  0.54156  1.0000
  H   H1716     1.0  0.74959  0.72681  0.55255  1.0000
  H   H1717     1.0  0.73902  0.74173  0.53307  1.0000
  H   H1718     1.0  0.71667  0.79235  0.60517  1.0000
  H   H1719     1.0  0.71608  0.76211  0.59773  1.0000
  H   H1720     1.0  0.70028  0.77530  0.58077  1.0000
  H   H1721     1.0  0.68695  0.76222  0.54004  1.0000
  H   H1722     1.0  0.69714  0.74406  0.55604  1.0000
  H   H1723     1.0  0.69897  0.74331  0.52725  1.0000
  C   C1006     1.0  0.66032  0.96871  0.69291  1.0000
  C   C1007     1.0  0.51283  0.69614  0.61166  1.0000
  H   H1724     1.0  0.54932  0.75213  0.58297  1.0000
  S   S291      1.0  0.74316  0.59126  0.72832  1.0000
  H   H1725     1.0  0.64952  0.79333  0.73372  1.0000
  H   H1726     1.0  0.89671  0.65262  0.55611  1.0000
  C   C1008     1.0  0.66557  0.54965  0.74195  1.0000
  H   H1727     1.0  0.56980  0.56996  0.71306  1.0000
  H   H1728     1.0  0.69089  0.54233  0.72236  1.0000
  H   H1729     1.0  0.56523  0.58234  0.73797  1.0000
  H   H1730     1.0  0.87242  0.64928  0.61126  1.0000
  H   H1731     1.0  0.64678  0.91398  0.69152  1.0000
  H   H1732     1.0  0.66604  0.62071  0.71066  1.0000
  H   H1733     1.0  0.61599  0.95797  0.74506  1.0000
  H   H1734     1.0  0.53268  0.69969  0.60989  1.0000
  C   C1009     1.0  0.80147  0.98061  0.51412  1.0000
  H   H1735     1.0  0.60375  0.91525  0.69236  1.0000
  C   C1010     1.0  0.53065  0.73937  0.57373  1.0000
  H   H1736     1.0  0.52265  0.79683  0.60166  1.0000
  C   C1011     1.0  0.62865  0.89958  0.69954  1.0000
  H   H1737     1.0  0.49919  0.67979  0.60026  1.0000
  H   H1738     1.0  0.89201  0.51939  0.69813  1.0000
  H   H1739     1.0  0.60671  0.58409  0.74119  1.0000
  H   H1740     1.0  0.84013  0.64160  0.74111  1.0000
  C   C1012     1.0  0.93217  0.53694  0.74424  1.0000
  C   C1013     1.0  0.74161  0.98133  0.53718  1.0000
  H   H1741     1.0  0.60007  0.58058  0.68761  1.0000
  H   H1742     1.0  0.78052  0.93653  0.51511  1.0000
  H   H1743     1.0  0.95884  0.51324  0.73055  1.0000
  H   H1744     1.0  0.86787  0.64352  0.58298  1.0000
  N   N73       1.0  0.90471  0.70114  0.57394  1.0000
  C   C1014     1.0  0.90961  0.72972  0.57506  1.0000
  C   C1015     1.0  0.94931  0.71992  0.55662  1.0000
  C   C1016     1.0  0.88985  0.68666  0.59358  1.0000
  C   C1017     1.0  0.88919  0.68709  0.55344  1.0000
  C   C1018     1.0  0.88543  0.73215  0.57758  1.0000
  C   C1019     1.0  0.55757  0.65688  0.73981  1.0000
  C   C1020     1.0  0.88230  0.65682  0.59574  1.0000
  C   C1021     1.0  0.89098  0.66288  0.54437  1.0000
  H   H1745     1.0  0.92343  0.74181  0.58867  1.0000
  H   H1746     1.0  0.91907  0.74085  0.56024  1.0000
  C   C1022     1.0  0.94760  0.55617  0.72583  1.0000
  C   C1023     1.0  0.52795  0.78108  0.60006  1.0000
  H   H1747     1.0  0.90098  0.69800  0.60856  1.0000
  H   H1748     1.0  0.87111  0.68597  0.59407  1.0000
  H   H1749     1.0  0.86823  0.67965  0.55551  1.0000
  H   H1750     1.0  0.89547  0.70195  0.54025  1.0000
  H   H1751     1.0  0.89047  0.75305  0.57349  1.0000
  H   H1752     1.0  0.86903  0.71779  0.56671  1.0000
  H   H1753     1.0  0.87897  0.72896  0.59448  1.0000
  H   H1754     1.0  0.51774  0.70677  0.54886  1.0000
  Fe  Fe141     1.0  0.87702  0.72335  0.50407  1.0000
  H   H1755     1.0  0.63891  0.91968  0.74470  1.0000
  H   H1756     1.0  0.50600  0.68772  0.62785  1.0000
  H   H1757     1.0  0.89931  0.65430  0.59610  1.0000
  H   H1758     1.0  0.86628  0.52065  0.71062  1.0000
  H   H1759     1.0  0.87156  0.64700  0.53767  1.0000
  N   N74       1.0  0.50778  0.73047  0.58815  1.0000
  H   H1760     1.0  0.53271  0.73922  0.61643  1.0000
  C   C1024     1.0  0.63770  0.96312  0.70736  1.0000
  Fe  Fe142     1.0  0.74535  0.52123  0.67461  1.0000
  H   H1761     1.0  0.96634  0.71731  0.55704  1.0000
  C   C1025     1.0  0.85337  0.56087  0.73467  1.0000
  C   C1026     1.0  0.68967  0.55650  0.73321  1.0000
  H   H1762     1.0  0.62543  0.64627  0.71319  1.0000
  H   H1763     1.0  0.57157  0.72590  0.74528  1.0000
  H   H1764     1.0  0.94145  0.71383  0.59042  1.0000
  H   H1765     1.0  0.59639  0.89564  0.71581  1.0000
  H   H1766     1.0  0.55051  0.68194  0.71850  1.0000
  H   H1767     1.0  0.91179  0.61965  0.72922  1.0000
  H   H1768     1.0  0.61652  0.88248  0.68788  1.0000
  C   C1027     1.0  0.78127  0.95396  0.50802  1.0000
  H   H1769     1.0  0.49768  0.75901  0.57583  1.0000
  H   H1770     1.0  0.62910  0.69971  0.72284  1.0000
  C   C1028     1.0  0.58295  0.84245  0.73578  1.0000
  H   H1771     1.0  0.61899  0.73968  0.74451  1.0000
  H   H1772     1.0  0.63342  0.89059  0.71323  1.0000
  S   S292      1.0  0.91824  0.75718  0.51494  1.0000
  H   H1773     1.0  0.74217  0.98944  0.57101  1.0000
  C   C1029     1.0  0.60905  0.68768  0.72749  1.0000
  H   H1774     1.0  0.64841  0.53018  0.73763  1.0000
  C   C1030     1.0  0.66349  0.64136  0.73938  1.0000
  H   H1775     1.0  0.59628  0.78667  0.74022  1.0000
  C   C1031     1.0  0.60725  0.93857  0.73552  1.0000
  H   H1776     1.0  0.65444  0.65382  0.73850  1.0000
  C   C1032     1.0  0.64763  0.93830  0.73494  1.0000
  C   C1033     1.0  0.88576  0.50717  0.73226  1.0000
  H   H1777     1.0  0.73917  0.98842  0.52130  1.0000
  H   H1778     1.0  0.67252  0.98251  0.74250  1.0000
  C   C1034     1.0  0.60178  0.66683  0.74241  1.0000
  H   H1779     1.0  0.61136  0.61687  0.74259  1.0000
  H   H1780     1.0  0.53750  0.64487  0.74444  1.0000
  H   H1781     1.0  0.68449  0.65510  0.73630  1.0000
  C   C1035     1.0  0.63703  0.80127  0.73870  1.0000
  C   C1036     1.0  0.60871  0.77788  0.74139  1.0000
  H   H1782     1.0  0.60082  0.92251  0.74762  1.0000
  H   H1783     1.0  0.52969  0.84564  0.74828  1.0000
  Fe  Fe143     1.0  0.96362  0.59988  0.78528  1.0000
  S   S293      1.0  0.95145  0.57095  0.81276  1.0000
  C   C1037     1.0  0.49573  0.89040  0.83026  1.0000
  H   H1784     1.0  0.74663  0.61449  0.89585  1.0000
  C   C1038     1.0  0.99123  0.63837  0.90794  1.0000
  H   H1785     1.0  0.57654  0.60740  0.91417  1.0000
  C   C1039     1.0  0.96333  0.64114  0.88105  1.0000
  H   H1786     1.0  0.66137  0.97683  0.94223  1.0000
  C   C1040     1.0  0.98090  0.63305  0.88662  1.0000
  C   C1041     1.0  0.96790  0.50924  0.88881  1.0000
  Fe  Fe144     1.0  0.56490  0.55516  0.81465  1.0000
  S   S294      1.0  0.57289  0.56211  0.77949  1.0000
  C   C1042     1.0  0.52519  0.53243  0.89333  1.0000
  Fe  Fe145     1.0  0.61580  0.60975  0.82783  1.0000
  S   S295      1.0  0.62692  0.62033  0.79302  1.0000
  S   S296      1.0  0.63752  0.64181  0.85544  1.0000
  Fe  Fe146     1.0  0.58475  0.60575  0.78612  1.0000
  H   H1787     1.0  0.71942  0.83616  0.92858  1.0000
  Fe  Fe147     1.0  0.61474  0.57617  0.78846  1.0000
  S   S297      1.0  0.63214  0.55810  0.76586  1.0000
  S   S298      1.0  0.57432  0.59809  0.82087  1.0000
  S   S299      1.0  0.60605  0.56630  0.82368  1.0000
  Fe  Fe148     1.0  0.56797  0.97573  0.80839  1.0000
  S   S300      1.0  0.57940  0.96383  0.77775  1.0000
  Fe  Fe149     1.0  0.97952  0.55953  0.79961  1.0000
  Fe  Fe150     1.0  0.61000  0.97096  0.83448  1.0000
  S   S301      1.0  0.62343  0.95838  0.80507  1.0000
  H   H1788     1.0  0.66015  0.95525  0.86419  1.0000
  Fe  Fe151     1.0  0.58087  0.93143  0.79601  1.0000
  S   S302      1.0  0.55723  0.88881  0.78005  1.0000
  S   S303      1.0  0.56710  0.94157  0.82635  1.0000
  Fe  Fe152     1.0  0.96868  0.70017  0.96953  1.0000
  S   S304      1.0  0.97620  0.74278  0.96694  1.0000
  C   C1043     1.0  0.60079  0.86248  0.75068  1.0000
  H   H1789     1.0  0.63401  0.98422  0.91608  1.0000
  C   C1044     1.0  0.74918  0.64682  0.95912  1.0000
  H   H1790     1.0  0.76175  0.66118  0.97229  1.0000
  Fe  Fe153     1.0  0.71144  0.69596  0.97645  1.0000
  S   S305      1.0  0.75100  0.73249  0.97018  1.0000
  S   S306      1.0  0.68597  0.66096  0.95172  1.0000
  N   N75       1.0  0.57324  0.57327  0.89573  1.0000
  C   C1045     1.0  0.80696  0.69390  0.94064  1.0000
  H   H1791     1.0  0.60713  0.89199  0.77586  1.0000
  H   H1792     1.0  0.97653  0.51875  0.90492  1.0000
  H   H1793     1.0  0.81549  0.68788  0.92759  1.0000
  C   C1046     1.0  0.96383  0.51948  0.85027  1.0000
  Fe  Fe154     1.0  0.71298  0.96396  0.97180  1.0000
  S   S307      1.0  0.74719  0.95811  0.97419  1.0000
  S   S308      1.0  0.69743  0.95675  0.93627  1.0000
  H   H1794     1.0  0.61553  0.73552  0.79414  1.0000
  C   C1047     1.0  0.81205  0.59754  0.79444  1.0000
  H   H1795     1.0  0.72701  0.61672  0.91599  1.0000
  H   H1796     1.0  0.95177  0.56739  0.90397  1.0000
  C   C1048     1.0  0.57891  0.53592  0.87731  1.0000
  H   H1797     1.0  0.64182  0.76587  0.76228  1.0000
  C   C1049     1.0  0.61008  0.77836  0.78197  1.0000
  H   H1798     1.0  0.61615  0.66298  0.74925  1.0000
  H   H1799     1.0  0.52332  0.90257  0.75310  1.0000
  H   H1800     1.0  0.60719  0.61433  0.94145  1.0000
  H   H1801     1.0  0.51287  0.89160  0.78951  1.0000
  H   H1802     1.0  0.77605  0.64766  0.92201  1.0000
  S   S309      1.0  0.53466  0.98384  0.80138  1.0000
  H   H1803     1.0  0.55635  0.76035  0.75036  1.0000
  C   C1050     1.0  0.76517  0.65437  0.91191  1.0000
  H   H1804     1.0  0.59866  0.70846  0.77371  1.0000
  C   C1051     1.0  0.64501  0.97027  0.88813  1.0000
  C   C1052     1.0  0.66344  0.56768  0.75615  1.0000
  C   C1053     1.0  0.55480  0.74572  0.76246  1.0000
  C   C1054     1.0  0.67688  0.96218  0.91827  1.0000
  C   C1055     1.0  0.67615  0.95609  0.89606  1.0000
  C   C1056     1.0  0.66037  0.96004  0.88114  1.0000
  C   C1057     1.0  0.54927  0.55291  0.90738  1.0000
  H   H1805     1.0  0.76465  0.61158  0.77452  1.0000
  H   H1806     1.0  0.80115  0.58289  0.80726  1.0000
  H   H1807     1.0  0.62120  0.82131  0.78002  1.0000
  C   C1058     1.0  0.65326  0.64763  0.88142  1.0000
  C   C1059     1.0  0.65734  0.62838  0.89128  1.0000
  C   C1060     1.0  0.66776  0.63306  0.91260  1.0000
  C   C1061     1.0  0.67497  0.65735  0.92423  1.0000
  C   C1062     1.0  0.67205  0.67714  0.91402  1.0000
  C   C1063     1.0  0.66111  0.67220  0.89286  1.0000
  H   H1808     1.0  0.65233  0.60983  0.88254  1.0000
  H   H1809     1.0  0.67007  0.61764  0.92021  1.0000
  H   H1810     1.0  0.67742  0.69590  0.92266  1.0000
  H   H1811     1.0  0.65827  0.68739  0.88544  1.0000
  H   H1812     1.0  0.94685  0.53615  0.75488  1.0000
  S   S310      1.0  0.96417  0.51382  0.79317  1.0000
  C   C1064     1.0  0.80092  0.56616  0.76337  1.0000
  C   C1065     1.0  0.96660  0.65963  0.91785  1.0000
  H   H1813     1.0  0.79742  0.52717  0.76854  1.0000
  H   H1814     1.0  0.96679  0.53594  0.83931  1.0000
  H   H1815     1.0  0.84651  0.53070  0.75803  1.0000
  H   H1816     1.0  0.96134  0.54541  0.91514  1.0000
  S   S311      1.0  0.56525  0.62433  0.76693  1.0000
  C   C1066     1.0  0.57590  0.65118  0.74854  1.0000
  H   H1817     1.0  0.95509  0.63720  0.86483  1.0000
  H   H1818     1.0  0.55477  0.56393  0.86371  1.0000
  H   H1819     1.0  0.68457  0.60697  0.77229  1.0000
  H   H1820     1.0  0.59460  0.53196  0.87339  1.0000
  H   H1821     1.0  0.55394  0.54081  0.91836  1.0000
  C   C1067     1.0  0.50585  0.90450  0.78283  1.0000
  S   S312      1.0  0.95718  0.67689  0.93650  1.0000
  C   C1068     1.0  0.86072  0.55018  0.75174  1.0000
  H   H1822     1.0  0.54354  0.59696  0.86093  1.0000
  H   H1823     1.0  0.60849  0.57779  0.88330  1.0000
  C   C1069     1.0  0.66143  0.97227  0.92528  1.0000
  H   H1824     1.0  0.89169  0.55584  0.77372  1.0000
  H   H1825     1.0  0.67844  0.96120  0.75912  1.0000
  H   H1826     1.0  0.77800  0.66443  0.89809  1.0000
  H   H1827     1.0  0.92437  0.54728  0.75410  1.0000
  C   C1070     1.0  0.74068  0.62814  0.90307  1.0000
  C   C1071     1.0  0.79003  0.53955  0.77580  1.0000
  C   C1072     1.0  0.71221  0.84562  0.94001  1.0000
  H   H1828     1.0  0.73044  0.63230  0.89009  1.0000
  S   S313      1.0  0.93809  0.60763  0.76210  1.0000
  N   N76       1.0  0.68425  0.86767  0.94047  1.0000
  C   C1073     1.0  0.67107  0.85208  0.96035  1.0000
  C   C1074     1.0  0.69239  0.85066  0.92810  1.0000
  C   C1075     1.0  0.66437  0.87031  0.92734  1.0000
  C   C1076     1.0  0.70690  0.89532  0.94740  1.0000
  C   C1077     1.0  0.65803  0.86369  0.97440  1.0000
  S   S314      1.0  0.94115  0.68997  0.99735  1.0000
  C   C1078     1.0  0.67309  0.88468  0.90572  1.0000
  H   H1829     1.0  0.59727  0.55742  0.90649  1.0000
  H   H1830     1.0  0.65584  0.83060  0.95601  1.0000
  H   H1831     1.0  0.68521  0.85084  0.97128  1.0000
  H   H1832     1.0  0.70079  0.85936  0.91246  1.0000
  H   H1833     1.0  0.67505  0.83035  0.92362  1.0000
  H   H1834     1.0  0.64672  0.84985  0.92393  1.0000
  H   H1835     1.0  0.65777  0.88232  0.93649  1.0000
  H   H1836     1.0  0.69982  0.90888  0.95265  1.0000
  H   H1837     1.0  0.71701  0.89365  0.96193  1.0000
  S   S315      1.0  0.62466  0.97601  0.87014  1.0000
  C   C1079     1.0  0.50561  0.98058  0.81191  1.0000
  H   H1838     1.0  0.52934  0.52111  0.88114  1.0000
  H   H1839     1.0  0.53778  0.58952  0.88894  1.0000
  H   H1840     1.0  0.72939  0.86467  0.94656  1.0000
  H   H1841     1.0  0.65034  0.96301  0.76352  1.0000
  H   H1842     1.0  0.56728  0.61957  0.88069  1.0000
  Fe  Fe155     1.0  0.62119  0.99180  0.78812  1.0000
  H   H1843     1.0  0.65614  0.88399  0.89760  1.0000
  H   H1844     1.0  0.76592  0.89252  0.99072  1.0000
  H   H1845     1.0  0.72386  0.90237  0.91421  1.0000
  C   C1080     1.0  0.72830  0.91098  0.93079  1.0000
  C   C1081     1.0  0.60347  0.80107  0.78234  1.0000
  H   H1846     1.0  0.76093  0.55843  0.78795  1.0000
  H   H1847     1.0  0.63288  0.72490  0.77758  1.0000
  H   H1848     1.0  0.56426  0.51805  0.88615  1.0000
  H   H1849     1.0  0.87339  0.69542  0.98880  1.0000
  H   H1850     1.0  0.92146  0.50296  0.84983  1.0000
  H   H1851     1.0  0.82312  0.71324  0.94803  1.0000
  C   C1082     1.0  0.59064  0.56220  0.89130  1.0000
  H   H1852     1.0  0.93572  0.52712  0.88056  1.0000
  N   N77       1.0  0.76032  0.67428  0.92384  1.0000
  C   C1083     1.0  0.74755  0.68368  0.90786  1.0000
  C   C1084     1.0  0.78577  0.69892  0.93175  1.0000
  C   C1085     1.0  0.74217  0.66148  0.94220  1.0000
  C   C1086     1.0  0.74423  0.70729  0.91557  1.0000
  H   H1853     1.0  0.75871  0.69029  0.89277  1.0000
  H   H1854     1.0  0.72763  0.66678  0.90299  1.0000
  H   H1855     1.0  0.79514  0.71350  0.91852  1.0000
  H   H1856     1.0  0.78242  0.71038  0.94464  1.0000
  H   H1857     1.0  0.74053  0.67716  0.95150  1.0000
  H   H1858     1.0  0.72187  0.64703  0.93626  1.0000
  H   H1859     1.0  0.73131  0.70158  0.92944  1.0000
  H   H1860     1.0  0.76305  0.72619  0.91962  1.0000
  H   H1861     1.0  0.73468  0.71212  0.90240  1.0000
  C   C1087     1.0  0.95614  0.65412  0.89659  1.0000
  H   H1862     1.0  0.49650  0.99381  0.78253  1.0000
  H   H1863     1.0  0.74691  0.91312  0.93647  1.0000
  N   N78       1.0  0.60373  0.76148  0.76136  1.0000
  H   H1864     1.0  0.70316  0.83115  0.95326  1.0000
  H   H1865     1.0  0.67124  0.88558  0.97827  1.0000
  C   C1088     1.0  0.64579  0.97638  0.91034  1.0000
  H   H1866     1.0  0.63133  0.78888  0.78590  1.0000
  H   H1867     1.0  0.50863  0.96682  0.84322  1.0000
  C   C1089     1.0  0.68583  0.59282  0.76148  1.0000
  C   C1090     1.0  0.75932  0.85164  0.99018  1.0000
  H   H1868     1.0  0.66182  0.63425  0.75612  1.0000
  H   H1869     1.0  0.73099  0.63070  0.96633  1.0000
  H   H1870     1.0  0.68794  0.94831  0.89028  1.0000
  H   H1871     1.0  0.79990  0.67867  0.95336  1.0000
  C   C1091     1.0  0.56762  0.87096  0.76351  1.0000
  H   H1872     1.0  0.65291  0.85316  0.99001  1.0000
  H   H1873     1.0  0.94246  0.66014  0.89202  1.0000
  H   H1874     1.0  0.84022  0.64139  0.79923  1.0000
  H   H1875     1.0  0.59671  0.80235  0.79860  1.0000
  H   H1876     1.0  0.84824  0.62866  0.76410  1.0000
  H   H1877     1.0  0.83073  0.59798  0.79321  1.0000
  C   C1092     1.0  0.95666  0.54305  0.87955  1.0000
  N   N79       1.0  0.79697  0.58786  0.77320  1.0000
  H   H1878     1.0  0.57064  0.53737  0.86171  1.0000
  H   H1879     1.0  0.60030  0.76493  0.79575  1.0000
  C   C1093     1.0  0.61646  0.72851  0.77764  1.0000
  H   H1880     1.0  0.58498  0.57822  0.94058  1.0000
  S   S316      1.0  0.99018  0.61565  0.86800  1.0000
  H   H1881     1.0  0.75842  0.63608  0.95256  1.0000
  H   H1882     1.0  0.58807  0.79830  0.77078  1.0000
  C   C1094     1.0  0.88750  0.73723  0.99759  1.0000
  C   C1095     1.0  0.62094  0.74957  0.76052  1.0000
  Fe  Fe156     1.0  0.98594  0.60549  0.83137  1.0000
  H   H1883     1.0  0.80706  0.63369  0.79726  1.0000
  C   C1096     1.0  0.75899  0.59392  0.78483  1.0000
  H   H1884     1.0  0.73216  0.93202  0.92966  1.0000
  H   H1885     1.0  0.58506  0.59464  0.86589  1.0000
  H   H1886     1.0  0.79636  0.54331  0.79301  1.0000
  H   H1887     1.0  0.95751  0.55728  0.86714  1.0000
  C   C1097     1.0  0.56690  0.58166  0.87474  1.0000
  H   H1888     1.0  0.50432  0.92886  0.81795  1.0000
  C   C1098     1.0  0.57579  0.73820  0.76051  1.0000
  H   H1889     1.0  0.51362  0.89158  0.82461  1.0000
  H   H1890     1.0  0.82199  0.57388  0.76163  1.0000
  H   H1891     1.0  0.81905  0.62620  0.82080  1.0000
  H   H1892     1.0  0.52173  0.92596  0.78649  1.0000
  C   C1099     1.0  0.81970  0.62629  0.80293  1.0000
  C   C1100     1.0  0.50470  0.90032  0.75812  1.0000
  H   H1893     1.0  0.75716  0.56552  0.76084  1.0000
  C   C1101     1.0  0.90508  0.58932  0.75239  1.0000
  S   S317      1.0  0.52854  0.52084  0.83085  1.0000
  H   H1894     1.0  0.54237  0.56341  0.91814  1.0000
  H   H1895     1.0  0.76552  0.60053  0.80181  1.0000
  C   C1102     1.0  0.55300  0.59777  0.87670  1.0000
  H   H1896     1.0  0.62069  0.86723  0.75143  1.0000
  C   C1103     1.0  0.58867  0.59874  0.90979  1.0000
  H   H1897     1.0  0.55496  0.75359  0.77892  1.0000
  C   C1104     1.0  0.59984  0.59548  0.93134  1.0000
  H   H1898     1.0  0.61685  0.59326  0.92886  1.0000
  H   H1899     1.0  0.60525  0.61498  0.90087  1.0000
  H   H1900     1.0  0.76849  0.52698  0.77418  1.0000
  H   H1901     1.0  0.80372  0.62709  0.76274  1.0000
  H   H1902     1.0  0.64544  0.81432  0.75345  1.0000
  C   C1105     1.0  0.59320  0.87662  0.76449  1.0000
  H   H1903     1.0  0.57186  0.72402  0.77382  1.0000
  H   H1904     1.0  0.73736  0.58218  0.78466  1.0000
  Fe  Fe157     1.0  0.76697  0.99529  0.99655  1.0000
  H   H1905     1.0  0.68794  0.90659  0.90821  1.0000
  C   C1106     1.0  0.80599  0.61015  0.75708  1.0000
  H   H1906     1.0  0.63968  0.86013  0.96677  1.0000
  H   H1907     1.0  0.97576  0.51187  0.84342  1.0000
  H   H1908     1.0  0.53536  0.72699  0.75967  1.0000
  H   H1909     1.0  0.50297  0.91617  0.74966  1.0000
  C   C1107     1.0  0.76816  0.57513  0.77631  1.0000
  H   H1910     1.0  0.67987  0.87471  0.89448  1.0000
  N   N80       1.0  0.97255  0.53082  0.87297  1.0000
  C   C1108     1.0  0.88637  0.56431  0.76062  1.0000
  H   H1911     1.0  0.51614  0.54247  0.88494  1.0000
  C   C1109     1.0  0.96436  0.55879  0.90147  1.0000
  C   C1110     1.0  0.54960  0.85041  0.74901  1.0000
  S   S318      1.0  0.75284  0.80019  0.99017  1.0000
  C   C1111     1.0  0.98427  0.65165  0.92340  1.0000
  H   H1912     1.0  0.91095  0.51962  0.78289  1.0000
  H   H1913     1.0  0.51019  0.51709  0.90387  1.0000
  H   H1914     1.0  0.72708  0.61921  0.75690  1.0000
  C   C1112     1.0  0.66285  0.96282  0.75076  1.0000
  C   C1113     1.0  0.70994  0.59970  0.75270  1.0000
  H   H1915     1.0  0.98464  0.57640  0.90200  1.0000
  H   H1916     1.0  0.50012  0.89880  0.84708  1.0000
  S   S319      1.0  0.98992  0.58691  0.77116  1.0000
  C   C1114     1.0  0.49699  0.97129  0.83260  1.0000
  H   H1917     1.0  0.77849  0.85810  0.98445  1.0000
  C   C1115     1.0  0.84142  0.70247  0.99157  1.0000
  Fe  Fe158     1.0  0.74098  0.75515  0.99478  1.0000
  C   C1116     1.0  0.86800  0.71029  0.99228  1.0000
  C   C1117     1.0  0.75222  0.87131  0.99373  1.0000
  C   C1118     1.0  0.74211  0.82386  0.99422  1.0000
  H   H1918     1.0  0.82671  0.68155  0.98755  1.0000
  H   H1919     1.0  0.76701  0.99349  0.92266  1.0000
  S   S320      1.0  0.79958  0.71018  0.99442  1.0000
  Fe  Fe159     1.0  0.95040  0.73323  0.99555  1.0000
  H   H1920     1.0  0.99242  0.65552  0.93965  1.0000
  C   C1119     1.0  0.83368  0.72135  0.99601  1.0000
  C   C1120     1.0  0.83443  0.62290  0.75018  1.0000
  Fe  Fe160     1.0  0.76638  0.71944  0.99801  1.0000
