data_image0
_chemical_formula_structural       CS2CS2HFeH2CH3SH2C2HCHC3H2C2HC5H2C2H2C3H2CSC4SCH4C2H3CHFeSCH2C2HS2C2H6CH4NH2SHFeHCH2NH2FeHCHCH4CHNC6SCH17SCH8CHSCSHSFeSFeS2FeSHSFeSFeS2HFeH2CHCH2CHC2HC3H2Fe2HCNC8H24CHC2H3CHCH3NH7NC2H3C2HSC2H3C3H7C2H3C2HCH2CHCHCHSH5Fe2S2FeS2FeSFeS3FeS2FeS2FeSFeCS2HFeSC6H4C6H4CH3C2H2C8SCH2C5SCH3C6H4NC2H2C2H5SCH6C2HCH9SH8NH8NC8H20NC7H2NH2CHC2H3C3HSHC2H4FeCHCH3SH7CSH4CH2C2H3CHC3H4CH2CH3CH5C2HCHCSHCHNH3CH2C2H8CHCH8C2HCHCH3CHNH5C3HNHFeS2FeS2FeSFeS3FeS2FeS2FeSFeS3HC2H6C3H2C4HNC3H2C2HCHCH3C6H5C3H3CH4C4HCH2CH2CH4CH2NC8H20CH3C2HC2H5CHNH3CH2CHCH4CNH2CH2C2H9CHCH4FeS2FeS2FeCFeS3FeS2FeS2FeSFeS3FeSFeS3HCHFeSHSHCHFeSHCFeSFeHCSH2SC7H4C6H4C6H2CSC4HCH2C7H5NC8H20NC8H22SCH6FeH4CHCH3CHFeNCH4CHC2H5CH2CH2C2SCH3SC2H2CH2S2CH5CHSCHCHCH2CH2NCH5CNCH3NC3HCSH4C3FeHCH3SHFeSCHSCFeSHC2SHSFeSFeH2CHSFeSCHFeS2FeSFeSFeS3FeS2FeS2FeSFeS2C6H4CH3C6H2C7H4C2NCHC7H3CHC3H2CH5CH2SCHSNH3CH4NC7SH2CH3CH4FeCH2CH3SH5NHC4H2CHC2SFeH7SH3CHCH2FeH4C2H2CH2SC2H2C2HCHCHNC8H23SCH8FeCH6C2HC2H3CH2CH3C2H7CH2CHSFeSCFeS2FeSFeS3FeS2FeS2FeSFeS3C6H5C3H2CH8NH3CHCHC2H8CHCH3CH2CHC2H2CH2NCH2NC8H20CH3SHC2H2CH2C4HC2H3CH5C2HCH2CHCHCHNHC2H3C3H4C4H4CH4CHCHCH8CH8CHCHNHC3H4CH3CH3C2H3CHCH3C2H3CH4CHNH3C2HCH5CH2C2H3CNC2HNCHCHCH5CH3C2H3CH3CHCH3CSCSFeS2FeS2FeSFeS3FeS2FeS2FeSFeS3HCH2CSC2HCHCH2C6H6C2H3C6H4C7H5C6H7CH4CH4CH2NC8H16CFeCH5CHCH3CHC5HCHCH2FeHCNH2CH2CH2C3H2CH2NH5NCH2SCHC2H5C2H5FeCH5NC2H4CH7S2HFeCSFeS2FeCFeNS2FeSFeS2FeHFeCS3NH8C2HCH2C6HCH4C2H5CH2CH2CHCHCHCSHCH2C2HC2H7C2H2CH5C2HCSCH11CH5N2H3SCH4C3H2NCHCH3FeHS3CS2HSC2HCH3FeHCHC4HC2SHC3H3FeHC2HCSHCH8CHCFeH4CH3C2HCHC2H2CH2C2HCNH6CH6C2H3CH4CHSCH2CH2CH2
_chemical_formula_sum              "C672 S192 H1152 Fe96 N48"
_cell_length_a       43.2131
_cell_length_b       43.1117
_cell_length_c       53.2229
_cell_angle_alpha    90.0637
_cell_angle_beta     89.1364
_cell_angle_gamma    90.9549

_space_group_name_H-M_alt    "P 1"
_space_group_IT_number       1

loop_
  _space_group_symop_operation_xyz
  'x, y, z'

loop_
  _atom_site_type_symbol
  _atom_site_label
  _atom_site_symmetry_multiplicity
  _atom_site_fract_x
  _atom_site_fract_y
  _atom_site_fract_z
  _atom_site_occupancy
  C   C1        1.0  0.45366  0.17454  0.05848  1.0000
  S   S1        1.0  0.45117  0.43917  0.29949  1.0000
  S   S2        1.0  0.47791  0.47464  0.22899  1.0000
  C   C2        1.0  0.35822  0.06853  0.31152  1.0000
  S   S3        1.0  0.04843  0.05014  0.26411  1.0000
  S   S4        1.0  0.24062  0.37218  0.32937  1.0000
  H   H1        1.0  0.34452  0.47312  0.28205  1.0000
  Fe  Fe1       1.0  0.47896  0.03085  0.25486  1.0000
  H   H2        1.0  0.44164  0.21840  0.07613  1.0000
  H   H3        1.0  0.46519  0.37544  0.23361  1.0000
  C   C3        1.0  0.39200  0.02041  0.28908  1.0000
  H   H4        1.0  0.07812  0.17121  0.30598  1.0000
  H   H5        1.0  0.42842  0.15975  0.01468  1.0000
  H   H6        1.0  0.44068  0.03178  0.32868  1.0000
  S   S5        1.0  0.30356  0.43834  0.31480  1.0000
  H   H7        1.0  0.46134  0.33696  0.24519  1.0000
  H   H8        1.0  0.23084  0.07202  0.26121  1.0000
  C   C4        1.0  0.40421  0.05067  0.28820  1.0000
  C   C5        1.0  0.46922  0.12547  0.04018  1.0000
  H   H9        1.0  0.46636  0.17059  0.07618  1.0000
  C   C6        1.0  0.34582  0.03833  0.31216  1.0000
  H   H10       1.0  0.39633  0.09810  0.29917  1.0000
  C   C7        1.0  0.38716  0.07461  0.29959  1.0000
  C   C8        1.0  0.45622  0.16313  0.23650  1.0000
  C   C9        1.0  0.10048  0.13621  0.32927  1.0000
  H   H11       1.0  0.42113  0.16200  0.26636  1.0000
  H   H12       1.0  0.44472  0.11693  0.04062  1.0000
  C   C10       1.0  0.07299  0.45284  0.29203  1.0000
  C   C11       1.0  0.10131  0.46684  0.29904  1.0000
  H   H13       1.0  0.48168  0.20961  0.20631  1.0000
  C   C12       1.0  0.12146  0.41710  0.31270  1.0000
  C   C13       1.0  0.09323  0.40314  0.30553  1.0000
  C   C14       1.0  0.06926  0.42077  0.29515  1.0000
  C   C15       1.0  0.36301  0.01436  0.30092  1.0000
  C   C16       1.0  0.49269  0.16017  0.20076  1.0000
  H   H14       1.0  0.46147  0.18742  0.24241  1.0000
  H   H15       1.0  0.04770  0.40956  0.28994  1.0000
  C   C17       1.0  0.07777  0.04359  0.28673  1.0000
  C   C18       1.0  0.07325  0.02411  0.30753  1.0000
  H   H16       1.0  0.40170  0.47440  0.27553  1.0000
  H   H17       1.0  0.33056  0.37125  0.27368  1.0000
  C   C19       1.0  0.13058  0.05500  0.30113  1.0000
  C   C20       1.0  0.10662  0.05900  0.28372  1.0000
  C   C21       1.0  0.16817  0.13154  0.30802  1.0000
  H   H18       1.0  0.15269  0.06645  0.29812  1.0000
  H   H19       1.0  0.11049  0.07395  0.26763  1.0000
  C   C22       1.0  0.41017  0.44018  0.30388  1.0000
  S   S6        1.0  0.14997  0.39357  0.32708  1.0000
  C   C23       1.0  0.48068  0.11309  0.22459  1.0000
  C   C24       1.0  0.34476  0.43891  0.31157  1.0000
  C   C25       1.0  0.35886  0.45841  0.29332  1.0000
  C   C26       1.0  0.39132  0.45913  0.28952  1.0000
  S   S7        1.0  0.44068  0.05996  0.27351  1.0000
  C   C27       1.0  0.12588  0.03601  0.32220  1.0000
  H   H20       1.0  0.15073  0.12574  0.29366  1.0000
  H   H21       1.0  0.44438  0.34662  0.21580  1.0000
  H   H22       1.0  0.33617  0.35385  0.24372  1.0000
  H   H23       1.0  0.38359  0.43435  0.20292  1.0000
  C   C28       1.0  0.21981  0.04983  0.26748  1.0000
  C   C29       1.0  0.44003  0.14708  0.25918  1.0000
  H   H24       1.0  0.05129  0.01205  0.31016  1.0000
  H   H25       1.0  0.25953  0.03763  0.28932  1.0000
  H   H26       1.0  0.00942  0.44267  0.16004  1.0000
  C   C30       1.0  0.44871  0.20990  0.05721  1.0000
  H   H27       1.0  0.40477  0.00169  0.28052  1.0000
  Fe  Fe2       1.0  0.99999  0.03132  0.25326  1.0000
  S   S8        1.0  0.04259  0.47669  0.28091  1.0000
  C   C31       1.0  0.12547  0.44912  0.30911  1.0000
  H   H28       1.0  0.43445  0.11831  0.20681  1.0000
  H   H29       1.0  0.08920  0.13734  0.28946  1.0000
  C   C32       1.0  0.45351  0.10169  0.20816  1.0000
  C   C33       1.0  0.45290  0.16819  0.01300  1.0000
  H   H30       1.0  0.42909  0.12462  0.25378  1.0000
  S   S9        1.0  0.48659  0.02288  0.21322  1.0000
  S   S10       1.0  0.48995  0.40147  0.18594  1.0000
  C   C34       1.0  0.09685  0.15397  0.30422  1.0000
  C   C35       1.0  0.34865  0.36304  0.26024  1.0000
  H   H31       1.0  0.09871  0.11095  0.32484  1.0000
  H   H32       1.0  0.37701  0.32465  0.22767  1.0000
  H   H33       1.0  0.47684  0.34747  0.15588  1.0000
  H   H34       1.0  0.20503  0.05551  0.28397  1.0000
  H   H35       1.0  0.37853  0.45120  0.23405  1.0000
  H   H36       1.0  0.08978  0.37843  0.30812  1.0000
  C   C36       1.0  0.48448  0.11375  0.06439  1.0000
  H   H37       1.0  0.17697  0.15569  0.30595  1.0000
  H   H38       1.0  0.20531  0.04126  0.25185  1.0000
  H   H39       1.0  0.43041  0.16339  0.06139  1.0000
  H   H40       1.0  0.11790  0.16573  0.29677  1.0000
  N   N1        1.0  0.47046  0.16015  0.03634  1.0000
  H   H41       1.0  0.36098  0.34441  0.27005  1.0000
  H   H42       1.0  0.39790  0.32484  0.19815  1.0000
  S   S11       1.0  0.00274  0.46531  0.21706  1.0000
  H   H43       1.0  0.43869  0.16563  0.22157  1.0000
  Fe  Fe3       1.0  0.99858  0.46323  0.25915  1.0000
  H   H44       1.0  0.35786  0.33314  0.19928  1.0000
  C   C37       1.0  0.99926  0.00406  0.11543  1.0000
  H   H45       1.0  0.45598  0.14317  0.27492  1.0000
  H   H46       1.0  0.14518  0.18578  0.32581  1.0000
  N   N2        1.0  0.48508  0.14773  0.22660  1.0000
  H   H47       1.0  0.42978  0.21570  0.04425  1.0000
  H   H48       1.0  0.40568  0.37678  0.19656  1.0000
  Fe  Fe4       1.0  0.48457  0.45523  0.26783  1.0000
  H   H49       1.0  0.48353  0.25394  0.01175  1.0000
  C   C38       1.0  0.24543  0.02686  0.27414  1.0000
  H   H50       1.0  0.10460  0.49158  0.29668  1.0000
  C   C39       1.0  0.09714  0.02042  0.32512  1.0000
  H   H51       1.0  0.46171  0.09637  0.18880  1.0000
  H   H52       1.0  0.18823  0.11656  0.30389  1.0000
  H   H53       1.0  0.24169  0.99648  0.22970  1.0000
  H   H54       1.0  0.41143  0.46101  0.21518  1.0000
  C   C40       1.0  0.39613  0.42094  0.32232  1.0000
  H   H55       1.0  0.14710  0.46025  0.31417  1.0000
  N   N3        1.0  0.39732  0.38461  0.23622  1.0000
  C   C41       1.0  0.41433  0.41515  0.23189  1.0000
  C   C42       1.0  0.41930  0.36375  0.24973  1.0000
  C   C43       1.0  0.36980  0.39085  0.25316  1.0000
  C   C44       1.0  0.38732  0.37198  0.21110  1.0000
  C   C45       1.0  0.39542  0.44155  0.22035  1.0000
  C   C46       1.0  0.44900  0.35536  0.23496  1.0000
  S   S12       1.0  0.30879  0.02918  0.32597  1.0000
  C   C47       1.0  0.37987  0.33675  0.20951  1.0000
  H   H56       1.0  0.42415  0.42419  0.24975  1.0000
  H   H57       1.0  0.43455  0.41209  0.21899  1.0000
  H   H58       1.0  0.40820  0.34162  0.25565  1.0000
  H   H59       1.0  0.42669  0.37476  0.26773  1.0000
  H   H60       1.0  0.37771  0.40121  0.27109  1.0000
  H   H61       1.0  0.35412  0.40793  0.24463  1.0000
  H   H62       1.0  0.36655  0.38443  0.20455  1.0000
  H   H63       1.0  0.47006  0.22284  0.05169  1.0000
  H   H64       1.0  0.44304  0.08030  0.21655  1.0000
  H   H65       1.0  0.46986  0.08006  0.32702  1.0000
  H   H66       1.0  0.00859  0.46313  0.13105  1.0000
  H   H67       1.0  0.48649  0.08812  0.06348  1.0000
  H   H68       1.0  0.48892  0.03411  0.30636  1.0000
  H   H69       1.0  0.26134  0.02638  0.25765  1.0000
  H   H70       1.0  0.34539  0.08725  0.32004  1.0000
  H   H71       1.0  0.02249  0.00920  0.12310  1.0000
  H   H72       1.0  0.30270  0.00048  0.27301  1.0000
  S   S13       1.0  0.99725  0.00672  0.21603  1.0000
  C   C48       1.0  0.36368  0.42020  0.32610  1.0000
  H   H73       1.0  0.47302  0.15600  0.18783  1.0000
  H   H74       1.0  0.47842  0.10210  0.24344  1.0000
  H   H75       1.0  0.45176  0.19369  0.01057  1.0000
  H   H76       1.0  0.22895  0.01250  0.31977  1.0000
  H   H77       1.0  0.48883  0.11595  0.13237  1.0000
  H   H78       1.0  0.47020  0.11897  0.08133  1.0000
  H   H79       1.0  0.47994  0.11277  0.02432  1.0000
  H   H80       1.0  0.99974  0.01205  0.09559  1.0000
  C   C49       1.0  0.21579  0.99834  0.30594  1.0000
  H   H81       1.0  0.19404  0.01102  0.30257  1.0000
  S   S14       1.0  0.23394  0.08212  0.33183  1.0000
  C   C50       1.0  0.10153  0.42894  0.38321  1.0000
  S   S15       1.0  0.27657  0.39578  0.38083  1.0000
  H   H82       1.0  0.10514  0.00206  0.53194  1.0000
  S   S16       1.0  0.20305  0.37832  0.38260  1.0000
  Fe  Fe5       1.0  0.23254  0.42019  0.39204  1.0000
  S   S17       1.0  0.21596  0.44151  0.42972  1.0000
  Fe  Fe6       1.0  0.24619  0.35500  0.36904  1.0000
  S   S18       1.0  0.25925  0.30692  0.38433  1.0000
  S   S19       1.0  0.22611  0.44133  0.35370  1.0000
  Fe  Fe7       1.0  0.20119  0.05407  0.35614  1.0000
  S   S20       1.0  0.20293  0.08788  0.38840  1.0000
  H   H83       1.0  0.13971  0.00605  0.49226  1.0000
  S   S21       1.0  0.27872  0.09046  0.38112  1.0000
  Fe  Fe8       1.0  0.24334  0.06046  0.40254  1.0000
  S   S22       1.0  0.24806  0.04914  0.44479  1.0000
  Fe  Fe9       1.0  0.23765  0.11524  0.36482  1.0000
  S   S23       1.0  0.22725  0.16571  0.35332  1.0000
  S   S24       1.0  0.23946  0.02507  0.37181  1.0000
  H   H84       1.0  0.11195  0.19749  0.37599  1.0000
  Fe  Fe10      1.0  0.19882  0.39829  0.34376  1.0000
  H   H85       1.0  0.10283  0.14622  0.37929  1.0000
  H   H86       1.0  0.09091  0.19527  0.34678  1.0000
  C   C51       1.0  0.15065  0.45820  0.38081  1.0000
  H   H87       1.0  0.25965  0.03709  0.49702  1.0000
  C   C52       1.0  0.23118  0.46753  0.45292  1.0000
  H   H88       1.0  0.16100  0.48332  0.43149  1.0000
  H   H89       1.0  0.07676  0.48186  0.39841  1.0000
  C   C53       1.0  0.24637  0.01395  0.46282  1.0000
  H   H90       1.0  0.32275  0.49436  0.55875  1.0000
  C   C54       1.0  0.24979  0.26785  0.37539  1.0000
  C   C55       1.0  0.23044  0.26073  0.35524  1.0000
  H   H91       1.0  0.07935  0.14122  0.34075  1.0000
  C   C56       1.0  0.23647  0.20473  0.36253  1.0000
  C   C57       1.0  0.25565  0.21185  0.38278  1.0000
  C   C58       1.0  0.26222  0.24315  0.38912  1.0000
  H   H92       1.0  0.10748  0.09567  0.39567  1.0000
  H   H93       1.0  0.09713  0.08957  0.36365  1.0000
  Fe  Fe11      1.0  0.27273  0.05592  0.34950  1.0000
  Fe  Fe12      1.0  0.26860  0.41422  0.34179  1.0000
  H   H94       1.0  0.27722  0.24823  0.40473  1.0000
  C   C59       1.0  0.19714  0.01376  0.55098  1.0000
  N   N4        1.0  0.26533  0.36060  0.46384  1.0000
  C   C60       1.0  0.24731  0.38029  0.48218  1.0000
  C   C61       1.0  0.24635  0.35698  0.44040  1.0000
  C   C62       1.0  0.29606  0.37559  0.45693  1.0000
  C   C63       1.0  0.27144  0.32965  0.47572  1.0000
  C   C64       1.0  0.26363  0.38841  0.50698  1.0000
  C   C65       1.0  0.21878  0.33381  0.44218  1.0000
  C   C66       1.0  0.29483  0.40975  0.44861  1.0000
  C   C67       1.0  0.28880  0.30611  0.45889  1.0000
  H   H95       1.0  0.24050  0.40254  0.47334  1.0000
  H   H96       1.0  0.22502  0.36865  0.48751  1.0000
  H   H97       1.0  0.26088  0.35010  0.42400  1.0000
  H   H98       1.0  0.23670  0.37957  0.43466  1.0000
  H   H99       1.0  0.31255  0.37433  0.47276  1.0000
  H   H100      1.0  0.30745  0.36265  0.44127  1.0000
  H   H101      1.0  0.28591  0.33266  0.49269  1.0000
  H   H102      1.0  0.24977  0.31852  0.48323  1.0000
  H   H103      1.0  0.28657  0.39974  0.50396  1.0000
  H   H104      1.0  0.24920  0.40519  0.51762  1.0000
  H   H105      1.0  0.26593  0.36773  0.51915  1.0000
  H   H106      1.0  0.20525  0.33500  0.42466  1.0000
  H   H107      1.0  0.22667  0.30951  0.44353  1.0000
  H   H108      1.0  0.20285  0.33913  0.45803  1.0000
  H   H109      1.0  0.28935  0.42531  0.46460  1.0000
  H   H110      1.0  0.27783  0.41325  0.43360  1.0000
  H   H111      1.0  0.31785  0.41717  0.44099  1.0000
  H   H112      1.0  0.31413  0.30758  0.46208  1.0000
  H   H113      1.0  0.28495  0.30928  0.43855  1.0000
  H   H114      1.0  0.28035  0.28220  0.46325  1.0000
  H   H115      1.0  0.21495  0.02547  0.53889  1.0000
  H   H116      1.0  0.27473  0.47726  0.43421  1.0000
  H   H117      1.0  0.11102  0.39029  0.40908  1.0000
  H   H118      1.0  0.47512  0.05513  0.36902  1.0000
  C   C68       1.0  0.21314  0.47380  0.47457  1.0000
  H   H119      1.0  0.09949  0.44577  0.43027  1.0000
  C   C69       1.0  0.26055  0.48155  0.45073  1.0000
  C   C70       1.0  0.11559  0.09885  0.37593  1.0000
  H   H120      1.0  0.13920  0.39504  0.38367  1.0000
  H   H121      1.0  0.10190  0.37898  0.37772  1.0000
  H   H122      1.0  0.12128  0.22348  0.35094  1.0000
  C   C71       1.0  0.11449  0.39667  0.38904  1.0000
  H   H123      1.0  0.13655  0.08461  0.37376  1.0000
  C   C72       1.0  0.09985  0.48466  0.38898  1.0000
  H   H124      1.0  0.19046  0.46308  0.47667  1.0000
  H   H125      1.0  0.42713  0.00727  0.35395  1.0000
  H   H126      1.0  0.10040  0.43020  0.36236  1.0000
  N   N5        1.0  0.11927  0.45652  0.39365  1.0000
  H   H127      1.0  0.22068  0.27932  0.34444  1.0000
  H   H128      1.0  0.26555  0.19326  0.39348  1.0000
  H   H129      1.0  0.47000  0.01723  0.37917  1.0000
  H   H130      1.0  0.18040  0.03184  0.55620  1.0000
  H   H131      1.0  0.46662  0.47069  0.36667  1.0000
  H   H132      1.0  0.07701  0.42875  0.39005  1.0000
  H   H133      1.0  0.14307  0.13995  0.38330  1.0000
  N   N6        1.0  0.12918  0.14305  0.34432  1.0000
  C   C73       1.0  0.48935  0.46118  0.37202  1.0000
  C   C74       1.0  0.12295  0.13359  0.37130  1.0000
  H   H134      1.0  0.14868  0.45222  0.36053  1.0000
  H   H135      1.0  0.35009  0.48725  0.64840  1.0000
  H   H136      1.0  0.48700  0.42494  0.34491  1.0000
  C   C75       1.0  0.22386  0.22944  0.34891  1.0000
  C   C76       1.0  0.13848  0.17696  0.34464  1.0000
  H   H137      1.0  0.12277  0.04129  0.50308  1.0000
  S   S25       1.0  0.15506  0.03050  0.34519  1.0000
  C   C77       1.0  0.25309  0.01510  0.48867  1.0000
  C   C78       1.0  0.12249  0.45154  0.42155  1.0000
  H   H138      1.0  0.13104  0.02679  0.54778  1.0000
  H   H139      1.0  0.16598  0.44009  0.38841  1.0000
  H   H140      1.0  0.13759  0.43140  0.42526  1.0000
  C   C79       1.0  0.43924  0.02953  0.34938  1.0000
  C   C80       1.0  0.13019  0.00823  0.53325  1.0000
  C   C81       1.0  0.11391  0.19921  0.35522  1.0000
  H   H141      1.0  0.07865  0.47482  0.35220  1.0000
  H   H142      1.0  0.17594  0.12691  0.34765  1.0000
  H   H143      1.0  0.13695  0.47140  0.45698  1.0000
  H   H144      1.0  0.16271  0.03481  0.50874  1.0000
  H   H145      1.0  0.20835  0.00576  0.56843  1.0000
  H   H146      1.0  0.09321  0.00541  0.34117  1.0000
  H   H147      1.0  0.15984  0.18048  0.35591  1.0000
  C   C82       1.0  0.47141  0.03126  0.36165  1.0000
  C   C83       1.0  0.13966  0.02313  0.50784  1.0000
  H   H148      1.0  0.48479  0.44493  0.38784  1.0000
  H   H149      1.0  0.42478  0.04905  0.35606  1.0000
  H   H150      1.0  0.19204  0.48557  0.39014  1.0000
  C   C84       1.0  0.16886  0.48945  0.38204  1.0000
  C   C85       1.0  0.15605  0.12432  0.33479  1.0000
  H   H151      1.0  0.20905  0.22437  0.33318  1.0000
  C   C86       1.0  0.13657  0.47846  0.43691  1.0000
  H   H152      1.0  0.35326  0.40508  0.34018  1.0000
  H   H153      1.0  0.15015  0.09923  0.33489  1.0000
  C   C87       1.0  0.09418  0.49224  0.36112  1.0000
  H   H154      1.0  0.11609  0.49436  0.35013  1.0000
  C   C88       1.0  0.22415  0.49377  0.49370  1.0000
  H   H155      1.0  0.41042  0.40625  0.33363  1.0000
  C   C89       1.0  0.12028  0.41242  0.76157  1.0000
  H   H156      1.0  0.43586  0.25337  0.98607  1.0000
  S   S26       1.0  0.43382  0.02261  0.79279  1.0000
  H   H157      1.0  0.12998  0.41278  0.71042  1.0000
  H   H158      1.0  0.45588  0.30890  0.88473  1.0000
  H   H159      1.0  0.33037  0.47796  0.84377  1.0000
  H   H160      1.0  0.04286  0.33847  0.94293  1.0000
  H   H161      1.0  0.04534  0.36489  0.90289  1.0000
  Fe  Fe13      1.0  0.00844  0.00096  0.75914  1.0000
  Fe  Fe14      1.0  0.41575  0.20407  0.84058  1.0000
  S   S27       1.0  0.38165  0.19901  0.87297  1.0000
  S   S28       1.0  0.43469  0.16938  0.81158  1.0000
  Fe  Fe15      1.0  0.41908  0.27609  0.84566  1.0000
  S   S29       1.0  0.38461  0.27572  0.87780  1.0000
  S   S30       1.0  0.44823  0.31584  0.82806  1.0000
  Fe  Fe16      1.0  0.41178  0.23523  0.89264  1.0000
  S   S31       1.0  0.42318  0.23692  0.93491  1.0000
  Fe  Fe17      1.0  0.35700  0.23978  0.85609  1.0000
  S   S32       1.0  0.30618  0.24208  0.84313  1.0000
  S   S33       1.0  0.44724  0.23716  0.86139  1.0000
  S   S34       1.0  0.39014  0.24321  0.82293  1.0000
  Fe  Fe18      1.0  0.06800  0.21046  0.82932  1.0000
  S   S35       1.0  0.07933  0.19557  0.86843  1.0000
  S   S36       1.0  0.06400  0.17624  0.79632  1.0000
  Fe  Fe19      1.0  0.07375  0.28015  0.84308  1.0000
  S   S37       1.0  0.08596  0.26877  0.88326  1.0000
  S   S38       1.0  0.07479  0.33251  0.83400  1.0000
  Fe  Fe20      1.0  0.11735  0.23233  0.86659  1.0000
  S   S39       1.0  0.16544  0.21980  0.88163  1.0000
  Fe  Fe21      1.0  0.04725  0.23316  0.88183  1.0000
  C   C90       1.0  0.06989  0.42817  0.71664  1.0000
  S   S40       1.0  0.10747  0.24567  0.82681  1.0000
  S   S41       1.0  0.03354  0.24618  0.84229  1.0000
  H   H162      1.0  0.15833  0.46455  0.75902  1.0000
  Fe  Fe22      1.0  0.00712  0.47851  0.75599  1.0000
  S   S42       1.0  0.43134  0.45844  0.79911  1.0000
  C   C91       1.0  0.43352  0.41775  0.80488  1.0000
  C   C92       1.0  0.45209  0.39820  0.79032  1.0000
  C   C93       1.0  0.45550  0.36683  0.79724  1.0000
  C   C94       1.0  0.43947  0.35418  0.81817  1.0000
  C   C95       1.0  0.41989  0.37342  0.83214  1.0000
  C   C96       1.0  0.41734  0.40507  0.82575  1.0000
  H   H163      1.0  0.46409  0.40724  0.77392  1.0000
  H   H164      1.0  0.45174  0.34078  0.95140  1.0000
  H   H165      1.0  0.40746  0.36416  0.84832  1.0000
  H   H166      1.0  0.16210  0.42823  0.72605  1.0000
  C   C97       1.0  0.26729  0.23579  0.85448  1.0000
  C   C98       1.0  0.24248  0.24382  0.83897  1.0000
  C   C99       1.0  0.21131  0.23938  0.84694  1.0000
  C   C100      1.0  0.20438  0.22644  0.87052  1.0000
  C   C101      1.0  0.22919  0.21785  0.88583  1.0000
  C   C102      1.0  0.26037  0.22260  0.87797  1.0000
  H   H167      1.0  0.24741  0.25407  0.82077  1.0000
  H   H168      1.0  0.19268  0.24628  0.83493  1.0000
  H   H169      1.0  0.22425  0.20782  0.90411  1.0000
  H   H170      1.0  0.27901  0.21619  0.89017  1.0000
  C   C103      1.0  0.12424  0.12882  0.87466  1.0000
  H   H171      1.0  0.40278  0.41985  0.83711  1.0000
  H   H172      1.0  0.14482  0.40828  0.76663  1.0000
  H   H173      1.0  0.08082  0.38259  0.75085  1.0000
  C   C104      1.0  0.46600  0.15635  0.98778  1.0000
  C   C105      1.0  0.45820  0.23639  0.95240  1.0000
  H   H174      1.0  0.11277  0.08084  0.77969  1.0000
  H   H175      1.0  0.12912  0.45969  0.79785  1.0000
  C   C106      1.0  0.45750  0.24591  0.97775  1.0000
  C   C107      1.0  0.13791  0.43364  0.72074  1.0000
  C   C108      1.0  0.02176  0.40072  0.78375  1.0000
  C   C109      1.0  0.08524  0.44697  0.73809  1.0000
  C   C110      1.0  0.03041  0.34748  0.79836  1.0000
  C   C111      1.0  0.05405  0.35792  0.81410  1.0000
  C   C112      1.0  0.06133  0.38991  0.81457  1.0000
  C   C113      1.0  0.04525  0.41118  0.79962  1.0000
  S   S43       1.0  0.46721  0.48184  0.72787  1.0000
  C   C114      1.0  0.47244  0.36866  0.88526  1.0000
  H   H176      1.0  0.07940  0.39833  0.82681  1.0000
  H   H177      1.0  0.05086  0.43569  0.80056  1.0000
  C   C115      1.0  0.02112  0.07740  0.79011  1.0000
  C   C116      1.0  0.03872  0.09035  0.77035  1.0000
  C   C117      1.0  0.05142  0.12063  0.77256  1.0000
  C   C118      1.0  0.04728  0.13818  0.79468  1.0000
  C   C119      1.0  0.03022  0.12499  0.81462  1.0000
  S   S44       1.0  0.00079  0.42638  0.76423  1.0000
  C   C120      1.0  0.41985  0.33765  0.92181  1.0000
  H   H178      1.0  0.06824  0.44261  0.69944  1.0000
  H   H179      1.0  0.02670  0.13813  0.83173  1.0000
  H   H180      1.0  0.49130  0.32570  0.97435  1.0000
  C   C121      1.0  0.43254  0.06361  0.79684  1.0000
  C   C122      1.0  0.42066  0.07557  0.81961  1.0000
  C   C123      1.0  0.42077  0.10780  0.82443  1.0000
  C   C124      1.0  0.43309  0.12852  0.80656  1.0000
  C   C125      1.0  0.44472  0.11659  0.78371  1.0000
  C   C126      1.0  0.44426  0.08440  0.77877  1.0000
  H   H181      1.0  0.41167  0.05971  0.83378  1.0000
  H   H182      1.0  0.41181  0.11656  0.84210  1.0000
  H   H183      1.0  0.45412  0.13241  0.76967  1.0000
  H   H184      1.0  0.45322  0.07570  0.76108  1.0000
  N   N7        1.0  0.11845  0.43974  0.74396  1.0000
  C   C127      1.0  0.48451  0.24614  0.99244  1.0000
  C   C128      1.0  0.11559  0.08668  0.79989  1.0000
  H   H185      1.0  0.16518  0.20423  0.80783  1.0000
  H   H186      1.0  0.48307  0.03628  0.84182  1.0000
  C   C129      1.0  0.13290  0.46749  0.75699  1.0000
  C   C130      1.0  0.10635  0.38139  0.75243  1.0000
  H   H187      1.0  0.09441  0.13403  0.84249  1.0000
  H   H188      1.0  0.10949  0.09689  0.84671  1.0000
  H   H189      1.0  0.11062  0.36334  0.76683  1.0000
  H   H190      1.0  0.12870  0.06773  0.80839  1.0000
  H   H191      1.0  0.01823  0.26518  0.99582  1.0000
  S   S45       1.0  0.01397  0.00480  0.71712  1.0000
  C   C131      1.0  0.35451  0.48642  0.84047  1.0000
  H   H192      1.0  0.11684  0.46932  0.69666  1.0000
  H   H193      1.0  0.15244  0.17413  0.84508  1.0000
  H   H194      1.0  0.46920  0.39413  0.88632  1.0000
  H   H195      1.0  0.07030  0.44418  0.75516  1.0000
  H   H196      1.0  0.15099  0.45218  0.68387  1.0000
  H   H197      1.0  0.03700  0.25380  0.95242  1.0000
  C   C132      1.0  0.48645  0.22693  0.94196  1.0000
  C   C133      1.0  0.17387  0.08197  0.83959  1.0000
  H   H198      1.0  0.07700  0.32819  0.92616  1.0000
  C   C134      1.0  0.01362  0.24742  0.95801  1.0000
  H   H199      1.0  0.09184  0.08711  0.80814  1.0000
  H   H200      1.0  0.47057  0.35213  0.78624  1.0000
  H   H201      1.0  0.00332  0.08530  0.82761  1.0000
  H   H202      1.0  0.06457  0.13055  0.75699  1.0000
  H   H203      1.0  0.18178  0.12953  0.85151  1.0000
  H   H204      1.0  0.19217  0.07751  0.85352  1.0000
  H   H205      1.0  0.12100  0.17521  0.82416  1.0000
  H   H206      1.0  0.15878  0.17222  0.78733  1.0000
  H   H207      1.0  0.09420  0.47436  0.78415  1.0000
  S   S46       1.0  0.01599  0.49184  0.71553  1.0000
  H   H208      1.0  0.18965  0.12220  0.81976  1.0000
  H   H209      1.0  0.11708  0.37318  0.73467  1.0000
  H   H210      1.0  0.17968  0.06940  0.82195  1.0000
  H   H211      1.0  0.08076  0.40595  0.71181  1.0000
  H   H212      1.0  0.19043  0.17221  0.80960  1.0000
  H   H213      1.0  0.13055  0.15346  0.87799  1.0000
  H   H214      1.0  0.11569  0.13529  0.79330  1.0000
  H   H215      1.0  0.15251  0.07177  0.84800  1.0000
  N   N8        1.0  0.47836  0.32528  0.91892  1.0000
  H   H216      1.0  0.00057  0.28910  0.91321  1.0000
  H   H217      1.0  0.02445  0.32302  0.79776  1.0000
  H   H218      1.0  0.04201  0.07730  0.75316  1.0000
  H   H219      1.0  0.14313  0.11398  0.88134  1.0000
  H   H220      1.0  0.10356  0.12365  0.88670  1.0000
  H   H221      1.0  0.44953  0.35837  0.88112  1.0000
  H   H222      1.0  0.15238  0.11825  0.78901  1.0000
  H   H223      1.0  0.44343  0.30202  0.94197  1.0000
  N   N9        1.0  0.32048  0.15262  0.80216  1.0000
  C   C135      1.0  0.31885  0.13569  0.82705  1.0000
  C   C136      1.0  0.32484  0.12846  0.78192  1.0000
  C   C137      1.0  0.29016  0.16903  0.79884  1.0000
  C   C138      1.0  0.34716  0.17555  0.80321  1.0000
  C   C139      1.0  0.30828  0.15498  0.85004  1.0000
  C   C140      1.0  0.35556  0.11079  0.78264  1.0000
  C   C141      1.0  0.28172  0.17902  0.77203  1.0000
  C   C142      1.0  0.35691  0.19223  0.77861  1.0000
  H   H224      1.0  0.30276  0.11526  0.82604  1.0000
  H   H225      1.0  0.34182  0.12621  0.83193  1.0000
  H   H226      1.0  0.32362  0.13840  0.76280  1.0000
  H   H227      1.0  0.30556  0.11097  0.78273  1.0000
  H   H228      1.0  0.27045  0.15401  0.80548  1.0000
  H   H229      1.0  0.28935  0.19032  0.81071  1.0000
  H   H230      1.0  0.34201  0.19424  0.81693  1.0000
  H   H231      1.0  0.36817  0.16475  0.81101  1.0000
  H   H232      1.0  0.32280  0.17603  0.85273  1.0000
  H   H233      1.0  0.28368  0.16176  0.84887  1.0000
  H   H234      1.0  0.31035  0.14076  0.86731  1.0000
  H   H235      1.0  0.37583  0.12669  0.78034  1.0000
  H   H236      1.0  0.35782  0.09691  0.80001  1.0000
  H   H237      1.0  0.35648  0.09416  0.76668  1.0000
  H   H238      1.0  0.29984  0.19356  0.76284  1.0000
  H   H239      1.0  0.26058  0.19333  0.77312  1.0000
  H   H240      1.0  0.27599  0.15872  0.76002  1.0000
  H   H241      1.0  0.34569  0.21518  0.77738  1.0000
  H   H242      1.0  0.35248  0.17890  0.76131  1.0000
  H   H243      1.0  0.38240  0.19626  0.77853  1.0000
  N   N10       1.0  0.14116  0.12971  0.82781  1.0000
  C   C143      1.0  0.14404  0.16469  0.82699  1.0000
  C   C144      1.0  0.11619  0.12178  0.84702  1.0000
  C   C145      1.0  0.13190  0.11870  0.80194  1.0000
  C   C146      1.0  0.17219  0.11718  0.83484  1.0000
  C   C147      1.0  0.16601  0.17852  0.80660  1.0000
  C   C148      1.0  0.05136  0.32568  0.92620  1.0000
  C   C149      1.0  0.13989  0.46047  0.70155  1.0000
  H   H244      1.0  0.04564  0.42239  0.72223  1.0000
  H   H245      1.0  0.10782  0.41709  0.77954  1.0000
  N   N11       1.0  0.00528  0.33490  0.89646  1.0000
  H   H246      1.0  0.08333  0.47181  0.73266  1.0000
  H   H247      1.0  0.46661  0.27935  0.90520  1.0000
  C   C150      1.0  0.01700  0.09495  0.81222  1.0000
  H   H248      1.0  0.44999  0.16297  0.97260  1.0000
  C   C151      1.0  0.44900  0.32570  0.93463  1.0000
  C   C152      1.0  0.03924  0.33978  0.90176  1.0000
  H   H249      1.0  0.41448  0.32509  0.90429  1.0000
  H   H250      1.0  0.04622  0.30055  0.92792  1.0000
  H   H251      1.0  0.05356  0.33040  0.88601  1.0000
  C   C153      1.0  0.11978  0.47534  0.78335  1.0000
  C   C154      1.0  0.01444  0.36875  0.78329  1.0000
  C   C155      1.0  0.48732  0.35747  0.90991  1.0000
  H   H252      1.0  0.39963  0.33389  0.93467  1.0000
  S   S47       1.0  0.00641  0.22329  0.90933  1.0000
  H   H253      1.0  0.42165  0.36296  0.91824  1.0000
  C   C156      1.0  0.47444  0.30236  0.89770  1.0000
  C   C157      1.0  0.99838  0.30060  0.89476  1.0000
  H   H254      1.0  0.48750  0.21943  0.92255  1.0000
  H   H255      1.0  0.03406  0.38636  0.86607  1.0000
  H   H256      1.0  0.36978  0.47038  0.85061  1.0000
  H   H257      1.0  0.35948  0.48466  0.82003  1.0000
  Fe  Fe23      1.0  0.44502  0.49015  0.76584  1.0000
  C   C158      1.0  0.00291  0.25369  0.98274  1.0000
  H   H258      1.0  0.01581  0.28910  0.88245  1.0000
  C   C159      1.0  0.00855  0.38324  0.86758  1.0000
  H   H259      1.0  0.01156  0.33544  0.85591  1.0000
  H   H260      1.0  0.48221  0.37493  0.92478  1.0000
  H   H261      1.0  0.49005  0.06522  0.81851  1.0000
  S   S48       1.0  0.00216  0.04046  0.78765  1.0000
  H   H262      1.0  0.41470  0.49576  0.84237  1.0000
  H   H263      1.0  0.46787  0.13079  0.98710  1.0000
  H   H264      1.0  0.48823  0.36500  0.86889  1.0000
  H   H265      1.0  0.15451  0.48002  0.70844  1.0000
  H   H266      1.0  0.99529  0.32131  0.94925  1.0000
  H   H267      1.0  0.13035  0.48887  0.74556  1.0000
  H   H268      1.0  0.99914  0.39174  0.84956  1.0000
  C   C160      1.0  0.99931  0.34874  0.87094  1.0000
  S   S49       1.0  0.47368  0.99822  0.72385  1.0000
  H   H269      1.0  0.99918  0.39799  0.88288  1.0000
  H   H270      1.0  0.48851  0.16783  0.98304  1.0000
  H   H271      1.0  0.99703  0.37256  0.92266  1.0000
  H   H272      1.0  0.99628  0.36032  0.77116  1.0000
  C   C161      1.0  0.01519  0.55330  0.24510  1.0000
  H   H273      1.0  0.02649  0.98147  0.15798  1.0000
  H   H274      1.0  0.06237  0.62322  0.20241  1.0000
  C   C162      1.0  0.46168  0.74795  0.03036  1.0000
  C   C163      1.0  0.04980  0.54852  0.20831  1.0000
  H   H275      1.0  0.43963  0.74838  0.04025  1.0000
  H   H276      1.0  0.43798  0.66660  0.07160  1.0000
  H   H277      1.0  0.47525  0.87563  0.17848  1.0000
  C   C164      1.0  0.07731  0.56528  0.26528  1.0000
  H   H278      1.0  0.42983  0.67378  0.03133  1.0000
  C   C165      1.0  0.06844  0.52048  0.21702  1.0000
  C   C166      1.0  0.46210  0.67444  0.07481  1.0000
  C   C167      1.0  0.48944  0.74945  0.04411  1.0000
  H   H279      1.0  0.43240  0.61927  0.05931  1.0000
  H   H280      1.0  0.07306  0.50525  0.20058  1.0000
  H   H281      1.0  0.44642  0.68195  0.11344  1.0000
  H   H282      1.0  0.04777  0.94366  0.18545  1.0000
  C   C168      1.0  0.29065  0.97780  0.27020  1.0000
  H   H283      1.0  0.07364  0.53991  0.26410  1.0000
  H   H284      1.0  0.44709  0.60363  0.08817  1.0000
  C   C169      1.0  0.49154  0.84283  0.10010  1.0000
  H   H285      1.0  0.27056  0.97950  0.30685  1.0000
  H   H286      1.0  0.10272  0.56916  0.26653  1.0000
  H   H287      1.0  0.47046  0.64872  0.11005  1.0000
  C   C170      1.0  0.46706  0.67277  0.10341  1.0000
  H   H288      1.0  0.05818  0.60710  0.25107  1.0000
  H   H289      1.0  0.06542  0.56080  0.19471  1.0000
  H   H290      1.0  0.09133  0.52779  0.22433  1.0000
  H   H291      1.0  0.18978  0.95367  0.30800  1.0000
  H   H292      1.0  0.47114  0.98852  0.32252  1.0000
  C   C171      1.0  0.44717  0.65958  0.02121  1.0000
  C   C172      1.0  0.46212  0.74545  0.00392  1.0000
  H   H293      1.0  0.03805  0.94869  0.14002  1.0000
  C   C173      1.0  0.99879  0.57322  0.26522  1.0000
  H   H294      1.0  0.08499  0.58949  0.23003  1.0000
  C   C174      1.0  0.45191  0.60712  0.06778  1.0000
  S   S50       1.0  0.49273  0.93273  0.20281  1.0000
  H   H295      1.0  0.02542  0.53352  0.25500  1.0000
  C   C175      1.0  0.03959  0.61486  0.19563  1.0000
  H   H296      1.0  0.44007  0.63481  0.02055  1.0000
  N   N12       1.0  0.03841  0.57032  0.22851  1.0000
  H   H297      1.0  0.04250  0.60140  0.17799  1.0000
  H   H298      1.0  0.49290  0.85577  0.04026  1.0000
  H   H299      1.0  0.48893  0.85527  0.11833  1.0000
  C   C176      1.0  0.48420  0.62254  0.06371  1.0000
  H   H300      1.0  0.06754  0.57384  0.28337  1.0000
  H   H301      1.0  0.05584  0.50595  0.23103  1.0000
  C   C177      1.0  0.02430  0.93861  0.17809  1.0000
  C   C178      1.0  0.22689  0.97666  0.23577  1.0000
  H   H302      1.0  0.25486  0.94964  0.28769  1.0000
  H   H303      1.0  0.20750  0.95561  0.26862  1.0000
  H   H304      1.0  0.30748  0.95974  0.27532  1.0000
  H   H305      1.0  0.28539  0.97463  0.25013  1.0000
  H   H306      1.0  0.01505  0.58863  0.27544  1.0000
  H   H307      1.0  0.35384  0.99087  0.30136  1.0000
  H   H308      1.0  0.02259  0.91315  0.17515  1.0000
  H   H309      1.0  0.02994  0.53940  0.19718  1.0000
  C   C179      1.0  0.02000  0.95698  0.15352  1.0000
  H   H310      1.0  0.20737  0.97635  0.22240  1.0000
  C   C180      1.0  0.06504  0.58434  0.24294  1.0000
  H   H311      1.0  0.01290  0.61340  0.22967  1.0000
  H   H312      1.0  0.48856  0.75099  0.06436  1.0000
  H   H313      1.0  0.48707  0.68752  0.10907  1.0000
  H   H314      1.0  0.00869  0.95673  0.10470  1.0000
  H   H315      1.0  0.45207  0.58347  0.05946  1.0000
  H   H316      1.0  0.22580  0.95408  0.32530  1.0000
  H   H317      1.0  0.46234  0.69941  0.06957  1.0000
  H   H318      1.0  0.01171  0.69426  0.03269  1.0000
  C   C181      1.0  0.26186  0.97462  0.28759  1.0000
  C   C182      1.0  0.48013  0.66394  0.03135  1.0000
  H   H319      1.0  0.00764  0.94549  0.19293  1.0000
  C   C183      1.0  0.00272  0.71460  0.02363  1.0000
  H   H320      1.0  0.23985  0.95477  0.23348  1.0000
  C   C184      1.0  0.21383  0.97967  0.26276  1.0000
  H   H321      1.0  0.48717  0.68829  0.02704  1.0000
  H   H322      1.0  0.00016  0.58675  0.20651  1.0000
  H   H323      1.0  0.02606  0.63563  0.19061  1.0000
  C   C185      1.0  0.02128  0.59607  0.21573  1.0000
  H   H324      1.0  0.47197  0.85146  0.08881  1.0000
  N   N13       1.0  0.48516  0.65706  0.05882  1.0000
  H   H325      1.0  0.46038  0.80271  0.10458  1.0000
  H   H326      1.0  0.99945  0.90711  0.13380  1.0000
  H   H327      1.0  0.47980  0.81894  0.05343  1.0000
  H   H328      1.0  0.49264  0.80300  0.12584  1.0000
  H   H329      1.0  0.99675  0.54247  0.23345  1.0000
  C   C186      1.0  0.01448  0.72339  0.99968  1.0000
  C   C187      1.0  0.48545  0.80826  0.10638  1.0000
  C   C188      1.0  0.20580  0.96797  0.31944  1.0000
  H   H330      1.0  0.44708  0.66791  0.00143  1.0000
  N   N14       1.0  0.23450  0.99479  0.28194  1.0000
  H   H331      1.0  0.19096  0.99120  0.26187  1.0000
  Fe  Fe24      1.0  0.23990  0.91079  0.55361  1.0000
  S   S51       1.0  0.20776  0.86977  0.56110  1.0000
  S   S52       1.0  0.24045  0.92440  0.51158  1.0000
  Fe  Fe25      1.0  0.25892  0.91306  0.60927  1.0000
  S   S53       1.0  0.22787  0.87267  0.61995  1.0000
  S   S54       1.0  0.28050  0.93540  0.64373  1.0000
  Fe  Fe26      1.0  0.24535  0.85002  0.58462  1.0000
  S   S55       1.0  0.26454  0.80079  0.58596  1.0000
  Fe  Fe27      1.0  0.19286  0.89553  0.59590  1.0000
  S   S56       1.0  0.14166  0.89760  0.60579  1.0000
  S   S57       1.0  0.27900  0.88917  0.57517  1.0000
  S   S58       1.0  0.22230  0.93762  0.58722  1.0000
  Fe  Fe28      1.0  0.24694  0.55521  0.55040  1.0000
  S   S59       1.0  0.20005  0.57689  0.55361  1.0000
  S   S60       1.0  0.26953  0.53186  0.51576  1.0000
  Fe  Fe29      1.0  0.26463  0.57805  0.60320  1.0000
  S   S61       1.0  0.21866  0.60069  0.61017  1.0000
  S   S62       1.0  0.30172  0.58825  0.63213  1.0000
  Fe  Fe30      1.0  0.19829  0.55761  0.59303  1.0000
  S   S63       1.0  0.15210  0.53613  0.60572  1.0000
  Fe  Fe31      1.0  0.22368  0.61883  0.57078  1.0000
  S   S64       1.0  0.20625  0.66719  0.56059  1.0000
  S   S65       1.0  0.24395  0.53313  0.58897  1.0000
  S   S66       1.0  0.27086  0.59888  0.56460  1.0000
  H   H332      1.0  0.30904  0.53166  0.56704  1.0000
  C   C189      1.0  0.32712  0.53071  0.64218  1.0000
  C   C190      1.0  0.35776  0.53109  0.55459  1.0000
  H   H333      1.0  0.17342  0.69900  0.64594  1.0000
  H   H334      1.0  0.19602  0.96538  0.54240  1.0000
  H   H335      1.0  0.15785  0.95523  0.57524  1.0000
  H   H336      1.0  0.37777  0.62569  0.57499  1.0000
  H   H337      1.0  0.41079  0.59083  0.56129  1.0000
  H   H338      1.0  0.18079  0.65570  0.61540  1.0000
  C   C191      1.0  0.35023  0.51187  0.65234  1.0000
  C   C192      1.0  0.10646  0.52869  0.64179  1.0000
  C   C193      1.0  0.13774  0.53652  0.63708  1.0000
  H   H339      1.0  0.20993  0.49826  0.51017  1.0000
  H   H340      1.0  0.10770  0.96261  0.59665  1.0000
  C   C194      1.0  0.27177  0.50113  0.47005  1.0000
  C   C195      1.0  0.23820  0.98517  0.45237  1.0000
  C   C196      1.0  0.25367  0.50755  0.49166  1.0000
  C   C197      1.0  0.13258  0.61781  0.58476  1.0000
  H   H341      1.0  0.39244  0.94206  0.62378  1.0000
  N   N15       1.0  0.37423  0.55682  0.56861  1.0000
  C   C198      1.0  0.48661  0.96293  0.35447  1.0000
  C   C199      1.0  0.34337  0.93861  0.63190  1.0000
  C   C200      1.0  0.49170  0.98894  0.33489  1.0000
  H   H342      1.0  0.41699  0.52885  0.53303  1.0000
  H   H343      1.0  0.33736  0.93139  0.61310  1.0000
  C   C201      1.0  0.12975  0.91789  0.63306  1.0000
  C   C202      1.0  0.09830  0.91743  0.64024  1.0000
  H   H344      1.0  0.30928  0.52062  0.63055  1.0000
  C   C203      1.0  0.25184  0.98808  0.50379  1.0000
  H   H345      1.0  0.41003  0.50422  0.57638  1.0000
  C   C204      1.0  0.15091  0.93485  0.64742  1.0000
  H   H346      1.0  0.08178  0.90446  0.62914  1.0000
  H   H347      1.0  0.33162  0.57244  0.58610  1.0000
  H   H348      1.0  0.17518  0.93544  0.64206  1.0000
  C   C205      1.0  0.24646  0.76392  0.58082  1.0000
  C   C206      1.0  0.26303  0.73695  0.58623  1.0000
  C   C207      1.0  0.25084  0.70719  0.58065  1.0000
  C   C208      1.0  0.22209  0.70405  0.56914  1.0000
  C   C209      1.0  0.20545  0.73102  0.56376  1.0000
  C   C210      1.0  0.21742  0.76078  0.56973  1.0000
  H   H349      1.0  0.28559  0.73907  0.59466  1.0000
  H   H350      1.0  0.26393  0.68672  0.58491  1.0000
  H   H351      1.0  0.18318  0.72887  0.55486  1.0000
  H   H352      1.0  0.20442  0.78125  0.56537  1.0000
  H   H353      1.0  0.42019  0.51332  0.60782  1.0000
  C   C211      1.0  0.23670  0.95820  0.46753  1.0000
  C   C212      1.0  0.24335  0.95939  0.49338  1.0000
  C   C213      1.0  0.37453  0.94468  0.63800  1.0000
  H   H354      1.0  0.23029  0.93622  0.45912  1.0000
  H   H355      1.0  0.35640  0.88625  0.66214  1.0000
  H   H356      1.0  0.14205  0.90345  0.51909  1.0000
  C   C214      1.0  0.35070  0.58163  0.57386  1.0000
  H   H357      1.0  0.18078  0.55030  0.65395  1.0000
  H   H358      1.0  0.17307  0.49863  0.36277  1.0000
  H   H359      1.0  0.07505  0.65856  0.59490  1.0000
  H   H360      1.0  0.18858  0.98819  0.51630  1.0000
  C   C215      1.0  0.08808  0.93371  0.66169  1.0000
  C   C216      1.0  0.08934  0.67657  0.60445  1.0000
  C   C217      1.0  0.15825  0.66783  0.61523  1.0000
  C   C218      1.0  0.16355  0.70024  0.62688  1.0000
  H   H361      1.0  0.12684  0.59428  0.57743  1.0000
  C   C219      1.0  0.13837  0.95317  0.52497  1.0000
  H   H362      1.0  0.11268  0.95068  0.52499  1.0000
  H   H363      1.0  0.17674  0.92067  0.53042  1.0000
  C   C220      1.0  0.14283  0.97407  0.56844  1.0000
  H   H364      1.0  0.38855  0.58067  0.53452  1.0000
  H   H365      1.0  0.40597  0.56297  0.59955  1.0000
  C   C221      1.0  0.10255  0.66389  0.62909  1.0000
  H   H366      1.0  0.19291  0.97401  0.33696  1.0000
  H   H367      1.0  0.09288  0.98433  0.57118  1.0000
  H   H368      1.0  0.15392  0.67191  0.59507  1.0000
  H   H369      1.0  0.18091  0.71313  0.61512  1.0000
  C   C222      1.0  0.14344  0.64089  0.65382  1.0000
  H   H370      1.0  0.08435  0.64772  0.63666  1.0000
  H   H371      1.0  0.14392  0.91392  0.55137  1.0000
  N   N16       1.0  0.27352  0.80600  0.50637  1.0000
  C   C223      1.0  0.29977  0.82475  0.51762  1.0000
  C   C224      1.0  0.27665  0.77312  0.51562  1.0000
  C   C225      1.0  0.24371  0.81920  0.51649  1.0000
  C   C226      1.0  0.27544  0.80876  0.47812  1.0000
  C   C227      1.0  0.30056  0.85982  0.51167  1.0000
  C   C228      1.0  0.30670  0.75665  0.50774  1.0000
  C   C229      1.0  0.21335  0.80314  0.50842  1.0000
  C   C230      1.0  0.25902  0.78304  0.46261  1.0000
  H   H372      1.0  0.29961  0.82239  0.53852  1.0000
  H   H373      1.0  0.32256  0.81603  0.51104  1.0000
  H   H374      1.0  0.25718  0.75783  0.50993  1.0000
  H   H375      1.0  0.27557  0.77260  0.53648  1.0000
  H   H376      1.0  0.24376  0.81919  0.53740  1.0000
  H   H377      1.0  0.24128  0.84383  0.51074  1.0000
  H   H378      1.0  0.26613  0.83146  0.47202  1.0000
  H   H379      1.0  0.30015  0.80899  0.47175  1.0000
  H   H380      1.0  0.30032  0.86469  0.49123  1.0000
  H   H381      1.0  0.28142  0.87214  0.52119  1.0000
  H   H382      1.0  0.32228  0.87025  0.51907  1.0000
  H   H383      1.0  0.31197  0.75883  0.48740  1.0000
  H   H384      1.0  0.32669  0.76531  0.51873  1.0000
  H   H385      1.0  0.30410  0.73151  0.51208  1.0000
  H   H386      1.0  0.21194  0.77833  0.51372  1.0000
  H   H387      1.0  0.20928  0.80629  0.48808  1.0000
  H   H388      1.0  0.19380  0.81450  0.51840  1.0000
  H   H389      1.0  0.24668  0.79394  0.44680  1.0000
  H   H390      1.0  0.24165  0.76877  0.47296  1.0000
  H   H391      1.0  0.27629  0.76750  0.45374  1.0000
  C   C231      1.0  0.32006  0.94240  0.65011  1.0000
  H   H392      1.0  0.36943  0.54709  0.60815  1.0000
  H   H393      1.0  0.14836  0.60099  0.61970  1.0000
  H   H394      1.0  0.15664  0.62313  0.57840  1.0000
  C   C232      1.0  0.10911  0.96568  0.57593  1.0000
  C   C233      1.0  0.42538  0.54958  0.54335  1.0000
  H   H395      1.0  0.08239  0.51487  0.35985  1.0000
  C   C234      1.0  0.36262  0.61114  0.58733  1.0000
  C   C235      1.0  0.38758  0.54643  0.59324  1.0000
  H   H396      1.0  0.09169  0.52259  0.62625  1.0000
  H   H397      1.0  0.10771  0.60531  0.61854  1.0000
  H   H398      1.0  0.15822  0.50790  0.39341  1.0000
  H   H399      1.0  0.07445  0.69669  0.60885  1.0000
  H   H400      1.0  0.14222  0.71416  0.62714  1.0000
  C   C236      1.0  0.39904  0.57100  0.55181  1.0000
  H   H401      1.0  0.16659  0.62975  0.65347  1.0000
  N   N17       1.0  0.13323  0.64784  0.62741  1.0000
  H   H402      1.0  0.12276  0.49983  0.43626  1.0000
  H   H403      1.0  0.37444  0.60576  0.60513  1.0000
  H   H404      1.0  0.14951  0.99462  0.57996  1.0000
  C   C237      1.0  0.15123  0.92128  0.53222  1.0000
  H   H405      1.0  0.34241  0.62559  0.59253  1.0000
  H   H406      1.0  0.29460  0.51161  0.46814  1.0000
  C   C238      1.0  0.40080  0.51332  0.59432  1.0000
  H   H407      1.0  0.44095  0.56260  0.53015  1.0000
  C   C239      1.0  0.13009  0.61721  0.61369  1.0000
  H   H408      1.0  0.33956  0.58908  0.55614  1.0000
  H   H409      1.0  0.11661  0.63416  0.57601  1.0000
  H   H410      1.0  0.10297  0.68302  0.64318  1.0000
  H   H411      1.0  0.10706  0.68579  0.59115  1.0000
  C   C240      1.0  0.32773  0.56272  0.64662  1.0000
  N   N18       1.0  0.14855  0.98036  0.54090  1.0000
  H   H412      1.0  0.46654  0.96729  0.36711  1.0000
  H   H413      1.0  0.14525  0.95697  0.50495  1.0000
  C   C241      1.0  0.32939  0.51640  0.56824  1.0000
  H   H414      1.0  0.41171  0.89111  0.65621  1.0000
  H   H415      1.0  0.43983  0.54285  0.55944  1.0000
  C   C242      1.0  0.15665  0.54435  0.65730  1.0000
  C   C243      1.0  0.18272  0.98593  0.53667  1.0000
  H   H416      1.0  0.23299  0.98372  0.43258  1.0000
  H   H417      1.0  0.25760  0.98946  0.52346  1.0000
  H   H418      1.0  0.31877  0.84710  0.64595  1.0000
  H   H419      1.0  0.33390  0.51115  0.58819  1.0000
  H   H420      1.0  0.10967  0.50598  0.39743  1.0000
  H   H421      1.0  0.37333  0.51185  0.54967  1.0000
  H   H422      1.0  0.10133  0.94341  0.56750  1.0000
  H   H423      1.0  0.34948  0.53974  0.53614  1.0000
  H   H424      1.0  0.11538  0.59783  0.65998  1.0000
  C   C244      1.0  0.38267  0.95393  0.66242  1.0000
  H   H425      1.0  0.48149  0.94089  0.34437  1.0000
  C   C245      1.0  0.35074  0.57541  0.66212  1.0000
  H   H426      1.0  0.37216  0.84953  0.65569  1.0000
  H   H427      1.0  0.38340  0.49677  0.60245  1.0000
  H   H428      1.0  0.14629  0.66249  0.66501  1.0000
  H   H429      1.0  0.42514  0.85324  0.66461  1.0000
  Fe  Fe32      1.0  0.08164  0.71475  0.88280  1.0000
  S   S67       1.0  0.04574  0.75204  0.88682  1.0000
  S   S68       1.0  0.08758  0.67390  0.85586  1.0000
  Fe  Fe33      1.0  0.12641  0.74661  0.91903  1.0000
  S   S69       1.0  0.09382  0.78602  0.92615  1.0000
  S   S70       1.0  0.17284  0.74129  0.93883  1.0000
  Fe  Fe34      1.0  0.05537  0.75009  0.92872  1.0000
  C   C246      1.0  0.34797  0.87914  0.71229  1.0000
  Fe  Fe35      1.0  0.08592  0.78580  0.88440  1.0000
  S   S71       1.0  0.08958  0.83269  0.86453  1.0000
  S   S72       1.0  0.08852  0.71031  0.92462  1.0000
  S   S73       1.0  0.12119  0.74907  0.87740  1.0000
  Fe  Fe36      1.0  0.42136  0.70435  0.89568  1.0000
  S   S74       1.0  0.45175  0.74050  0.91432  1.0000
  S   S75       1.0  0.44305  0.66012  0.88045  1.0000
  Fe  Fe37      1.0  0.36136  0.73936  0.90717  1.0000
  S   S76       1.0  0.38748  0.77771  0.92695  1.0000
  S   S77       1.0  0.31104  0.74174  0.89357  1.0000
  Fe  Fe38      1.0  0.42191  0.77524  0.89484  1.0000
  S   S78       1.0  0.44076  0.82154  0.87985  1.0000
  Fe  Fe39      1.0  0.41581  0.74042  0.94523  1.0000
  S   S79       1.0  0.42625  0.74159  0.98775  1.0000
  S   S80       1.0  0.39459  0.73916  0.87389  1.0000
  S   S81       1.0  0.38672  0.70193  0.92777  1.0000
  Fe  Fe40      1.0  0.44981  0.91876  0.75434  1.0000
  S   S82       1.0  0.43226  0.87114  0.76739  1.0000
  Fe  Fe41      1.0  0.44139  0.96093  0.70895  1.0000
  S   S83       1.0  0.47578  0.53153  0.77403  1.0000
  S   S84       1.0  0.47393  0.92202  0.71662  1.0000
  S   S85       1.0  0.41517  0.95539  0.74544  1.0000
  H   H430      1.0  0.02212  0.84503  0.87516  1.0000
  C   C247      1.0  0.11304  0.53644  0.68667  1.0000
  H   H431      1.0  0.44475  0.88735  0.67532  1.0000
  Fe  Fe42      1.0  0.04956  0.96760  0.72095  1.0000
  S   S86       1.0  0.09800  0.97027  0.70389  1.0000
  H   H432      1.0  0.15925  0.54986  0.69754  1.0000
  S   S87       1.0  0.04639  0.96629  0.76329  1.0000
  H   H433      1.0  0.35106  0.52562  0.78989  1.0000
  C   C248      1.0  0.00700  0.86140  0.88554  1.0000
  H   H434      1.0  0.04037  0.82702  0.95424  1.0000
  Fe  Fe43      1.0  0.04867  0.52808  0.73049  1.0000
  S   S88       1.0  0.09889  0.53620  0.71809  1.0000
  H   H435      1.0  0.36576  0.61280  0.85983  1.0000
  C   C249      1.0  0.15226  0.87170  0.69773  1.0000
  Fe  Fe44      1.0  0.44003  0.56050  0.75588  1.0000
  S   S89       1.0  0.41980  0.60523  0.77113  1.0000
  Fe  Fe45      1.0  0.43163  0.51469  0.71274  1.0000
  H   H436      1.0  0.03517  0.86730  0.96285  1.0000
  C   C250      1.0  0.35790  0.51996  0.85048  1.0000
  S   S90       1.0  0.46180  0.55748  0.71718  1.0000
  H   H437      1.0  0.34059  0.55724  0.81048  1.0000
  H   H438      1.0  0.09531  0.80766  0.76613  1.0000
  S   S91       1.0  0.40361  0.50091  0.67840  1.0000
  C   C251      1.0  0.41404  0.51903  0.85137  1.0000
  C   C252      1.0  0.44047  0.83383  0.84804  1.0000
  C   C253      1.0  0.42840  0.81511  0.82894  1.0000
  C   C254      1.0  0.42625  0.82679  0.80431  1.0000
  C   C255      1.0  0.43630  0.85717  0.79848  1.0000
  C   C256      1.0  0.44860  0.87580  0.81752  1.0000
  C   C257      1.0  0.45069  0.86414  0.84216  1.0000
  H   H439      1.0  0.42065  0.79167  0.83315  1.0000
  H   H440      1.0  0.41688  0.81213  0.78967  1.0000
  H   H441      1.0  0.45641  0.89921  0.81330  1.0000
  H   H442      1.0  0.45997  0.87883  0.85682  1.0000
  C   C258      1.0  0.43786  0.64685  0.84927  1.0000
  C   C259      1.0  0.41464  0.65850  0.83408  1.0000
  C   C260      1.0  0.40984  0.64590  0.80999  1.0000
  C   C261      1.0  0.42810  0.62155  0.80088  1.0000
  C   C262      1.0  0.45175  0.61032  0.81586  1.0000
  C   C263      1.0  0.45657  0.62291  0.83996  1.0000
  H   H443      1.0  0.40012  0.67692  0.84101  1.0000
  H   H444      1.0  0.39162  0.65486  0.79846  1.0000
  H   H445      1.0  0.46634  0.59201  0.80885  1.0000
  H   H446      1.0  0.35128  0.60010  0.66579  1.0000
  C   C264      1.0  0.06709  0.84535  0.83908  1.0000
  C   C265      1.0  0.07117  0.87595  0.83037  1.0000
  C   C266      1.0  0.05215  0.88781  0.81153  1.0000
  C   C267      1.0  0.02903  0.86905  0.80105  1.0000
  C   C268      1.0  0.37353  0.52472  0.66756  1.0000
  C   C269      1.0  0.04417  0.82646  0.82841  1.0000
  H   H447      1.0  0.08868  0.89079  0.83868  1.0000
  H   H448      1.0  0.05493  0.91163  0.80547  1.0000
  C   C270      1.0  0.39220  0.80667  0.68998  1.0000
  S   S92       1.0  0.01230  0.56486  0.73267  1.0000
  C   C271      1.0  0.06019  0.64859  0.84148  1.0000
  C   C272      1.0  0.07070  0.62766  0.82305  1.0000
  C   C273      1.0  0.05011  0.60657  0.81144  1.0000
  C   C274      1.0  0.01875  0.60595  0.81834  1.0000
  H   H449      1.0  0.40686  0.55879  0.80884  1.0000
  C   C275      1.0  0.02878  0.64820  0.84825  1.0000
  H   H450      1.0  0.09492  0.62781  0.81762  1.0000
  H   H451      1.0  0.05853  0.59066  0.79728  1.0000
  C   C276      1.0  0.14438  0.54402  0.68200  1.0000
  C   C277      1.0  0.21129  0.74352  0.92624  1.0000
  C   C278      1.0  0.21752  0.75073  0.90102  1.0000
  C   C279      1.0  0.24823  0.75057  0.89158  1.0000
  C   C280      1.0  0.27317  0.74340  0.90718  1.0000
  C   C281      1.0  0.26703  0.73678  0.93251  1.0000
  C   C282      1.0  0.23627  0.73677  0.94192  1.0000
  H   H452      1.0  0.19865  0.75616  0.88872  1.0000
  H   H453      1.0  0.25264  0.75565  0.87194  1.0000
  H   H454      1.0  0.28589  0.73121  0.94476  1.0000
  H   H455      1.0  0.23177  0.73124  0.96147  1.0000
  H   H456      1.0  0.49174  0.74322  0.97116  1.0000
  N   N19       1.0  0.34352  0.84343  0.86884  1.0000
  C   C283      1.0  0.36581  0.86520  0.85512  1.0000
  C   C284      1.0  0.35351  0.81088  0.86273  1.0000
  C   C285      1.0  0.34781  0.84911  0.89660  1.0000
  C   C286      1.0  0.31097  0.84997  0.86080  1.0000
  C   C287      1.0  0.35761  0.89995  0.85499  1.0000
  C   C288      1.0  0.34686  0.79916  0.83587  1.0000
  C   C289      1.0  0.32544  0.83199  0.91489  1.0000
  C   C290      1.0  0.28555  0.82529  0.86721  1.0000
  H   H457      1.0  0.38935  0.86362  0.86318  1.0000
  H   H458      1.0  0.36866  0.85873  0.83505  1.0000
  H   H459      1.0  0.34319  0.79364  0.87578  1.0000
  H   H460      1.0  0.37874  0.80855  0.86580  1.0000
  H   H461      1.0  0.37183  0.84299  0.90203  1.0000
  H   H462      1.0  0.34552  0.87403  0.90130  1.0000
  H   H463      1.0  0.30319  0.87230  0.86911  1.0000
  H   H464      1.0  0.31052  0.85351  0.84005  1.0000
  H   H465      1.0  0.33631  0.90426  0.84425  1.0000
  H   H466      1.0  0.35543  0.90997  0.87407  1.0000
  H   H467      1.0  0.37668  0.91302  0.84526  1.0000
  H   H468      1.0  0.35937  0.81272  0.82117  1.0000
  H   H469      1.0  0.35510  0.77495  0.83417  1.0000
  H   H470      1.0  0.32183  0.79839  0.83179  1.0000
  H   H471      1.0  0.30180  0.84145  0.91413  1.0000
  H   H472      1.0  0.33351  0.83588  0.93438  1.0000
  H   H473      1.0  0.32470  0.80656  0.91214  1.0000
  H   H474      1.0  0.26787  0.83511  0.88019  1.0000
  H   H475      1.0  0.29404  0.80389  0.87587  1.0000
  H   H476      1.0  0.27323  0.81819  0.84990  1.0000
  N   N20       1.0  0.18283  0.65043  0.89198  1.0000
  C   C291      1.0  0.19039  0.65627  0.91924  1.0000
  C   C292      1.0  0.21262  0.64233  0.87856  1.0000
  C   C293      1.0  0.16077  0.62292  0.89113  1.0000
  C   C294      1.0  0.16798  0.67903  0.88141  1.0000
  C   C295      1.0  0.16246  0.66054  0.93722  1.0000
  C   C296      1.0  0.23952  0.66601  0.88168  1.0000
  C   C297      1.0  0.15150  0.61100  0.86498  1.0000
  C   C298      1.0  0.17207  0.68492  0.85288  1.0000
  H   H477      1.0  0.20435  0.63705  0.92692  1.0000
  H   H478      1.0  0.20493  0.67767  0.92127  1.0000
  H   H479      1.0  0.20928  0.63929  0.85809  1.0000
  H   H480      1.0  0.22105  0.61951  0.88523  1.0000
  H   H481      1.0  0.17055  0.60295  0.90147  1.0000
  H   H482      1.0  0.13843  0.62833  0.90076  1.0000
  H   H483      1.0  0.14269  0.67880  0.88568  1.0000
  H   H484      1.0  0.17674  0.70046  0.89075  1.0000
  H   H485      1.0  0.15050  0.63814  0.94144  1.0000
  H   H486      1.0  0.17073  0.67011  0.95537  1.0000
  H   H487      1.0  0.14580  0.67722  0.92969  1.0000
  H   H488      1.0  0.23191  0.69015  0.87913  1.0000
  H   H489      1.0  0.25024  0.66400  0.90044  1.0000
  H   H490      1.0  0.25796  0.66148  0.86744  1.0000
  H   H491      1.0  0.17151  0.60558  0.85262  1.0000
  H   H492      1.0  0.13582  0.62734  0.85569  1.0000
  H   H493      1.0  0.13785  0.58910  0.86731  1.0000
  H   H494      1.0  0.19602  0.69251  0.84795  1.0000
  H   H495      1.0  0.15673  0.70406  0.84732  1.0000
  H   H496      1.0  0.16557  0.66477  0.84119  1.0000
  H   H497      1.0  0.15532  0.84679  0.70200  1.0000
  H   H498      1.0  0.03231  0.70987  0.99059  1.0000
  S   S93       1.0  0.00442  0.88295  0.77743  1.0000
  C   C299      1.0  0.42158  0.87707  0.67152  1.0000
  H   H499      1.0  0.32525  0.86673  0.71385  1.0000
  H   H500      1.0  0.07134  0.84054  0.76507  1.0000
  H   H501      1.0  0.07390  0.89021  0.75916  1.0000
  H   H502      1.0  0.04077  0.80288  0.83497  1.0000
  H   H503      1.0  0.03932  0.85332  0.70208  1.0000
  H   H504      1.0  0.36513  0.56367  0.78403  1.0000
  Fe  Fe46      1.0  0.00362  0.54712  0.77196  1.0000
  H   H505      1.0  0.33665  0.53220  0.84526  1.0000
  H   H506      1.0  0.05721  0.82966  0.72488  1.0000
  H   H507      1.0  0.13291  0.61352  0.68737  1.0000
  H   H508      1.0  0.38386  0.83002  0.72456  1.0000
  C   C300      1.0  0.05449  0.85403  0.71875  1.0000
  H   H509      1.0  0.04201  0.86746  0.73329  1.0000
  C   C301      1.0  0.35937  0.95754  0.68062  1.0000
  H   H510      1.0  0.41550  0.87093  0.71162  1.0000
  H   H511      1.0  0.40985  0.58119  0.84982  1.0000
  H   H512      1.0  0.13564  0.92591  0.76258  1.0000
  C   C302      1.0  0.00823  0.62687  0.83680  1.0000
  H   H513      1.0  0.45019  0.54013  0.82659  1.0000
  Fe  Fe47      1.0  0.00968  0.92964  0.75773  1.0000
  N   N21       1.0  0.10862  0.87498  0.73175  1.0000
  C   C303      1.0  0.49087  0.74505  0.99145  1.0000
  H   H514      1.0  0.15600  0.89247  0.73403  1.0000
  H   H515      1.0  0.14061  0.84794  0.75316  1.0000
  H   H516      1.0  0.09545  0.85300  0.69663  1.0000
  H   H517      1.0  0.13275  0.91329  0.71309  1.0000
  C   C304      1.0  0.12135  0.61983  0.66961  1.0000
  H   H518      1.0  0.11953  0.82613  0.73058  1.0000
  C   C305      1.0  0.08579  0.86895  0.71105  1.0000
  C   C306      1.0  0.11735  0.84520  0.74460  1.0000
  H   H519      1.0  0.39900  0.51863  0.80567  1.0000
  H   H520      1.0  0.36533  0.96498  0.69937  1.0000
  H   H521      1.0  0.10409  0.92390  0.78434  1.0000
  H   H522      1.0  0.07215  0.85378  0.95291  1.0000
  H   H523      1.0  0.34966  0.81864  0.70874  1.0000
  C   C307      1.0  0.09569  0.83344  0.76617  1.0000
  H   H524      1.0  0.34301  0.90226  0.70421  1.0000
  H   H525      1.0  0.41180  0.51468  0.87197  1.0000
  C   C308      1.0  0.36242  0.59146  0.84835  1.0000
  H   H526      1.0  0.00738  0.82362  0.80147  1.0000
  H   H527      1.0  0.47476  0.61400  0.85153  1.0000
  C   C309      1.0  0.02520  0.83832  0.80951  1.0000
  C   C310      1.0  0.38807  0.56859  0.85476  1.0000
  S   S94       1.0  0.04218  0.51270  0.77083  1.0000
  C   C311      1.0  0.35960  0.54696  0.79942  1.0000
  H   H528      1.0  0.39130  0.78362  0.69931  1.0000
  H   H529      1.0  0.31026  0.95533  0.68850  1.0000
  H   H530      1.0  0.45096  0.55388  0.85884  1.0000
  S   S95       1.0  0.40765  0.51989  0.75006  1.0000
  C   C312      1.0  0.40122  0.87880  0.69564  1.0000
  C   C313      1.0  0.44648  0.53356  0.84652  1.0000
  H   H531      1.0  0.08085  0.89100  0.70108  1.0000
  H   H532      1.0  0.10499  0.84017  0.78479  1.0000
  C   C314      1.0  0.01709  0.89450  0.87763  1.0000
  H   H533      1.0  0.01245  0.89742  0.85729  1.0000
  H   H534      1.0  0.05704  0.84626  0.91004  1.0000
  S   S96       1.0  0.42211  0.96080  0.66940  1.0000
  S   S97       1.0  0.01490  0.76040  0.95632  1.0000
  C   C315      1.0  0.37297  0.82946  0.70572  1.0000
  H   H535      1.0  0.33890  0.58232  0.85283  1.0000
  H   H536      1.0  0.12811  0.89074  0.78056  1.0000
  H   H537      1.0  0.36431  0.59908  0.82847  1.0000
  H   H538      1.0  0.34116  0.89916  0.74946  1.0000
  H   H539      1.0  0.00398  0.91265  0.88772  1.0000
  C   C316      1.0  0.00269  0.74921  0.98736  1.0000
  H   H540      1.0  0.08804  0.91947  0.73912  1.0000
  S   S98       1.0  0.01562  0.92844  0.71566  1.0000
  C   C317      1.0  0.11738  0.91010  0.77039  1.0000
  H   H541      1.0  0.02039  0.66407  0.86244  1.0000
  C   C318      1.0  0.04057  0.85972  0.92190  1.0000
  H   H542      1.0  0.35988  0.86261  0.75028  1.0000
  C   C319      1.0  0.09537  0.89861  0.74967  1.0000
  H   H543      1.0  0.46426  0.51617  0.85097  1.0000
  H   H544      1.0  0.39814  0.90413  0.69885  1.0000
  C   C320      1.0  0.13744  0.88948  0.71992  1.0000
  H   H545      1.0  0.38085  0.89722  0.74044  1.0000
  H   H546      1.0  0.39115  0.56670  0.68438  1.0000
  N   N22       1.0  0.37019  0.86185  0.69541  1.0000
  C   C321      1.0  0.04689  0.85135  0.94958  1.0000
  H   H547      1.0  0.38811  0.56590  0.87559  1.0000
  H   H548      1.0  0.32216  0.82409  0.67361  1.0000
  H   H549      1.0  0.38298  0.80327  0.67085  1.0000
  H   H550      1.0  0.02058  0.80592  0.91683  1.0000
  H   H551      1.0  0.04778  0.88446  0.91975  1.0000
  C   C322      1.0  0.35844  0.88457  0.73957  1.0000
  N   N23       1.0  0.38688  0.53726  0.84211  1.0000
  C   C323      1.0  0.38963  0.54035  0.81392  1.0000
  H   H552      1.0  0.04236  0.89836  0.87983  1.0000
  H   H553      1.0  0.13870  0.87433  0.68032  1.0000
  H   H554      1.0  0.35663  0.51874  0.87140  1.0000
  N   N24       1.0  0.00779  0.85425  0.91325  1.0000
  C   C324      1.0  0.32424  0.84809  0.66629  1.0000
  C   C325      1.0  0.14068  0.95122  0.66879  1.0000
  C   C326      1.0  0.37339  0.55652  0.67270  1.0000
  H   H555      1.0  0.41690  0.81387  0.68914  1.0000
  C   C327      1.0  0.32820  0.95209  0.67439  1.0000
  S   S99       1.0  0.48308  0.95220  0.77235  1.0000
  H   H556      1.0  0.17553  0.88195  0.69348  1.0000
  H   H557      1.0  0.09980  0.63193  0.67504  1.0000
  H   H558      1.0  0.15725  0.96424  0.67982  1.0000
  H   H559      1.0  0.99596  0.89943  0.92799  1.0000
  C   C328      1.0  0.99948  0.82043  0.91782  1.0000
  C   C329      1.0  0.10929  0.95064  0.67608  1.0000
  C   C330      1.0  0.09408  0.52881  0.66645  1.0000
  Fe  Fe48      1.0  0.44988  0.98964  0.76132  1.0000
  H   H560      1.0  0.06995  0.52286  0.66979  1.0000
  C   C331      1.0  0.35712  0.86200  0.66925  1.0000
  H   H561      1.0  0.30642  0.86305  0.67507  1.0000
  H   H562      1.0  0.06384  0.93321  0.66706  1.0000
  H   H563      1.0  0.12706  0.49935  0.78846  1.0000
  S   S100      1.0  0.55301  0.46301  0.21807  1.0000
  H   H564      1.0  0.78787  0.16902  0.04022  1.0000
  Fe  Fe49      1.0  0.55493  0.44542  0.25792  1.0000
  S   S101      1.0  0.59599  0.42027  0.27448  1.0000
  C   C332      1.0  0.95491  0.46481  0.10213  1.0000
  H   H565      1.0  0.75322  0.12915  0.04945  1.0000
  S   S102      1.0  0.96559  0.06712  0.24137  1.0000
  C   C333      1.0  0.91708  0.40637  0.10858  1.0000
  Fe  Fe50      1.0  0.96082  0.04075  0.20535  1.0000
  S   S103      1.0  0.96633  0.06178  0.16612  1.0000
  H   H566      1.0  0.62482  0.09678  0.31612  1.0000
  C   C334      1.0  0.91981  0.20024  0.18604  1.0000
  C   C335      1.0  0.62102  0.46319  0.30786  1.0000
  S   S104      1.0  0.96904  0.41940  0.25883  1.0000
  H   H567      1.0  0.76297  0.07796  0.28303  1.0000
  S   S105      1.0  0.92869  0.45314  0.21406  1.0000
  Fe  Fe51      1.0  0.92836  0.45152  0.25651  1.0000
  S   S106      1.0  0.87934  0.44192  0.27157  1.0000
  Fe  Fe52      1.0  0.97069  0.42378  0.21661  1.0000
  H   H568      1.0  0.55137  0.15249  0.21847  1.0000
  H   H569      1.0  0.90472  0.22898  0.14360  1.0000
  C   C336      1.0  0.69954  0.04459  0.29276  1.0000
  H   H570      1.0  0.79409  0.03718  0.29232  1.0000
  S   S107      1.0  0.52593  0.05376  0.25924  1.0000
  Fe  Fe53      1.0  0.53461  0.04234  0.21855  1.0000
  S   S108      1.0  0.56200  0.07837  0.19560  1.0000
  C   C337      1.0  0.87091  0.02645  0.31877  1.0000
  H   H571      1.0  0.86224  0.26287  0.15562  1.0000
  Fe  Fe54      1.0  0.56659  0.27690  0.09079  1.0000
  S   S109      1.0  0.58538  0.23636  0.11169  1.0000
  S   S110      1.0  0.57324  0.32473  0.10856  1.0000
  Fe  Fe55      1.0  0.55979  0.23874  0.04172  1.0000
  S   S111      1.0  0.58043  0.19633  0.05971  1.0000
  Fe  Fe56      1.0  0.54918  0.20754  0.09255  1.0000
  S   S112      1.0  0.51753  0.17020  0.10998  1.0000
  Fe  Fe57      1.0  0.61556  0.22873  0.07737  1.0000
  S   S113      1.0  0.66586  0.22166  0.08928  1.0000
  S   S114      1.0  0.52724  0.24887  0.07404  1.0000
  S   S115      1.0  0.59769  0.27008  0.05688  1.0000
  Fe  Fe58      1.0  0.84741  0.24131  0.05722  1.0000
  S   S116      1.0  0.88113  0.28143  0.05208  1.0000
  S   S117      1.0  0.80000  0.23964  0.03844  1.0000
  Fe  Fe59      1.0  0.89067  0.20698  0.09278  1.0000
  S   S118      1.0  0.92733  0.24473  0.09058  1.0000
  S   S119      1.0  0.88281  0.16898  0.12216  1.0000
  Fe  Fe60      1.0  0.88837  0.27831  0.09380  1.0000
  S   S120      1.0  0.88156  0.31836  0.12112  1.0000
  Fe  Fe61      1.0  0.91816  0.24515  0.04852  1.0000
  S   S121      1.0  0.85227  0.24084  0.09877  1.0000
  S   S122      1.0  0.88383  0.20488  0.05082  1.0000
  C   C338      1.0  0.70257  0.22843  0.07458  1.0000
  C   C339      1.0  0.72893  0.23061  0.08976  1.0000
  C   C340      1.0  0.75872  0.23526  0.07908  1.0000
  C   C341      1.0  0.76269  0.23666  0.05298  1.0000
  C   C342      1.0  0.73629  0.23490  0.03782  1.0000
  C   C343      1.0  0.70636  0.23112  0.04853  1.0000
  H   H572      1.0  0.72625  0.22880  0.10995  1.0000
  H   H573      1.0  0.77865  0.23743  0.09101  1.0000
  H   H574      1.0  0.73905  0.23615  0.01760  1.0000
  H   H575      1.0  0.68635  0.22950  0.03659  1.0000
  C   C344      1.0  0.59860  0.02180  0.31700  1.0000
  H   H576      1.0  0.96757  0.25166  0.15353  1.0000
  H   H577      1.0  0.92497  0.29833  0.18563  1.0000
  H   H578      1.0  0.58930  0.06094  0.29343  1.0000
  C   C345      1.0  0.54953  0.10245  0.17087  1.0000
  C   C346      1.0  0.56894  0.12712  0.16288  1.0000
  C   C347      1.0  0.55959  0.14777  0.14407  1.0000
  C   C348      1.0  0.53061  0.14400  0.13305  1.0000
  C   C349      1.0  0.54327  0.14321  0.23687  1.0000
  C   C350      1.0  0.96234  0.22981  0.16408  1.0000
  H   H579      1.0  0.59133  0.13042  0.17141  1.0000
  H   H580      1.0  0.57477  0.16671  0.13821  1.0000
  C   C351      1.0  0.91285  0.43534  0.12529  1.0000
  C   C352      1.0  0.91007  0.33540  0.14047  1.0000
  C   C353      1.0  0.94154  0.32907  0.13742  1.0000
  C   C354      1.0  0.96347  0.34413  0.15275  1.0000
  C   C355      1.0  0.95412  0.36543  0.17128  1.0000
  C   C356      1.0  0.92264  0.37159  0.17438  1.0000
  C   C357      1.0  0.90075  0.35666  0.15902  1.0000
  H   H581      1.0  0.94902  0.31296  0.12304  1.0000
  H   H582      1.0  0.99036  0.47895  0.15916  1.0000
  H   H583      1.0  0.91514  0.38781  0.18866  1.0000
  H   H584      1.0  0.87644  0.36168  0.16148  1.0000
  C   C358      1.0  0.86689  0.43259  0.30254  1.0000
  C   C359      1.0  0.83638  0.42153  0.30645  1.0000
  N   N25       1.0  0.93146  0.23174  0.17763  1.0000
  C   C360      1.0  0.86689  0.05294  0.30409  1.0000
  H   H585      1.0  0.82935  0.16692  0.03932  1.0000
  C   C361      1.0  0.94341  0.09219  0.15450  1.0000
  C   C362      1.0  0.95294  0.10793  0.13248  1.0000
  C   C363      1.0  0.93489  0.13169  0.12232  1.0000
  C   C364      1.0  0.90684  0.13951  0.13390  1.0000
  C   C365      1.0  0.89721  0.12361  0.15579  1.0000
  C   C366      1.0  0.91553  0.10031  0.16621  1.0000
  C   C367      1.0  0.62215  0.07297  0.32232  1.0000
  H   H586      1.0  0.94256  0.14369  0.10544  1.0000
  H   H587      1.0  0.87556  0.12949  0.16493  1.0000
  H   H588      1.0  0.90790  0.08832  0.18312  1.0000
  C   C368      1.0  0.62012  0.43249  0.29938  1.0000
  H   H589      1.0  0.76952  0.10224  0.30992  1.0000
  C   C369      1.0  0.54528  0.38640  0.16193  1.0000
  C   C370      1.0  0.56312  0.36924  0.14460  1.0000
  C   C371      1.0  0.55014  0.34394  0.13150  1.0000
  H   H590      1.0  0.90928  0.47062  0.08383  1.0000
  H   H591      1.0  0.50346  0.19667  0.02667  1.0000
  C   C372      1.0  0.80803  0.15720  0.04838  1.0000
  H   H592      1.0  0.58705  0.37582  0.14118  1.0000
  H   H593      1.0  0.82307  0.48111  0.33095  1.0000
  H   H594      1.0  0.64027  0.32795  0.04520  1.0000
  H   H595      1.0  0.50809  0.12354  0.06696  1.0000
  H   H596      1.0  0.73215  0.10114  0.29611  1.0000
  C   C373      1.0  0.49525  0.07672  0.32574  1.0000
  H   H597      1.0  0.79431  0.99769  0.28288  1.0000
  H   H598      1.0  0.80778  0.13249  0.04297  1.0000
  S   S123      1.0  0.88726  0.05924  0.27522  1.0000
  C   C374      1.0  0.75235  0.08670  0.30069  1.0000
  H   H599      1.0  0.50873  0.31657  0.12596  1.0000
  S   S124      1.0  0.51254  0.41531  0.25374  1.0000
  N   N26       1.0  0.94083  0.45660  0.12737  1.0000
  H   H600      1.0  0.87694  0.26896  0.18626  1.0000
  H   H601      1.0  0.93937  0.15698  0.19944  1.0000
  H   H602      1.0  0.92556  0.00118  0.15708  1.0000
  C   C375      1.0  0.51087  0.15458  0.24470  1.0000
  H   H603      1.0  0.82162  0.41772  0.29045  1.0000
  H   H604      1.0  0.76363  0.05365  0.32929  1.0000
  H   H605      1.0  0.50393  0.39452  0.31477  1.0000
  H   H606      1.0  0.94715  0.29841  0.21354  1.0000
  N   N27       1.0  0.79032  0.14109  0.09343  1.0000
  C   C376      1.0  0.79654  0.14915  0.12055  1.0000
  C   C377      1.0  0.79908  0.10763  0.08974  1.0000
  C   C378      1.0  0.75610  0.14528  0.08905  1.0000
  C   C379      1.0  0.80941  0.16272  0.07696  1.0000
  C   C380      1.0  0.78661  0.18170  0.12933  1.0000
  C   C381      1.0  0.83360  0.10024  0.09340  1.0000
  C   C382      1.0  0.67752  0.01976  0.28161  1.0000
  S   S125      1.0  0.96294  0.00018  0.27103  1.0000
  H   H607      1.0  0.78488  0.13200  0.13336  1.0000
  H   H608      1.0  0.82157  0.14791  0.12464  1.0000
  C   C383      1.0  0.52073  0.09831  0.15956  1.0000
  H   H609      1.0  0.78527  0.09247  0.10282  1.0000
  H   H610      1.0  0.74224  0.13917  0.10625  1.0000
  H   H611      1.0  0.75109  0.17004  0.08524  1.0000
  C   C384      1.0  0.60199  0.05271  0.30940  1.0000
  H   H612      1.0  0.83409  0.16379  0.08264  1.0000
  H   H613      1.0  0.76163  0.18578  0.12660  1.0000
  H   H614      1.0  0.79093  0.18391  0.14978  1.0000
  H   H615      1.0  0.80064  0.20022  0.12003  1.0000
  Fe  Fe62      1.0  0.54356  0.00648  0.26761  1.0000
  C   C385      1.0  0.94122  0.18222  0.20368  1.0000
  H   H616      1.0  0.84093  0.10343  0.11313  1.0000
  H   H617      1.0  0.83112  0.29089  0.32491  1.0000
  C   C386      1.0  0.94369  0.28615  0.19540  1.0000
  H   H618      1.0  0.84905  0.11404  0.08071  1.0000
  H   H619      1.0  0.52243  0.20082  0.20951  1.0000
  H   H620      1.0  0.84211  0.09570  0.30097  1.0000
  S   S126      1.0  0.52758  0.48428  0.27460  1.0000
  H   H621      1.0  0.96564  0.28862  0.18448  1.0000
  H   H622      1.0  0.71706  0.13435  0.06519  1.0000
  H   H623      1.0  0.50348  0.08950  0.30873  1.0000
  H   H624      1.0  0.79330  0.09904  0.07073  1.0000
  H   H625      1.0  0.63789  0.38661  0.30489  1.0000
  N   N28       1.0  0.72681  0.03267  0.30713  1.0000
  H   H626      1.0  0.86346  0.23067  0.17642  1.0000
  C   C387      1.0  0.63979  0.47160  0.32829  1.0000
  C   C388      1.0  0.52772  0.15366  0.02107  1.0000
  C   C389      1.0  0.74269  0.06033  0.31894  1.0000
  C   C390      1.0  0.51907  0.33581  0.13604  1.0000
  H   H627      1.0  0.56030  0.15123  0.25099  1.0000
  H   H628      1.0  0.50590  0.07902  0.16519  1.0000
  C   C391      1.0  0.51122  0.11916  0.14087  1.0000
  H   H629      1.0  0.93527  0.39090  0.11546  1.0000
  C   C392      1.0  0.52861  0.38981  0.31834  1.0000
  C   C393      1.0  0.88588  0.43720  0.32329  1.0000
  S   S127      1.0  0.98240  0.38426  0.18983  1.0000
  Fe  Fe63      1.0  0.92835  0.03459  0.25664  1.0000
  H   H630      1.0  0.97446  0.10175  0.12327  1.0000
  H   H631      1.0  0.54367  0.16958  0.01052  1.0000
  H   H632      1.0  0.83569  0.34301  0.31804  1.0000
  H   H633      1.0  0.74669  0.02452  0.26991  1.0000
  H   H634      1.0  0.78409  0.31778  0.31972  1.0000
  H   H635      1.0  0.74081  0.47257  0.30496  1.0000
  H   H636      1.0  0.80200  0.18703  0.07964  1.0000
  S   S128      1.0  0.92148  0.01023  0.21932  1.0000
  H   H637      1.0  0.93446  0.18598  0.22366  1.0000
  H   H638      1.0  0.68524  0.06009  0.30485  1.0000
  H   H639      1.0  0.51875  0.13690  0.00720  1.0000
  C   C394      1.0  0.93505  0.25189  0.20057  1.0000
  H   H640      1.0  0.83736  0.07545  0.08877  1.0000
  C   C395      1.0  0.50312  0.17314  0.03518  1.0000
  H   H641      1.0  0.51203  0.17647  0.05455  1.0000
  H   H642      1.0  0.57127  0.41283  0.32815  1.0000
  Fe  Fe64      1.0  0.50827  0.43554  0.21532  1.0000
  H   H643      1.0  0.91769  0.26684  0.15088  1.0000
  H   H644      1.0  0.95453  0.43156  0.16049  1.0000
  H   H645      1.0  0.89739  0.20214  0.19638  1.0000
  H   H646      1.0  0.98176  0.22793  0.17746  1.0000
  C   C396      1.0  0.93291  0.48554  0.14206  1.0000
  C   C397      1.0  0.75007  0.45691  0.31929  1.0000
  H   H647      1.0  0.97213  0.41796  0.13231  1.0000
  H   H648      1.0  0.53039  0.37010  0.33153  1.0000
  C   C398      1.0  0.71418  0.01190  0.32781  1.0000
  H   H649      1.0  0.89517  0.39247  0.10885  1.0000
  H   H650      1.0  0.54257  0.14147  0.03462  1.0000
  S   S129      1.0  0.95739  0.49543  0.25994  1.0000
  C   C399      1.0  0.96468  0.43937  0.14216  1.0000
  C   C400      1.0  0.87614  0.25208  0.17058  1.0000
  H   H651      1.0  0.89260  0.44733  0.11764  1.0000
  H   H652      1.0  0.91396  0.18526  0.16977  1.0000
  C   C401      1.0  0.90853  0.24505  0.15963  1.0000
  C   C402      1.0  0.93338  0.47952  0.08279  1.0000
  H   H653      1.0  0.96679  0.18022  0.15448  1.0000
  C   C403      1.0  0.74772  0.01503  0.28934  1.0000
  H   H654      1.0  0.54419  0.11756  0.23672  1.0000
  C   C404      1.0  0.74112  0.12627  0.06774  1.0000
  H   H655      1.0  0.53906  0.38215  0.30020  1.0000
  N   N29       1.0  0.68593  0.32140  0.09890  1.0000
  C   C405      1.0  0.71646  0.31536  0.08565  1.0000
  C   C406      1.0  0.66072  0.31416  0.08039  1.0000
  C   C407      1.0  0.68312  0.29984  0.12123  1.0000
  C   C408      1.0  0.68613  0.35486  0.10723  1.0000
  C   C409      1.0  0.74545  0.31545  0.10230  1.0000
  C   C410      1.0  0.66081  0.33440  0.05652  1.0000
  C   C411      1.0  0.65032  0.29284  0.13180  1.0000
  C   C412      1.0  0.65576  0.36774  0.11835  1.0000
  H   H656      1.0  0.71575  0.29257  0.07581  1.0000
  H   H657      1.0  0.72125  0.33283  0.07065  1.0000
  H   H658      1.0  0.63730  0.31610  0.08890  1.0000
  H   H659      1.0  0.66205  0.28945  0.07429  1.0000
  H   H660      1.0  0.69258  0.27668  0.11636  1.0000
  H   H661      1.0  0.69722  0.30868  0.13714  1.0000
  H   H662      1.0  0.70376  0.35874  0.12196  1.0000
  H   H663      1.0  0.69406  0.37068  0.09182  1.0000
  H   H664      1.0  0.76618  0.31155  0.09013  1.0000
  H   H665      1.0  0.74915  0.33794  0.11198  1.0000
  H   H666      1.0  0.74473  0.29628  0.11620  1.0000
  H   H667      1.0  0.65886  0.35940  0.06104  1.0000
  H   H668      1.0  0.68142  0.33031  0.04439  1.0000
  H   H669      1.0  0.63707  0.31378  0.13648  1.0000
  H   H670      1.0  0.65212  0.27907  0.14933  1.0000
  H   H671      1.0  0.63693  0.27828  0.11852  1.0000
  H   H672      1.0  0.65438  0.36410  0.13900  1.0000
  H   H673      1.0  0.63460  0.35820  0.10968  1.0000
  H   H674      1.0  0.65491  0.39307  0.11465  1.0000
  H   H675      1.0  0.54494  0.43621  0.31198  1.0000
  H   H676      1.0  0.94163  0.47352  0.06354  1.0000
  H   H677      1.0  0.91362  0.25133  0.21245  1.0000
  H   H678      1.0  0.51302  0.17991  0.24851  1.0000
  S   S130      1.0  0.96109  0.25290  0.02267  1.0000
  C   C413      1.0  0.51400  0.37886  0.16595  1.0000
  H   H679      1.0  0.52736  0.04057  0.31550  1.0000
  H   H680      1.0  0.90505  0.42734  0.14432  1.0000
  H   H681      1.0  0.98172  0.01809  0.12548  1.0000
  H   H682      1.0  0.73940  0.10127  0.07265  1.0000
  H   H683      1.0  0.96601  0.18846  0.20137  1.0000
  H   H684      1.0  0.95337  0.24273  0.21292  1.0000
  H   H685      1.0  0.51222  0.14750  0.19205  1.0000
  H   H686      1.0  0.72972  0.44272  0.32565  1.0000
  Fe  Fe65      1.0  0.96026  0.49485  0.21761  1.0000
  C   C414      1.0  0.84529  0.07508  0.31213  1.0000
  H   H687      1.0  0.55552  0.40596  0.17169  1.0000
  H   H688      1.0  0.70748  0.05917  0.27659  1.0000
  H   H689      1.0  0.88213  0.48600  0.14563  1.0000
  H   H690      1.0  0.90939  0.44568  0.32053  1.0000
  H   H691      1.0  0.98734  0.20626  0.13393  1.0000
  H   H692      1.0  0.76699  0.44114  0.31033  1.0000
  C   C415      1.0  0.54644  0.41897  0.32737  1.0000
  C   C416      1.0  0.96550  0.20305  0.14497  1.0000
  H   H693      1.0  0.88739  0.00920  0.31280  1.0000
  C   C417      1.0  0.78256  0.01436  0.29561  1.0000
  C   C418      1.0  0.63839  0.41041  0.31137  1.0000
  H   H694      1.0  0.96621  0.44441  0.09322  1.0000
  H   H695      1.0  0.92203  0.41256  0.08870  1.0000
  H   H696      1.0  0.97437  0.48177  0.10435  1.0000
  C   C419      1.0  0.50104  0.35341  0.15299  1.0000
  H   H697      1.0  0.79367  0.47877  0.28880  1.0000
  H   H698      1.0  0.78724  0.00697  0.31503  1.0000
  C   C420      1.0  0.50304  0.04205  0.32255  1.0000
  H   H699      1.0  0.60755  0.48050  0.29847  1.0000
  H   H700      1.0  0.93301  0.48080  0.16264  1.0000
  H   H701      1.0  0.66163  0.03108  0.26832  1.0000
  C   C421      1.0  0.65710  0.41877  0.33182  1.0000
  C   C422      1.0  0.82478  0.41555  0.33086  1.0000
  H   H702      1.0  0.50173  0.10230  0.21635  1.0000
  H   H703      1.0  0.83261  0.49253  0.28776  1.0000
  H   H704      1.0  0.87286  0.33712  0.33038  1.0000
  H   H705      1.0  0.56036  0.48339  0.32275  1.0000
  H   H706      1.0  0.98783  0.33935  0.15019  1.0000
  H   H707      1.0  0.50526  0.20136  0.17930  1.0000
  H   H708      1.0  0.94628  0.20231  0.13146  1.0000
  C   C423      1.0  0.50089  0.19505  0.19932  1.0000
  H   H709      1.0  0.66247  0.00895  0.29636  1.0000
  H   H710      1.0  0.50565  0.14382  0.26330  1.0000
  C   C424      1.0  0.99476  0.45756  0.14820  1.0000
  H   H711      1.0  0.69013  0.00160  0.27108  1.0000
  S   S131      1.0  0.54781  0.23676  0.99952  1.0000
  Fe  Fe66      1.0  0.77093  0.06798  0.39212  1.0000
  S   S132      1.0  0.72621  0.04324  0.40287  1.0000
  C   C425      1.0  0.72744  0.02001  0.49926  1.0000
  Fe  Fe67      1.0  0.74835  0.13148  0.41198  1.0000
  S   S133      1.0  0.70235  0.11081  0.42411  1.0000
  S   S134      1.0  0.76704  0.18068  0.42008  1.0000
  Fe  Fe68      1.0  0.72898  0.07008  0.43932  1.0000
  S   S135      1.0  0.72283  0.05414  0.48063  1.0000
  Fe  Fe69      1.0  0.70345  0.08544  0.38682  1.0000
  S   S136      1.0  0.66555  0.08906  0.35734  1.0000
  S   S137      1.0  0.77489  0.09248  0.42922  1.0000
  S   S138      1.0  0.74835  0.10852  0.37398  1.0000
  Fe  Fe70      1.0  0.73636  0.41740  0.44096  1.0000
  S   S139      1.0  0.69527  0.39883  0.41960  1.0000
  S   S140      1.0  0.72884  0.42622  0.48325  1.0000
  Fe  Fe71      1.0  0.77892  0.40991  0.39447  1.0000
  S   S141      1.0  0.74102  0.39111  0.37011  1.0000
  S   S142      1.0  0.82956  0.41500  0.38272  1.0000
  Fe  Fe72      1.0  0.71209  0.42852  0.38747  1.0000
  S   S143      1.0  0.68088  0.46105  0.36613  1.0000
  Fe  Fe73      1.0  0.72720  0.36249  0.40409  1.0000
  S   S144      1.0  0.70796  0.31314  0.39960  1.0000
  S   S145      1.0  0.75119  0.44976  0.40978  1.0000
  S   S146      1.0  0.76717  0.37871  0.42734  1.0000
  C   C426      1.0  0.74967  0.21715  0.41476  1.0000
  C   C427      1.0  0.72228  0.21994  0.40134  1.0000
  C   C428      1.0  0.70991  0.24949  0.39689  1.0000
  C   C429      1.0  0.72472  0.27659  0.40572  1.0000
  C   C430      1.0  0.75182  0.27382  0.41952  1.0000
  C   C431      1.0  0.76428  0.24428  0.42389  1.0000
  H   H712      1.0  0.71073  0.19933  0.39424  1.0000
  H   H713      1.0  0.68875  0.25131  0.38640  1.0000
  H   H714      1.0  0.76314  0.29439  0.42685  1.0000
  H   H715      1.0  0.78537  0.24234  0.43443  1.0000
  H   H716      1.0  0.86309  0.00603  0.46791  1.0000
  C   C432      1.0  0.73611  0.46011  0.50199  1.0000
  C   C433      1.0  0.72667  0.46015  0.52747  1.0000
  C   C434      1.0  0.85336  0.02215  0.34113  1.0000
  H   H717      1.0  0.71493  0.43991  0.53522  1.0000
  H   H718      1.0  0.93129  0.46997  0.66246  1.0000
  C   C435      1.0  0.76933  0.31887  0.33688  1.0000
  H   H719      1.0  0.77649  0.01544  0.45831  1.0000
  H   H720      1.0  0.74564  0.47510  0.35690  1.0000
  H   H721      1.0  0.85837  0.00911  0.40989  1.0000
  H   H722      1.0  0.67090  0.40149  0.34094  1.0000
  H   H723      1.0  0.82356  0.34967  0.39708  1.0000
  H   H724      1.0  0.72489  0.48571  0.56264  1.0000
  H   H725      1.0  0.64829  0.02360  0.36668  1.0000
  H   H726      1.0  0.64038  0.49542  0.33471  1.0000
  N   N30       1.0  0.81423  0.29785  0.36293  1.0000
  H   H727      1.0  0.52567  0.06549  0.37878  1.0000
  H   H728      1.0  0.85348  0.04217  0.43051  1.0000
  H   H729      1.0  0.78057  0.45703  0.35049  1.0000
  C   C436      1.0  0.53555  0.40864  0.37257  1.0000
  H   H730      1.0  0.57292  0.37751  0.35954  1.0000
  C   C437      1.0  0.65784  0.44943  0.34041  1.0000
  H   H731      1.0  0.75879  0.48707  0.47292  1.0000
  C   C438      1.0  0.79965  0.26589  0.36011  1.0000
  C   C439      1.0  0.63555  0.03182  0.35074  1.0000
  H   H732      1.0  0.90241  0.45324  0.64284  1.0000
  H   H733      1.0  0.56343  0.37504  0.39216  1.0000
  H   H734      1.0  0.55464  0.46558  0.37902  1.0000
  H   H735      1.0  0.77208  0.31825  0.37728  1.0000
  H   H736      1.0  0.80597  0.47763  0.38235  1.0000
  H   H737      1.0  0.52268  0.00658  0.37818  1.0000
  H   H738      1.0  0.82436  0.23579  0.38632  1.0000
  H   H739      1.0  0.84790  0.28338  0.39026  1.0000
  C   C440      1.0  0.52706  0.01960  0.36040  1.0000
  H   H740      1.0  0.81093  0.29199  0.40321  1.0000
  C   C441      1.0  0.63927  0.06263  0.34290  1.0000
  H   H741      1.0  0.73014  0.04593  0.53385  1.0000
  H   H742      1.0  0.86209  0.33834  0.38636  1.0000
  H   H743      1.0  0.51691  0.39091  0.36961  1.0000
  C   C442      1.0  0.81162  0.04232  0.47622  1.0000
  H   H744      1.0  0.84850  0.32936  0.41712  1.0000
  H   H745      1.0  0.80864  0.21636  0.35987  1.0000
  C   C443      1.0  0.56628  0.39149  0.37621  1.0000
  H   H746      1.0  0.75478  0.33973  0.33532  1.0000
  C   C444      1.0  0.84348  0.42105  0.35164  1.0000
  C   C445      1.0  0.84780  0.33593  0.33534  1.0000
  H   H747      1.0  0.77869  0.26331  0.37240  1.0000
  H   H748      1.0  0.80142  0.40672  0.33360  1.0000
  C   C446      1.0  0.55795  0.45856  0.35903  1.0000
  H   H749      1.0  0.52991  0.41944  0.39104  1.0000
  H   H750      1.0  0.83583  0.05075  0.47378  1.0000
  N   N31       1.0  0.53577  0.43266  0.35202  1.0000
  C   C447      1.0  0.82056  0.23816  0.36582  1.0000
  H   H751      1.0  0.58234  0.45065  0.35765  1.0000
  H   H752      1.0  0.88891  0.43541  0.36372  1.0000
  N   N32       1.0  0.68981  0.32235  0.47947  1.0000
  C   C448      1.0  0.71965  0.33855  0.47120  1.0000
  C   C449      1.0  0.66398  0.33637  0.46460  1.0000
  C   C450      1.0  0.69061  0.28860  0.47200  1.0000
  C   C451      1.0  0.68392  0.32577  0.50731  1.0000
  C   C452      1.0  0.74577  0.34116  0.49062  1.0000
  C   C453      1.0  0.65292  0.36847  0.47363  1.0000
  C   C454      1.0  0.71736  0.26960  0.48244  1.0000
  C   C455      1.0  0.65395  0.31011  0.51769  1.0000
  H   H753      1.0  0.72929  0.32755  0.45390  1.0000
  H   H754      1.0  0.71566  0.36284  0.46535  1.0000
  H   H755      1.0  0.64317  0.32083  0.46402  1.0000
  H   H756      1.0  0.67110  0.33865  0.44442  1.0000
  H   H757      1.0  0.66866  0.27635  0.47747  1.0000
  H   H758      1.0  0.69192  0.28637  0.45114  1.0000
  H   H759      1.0  0.70295  0.31575  0.51828  1.0000
  H   H760      1.0  0.68445  0.35063  0.51310  1.0000
  H   H761      1.0  0.75172  0.31867  0.49908  1.0000
  H   H762      1.0  0.76703  0.35062  0.48122  1.0000
  H   H763      1.0  0.73964  0.35791  0.50572  1.0000
  H   H764      1.0  0.67230  0.38510  0.47688  1.0000
  H   H765      1.0  0.63800  0.37868  0.45909  1.0000
  H   H766      1.0  0.63878  0.36646  0.49114  1.0000
  H   H767      1.0  0.71791  0.26993  0.50323  1.0000
  H   H768      1.0  0.73996  0.27735  0.47433  1.0000
  H   H769      1.0  0.71417  0.24499  0.47659  1.0000
  H   H770      1.0  0.65855  0.28612  0.52411  1.0000
  H   H771      1.0  0.63503  0.30905  0.50395  1.0000
  H   H772      1.0  0.64490  0.32383  0.53382  1.0000
  C   C456      1.0  0.50338  0.44439  0.34902  1.0000
  H   H773      1.0  0.80819  0.03166  0.49502  1.0000
  H   H774      1.0  0.58558  0.40762  0.38098  1.0000
  H   H775      1.0  0.88918  0.02220  0.42920  1.0000
  S   S147      1.0  0.80974  0.03753  0.37709  1.0000
  H   H776      1.0  0.56184  0.04618  0.38051  1.0000
  C   C457      1.0  0.73048  0.02304  0.52550  1.0000
  C   C458      1.0  0.78853  0.32099  0.36107  1.0000
  H   H777      1.0  0.66123  0.00868  0.53517  1.0000
  H   H778      1.0  0.79671  0.06306  0.47606  1.0000
  C   C459      1.0  0.64950  0.01741  0.55238  1.0000
  H   H779      1.0  0.80260  0.03316  0.43688  1.0000
  H   H780      1.0  0.73733  0.99976  0.56107  1.0000
  C   C460      1.0  0.87418  0.43143  0.34774  1.0000
  C   C461      1.0  0.82824  0.29958  0.38872  1.0000
  C   C462      1.0  0.86366  0.01883  0.42867  1.0000
  C   C463      1.0  0.80155  0.02019  0.45492  1.0000
  H   H781      1.0  0.50628  0.08780  0.34211  1.0000
  C   C464      1.0  0.90758  0.45977  0.66255  1.0000
  C   C465      1.0  0.84111  0.33129  0.39729  1.0000
  H   H782      1.0  0.72719  0.07081  0.33341  1.0000
  H   H783      1.0  0.50383  0.48096  0.37849  1.0000
  H   H784      1.0  0.79124  0.26215  0.34065  1.0000
  C   C466      1.0  0.83177  0.04432  0.34911  1.0000
  H   H785      1.0  0.61270  0.00541  0.57889  1.0000
  H   H786      1.0  0.81182  0.08838  0.34067  1.0000
  H   H787      1.0  0.69808  0.02508  0.34020  1.0000
  H   H788      1.0  0.75406  0.01376  0.35349  1.0000
  H   H789      1.0  0.63787  0.03921  0.54712  1.0000
  C   C467      1.0  0.83882  0.30215  0.34267  1.0000
  C   C468      1.0  0.54199  0.05076  0.36807  1.0000
  H   H790      1.0  0.84410  0.35351  0.35008  1.0000
  C   C469      1.0  0.75128  0.48659  0.49238  1.0000
  H   H791      1.0  0.79705  0.34528  0.36248  1.0000
  H   H792      1.0  0.84304  0.23968  0.35556  1.0000
  C   C470      1.0  0.55661  0.48825  0.34293  1.0000
  H   H793      1.0  0.75314  0.29859  0.33753  1.0000
  C   C471      1.0  0.76417  0.47360  0.34223  1.0000
  H   H794      1.0  0.55183  0.06336  0.35154  1.0000
  C   C472      1.0  0.73228  0.48617  0.54313  1.0000
  H   H795      1.0  0.85654  0.00150  0.35224  1.0000
  N   N33       1.0  0.49796  0.02113  0.34513  1.0000
  H   H796      1.0  0.66722  0.02373  0.56641  1.0000
  C   C473      1.0  0.82797  0.07093  0.33457  1.0000
  C   C474      1.0  0.61532  0.01154  0.33783  1.0000
  H   H797      1.0  0.86042  0.29015  0.34790  1.0000
  H   H798      1.0  0.54529  0.00652  0.35008  1.0000
  H   H799      1.0  0.65029  0.01043  0.60776  1.0000
  C   C475      1.0  0.73800  0.99674  0.34490  1.0000
  C   C476      1.0  0.85344  0.99663  0.45013  1.0000
  C   C477      1.0  0.73445  0.99683  0.54105  1.0000
  H   H800      1.0  0.50205  0.46012  0.33248  1.0000
  H   H801      1.0  0.57415  0.04593  0.82251  1.0000
  H   H802      1.0  0.89058  0.47764  0.66801  1.0000
  H   H803      1.0  0.59641  0.48793  0.76226  1.0000
  C   C478      1.0  0.58058  0.43994  0.77103  1.0000
  C   C479      1.0  0.50371  0.29683  0.88142  1.0000
  C   C480      1.0  0.55436  0.00746  0.78144  1.0000
  C   C481      1.0  0.59005  0.06902  0.78840  1.0000
  H   H804      1.0  0.97483  0.06217  0.73826  1.0000
  H   H805      1.0  0.51970  0.28097  0.89101  1.0000
  H   H806      1.0  0.90628  0.01922  0.71429  1.0000
  H   H807      1.0  0.92245  0.05357  0.77794  1.0000
  C   C482      1.0  0.95348  0.22971  0.97371  1.0000
  H   H808      1.0  0.55617  0.06648  0.74726  1.0000
  H   H809      1.0  0.95349  0.44745  0.72845  1.0000
  H   H810      1.0  0.97938  0.11409  0.75504  1.0000
  H   H811      1.0  0.89955  0.48266  0.70955  1.0000
  C   C483      1.0  0.59317  0.46517  0.75284  1.0000
  H   H812      1.0  0.89748  0.09569  0.77237  1.0000
  C   C484      1.0  0.98535  0.35092  0.91598  1.0000
  H   H813      1.0  0.56182  0.37838  0.78058  1.0000
  C   C485      1.0  0.51875  0.02307  0.81474  1.0000
  H   H814      1.0  0.53123  0.43894  0.72045  1.0000
  H   H815      1.0  0.96329  0.35878  0.90770  1.0000
  H   H816      1.0  0.94665  0.01738  0.71914  1.0000
  H   H817      1.0  0.56919  0.47481  0.80933  1.0000
  H   H818      1.0  0.59798  0.05230  0.77406  1.0000
  H   H819      1.0  0.88081  0.44375  0.75565  1.0000
  H   H820      1.0  0.87397  0.02468  0.75822  1.0000
  H   H821      1.0  0.87316  0.11491  0.75106  1.0000
  C   C486      1.0  0.52624  0.42587  0.73810  1.0000
  H   H822      1.0  0.95675  0.08955  0.71852  1.0000
  H   H823      1.0  0.61628  0.45833  0.74552  1.0000
  H   H824      1.0  0.96066  0.26705  0.88953  1.0000
  H   H825      1.0  0.91513  0.37508  0.75199  1.0000
  H   H826      1.0  0.52681  0.47229  0.75251  1.0000
  H   H827      1.0  0.59716  0.43834  0.78680  1.0000
  H   H828      1.0  0.49702  0.28538  0.86355  1.0000
  H   H829      1.0  0.53161  0.00935  0.82868  1.0000
  C   C487      1.0  0.92764  0.03390  0.71567  1.0000
  H   H830      1.0  0.97537  0.43263  0.67592  1.0000
  C   C488      1.0  0.94636  0.44470  0.70862  1.0000
  H   H831      1.0  0.61081  0.07393  0.79991  1.0000
  N   N34       1.0  0.92493  0.05699  0.73696  1.0000
  H   H832      1.0  0.51490  0.42182  0.80604  1.0000
  C   C489      1.0  0.92346  0.03861  0.76107  1.0000
  C   C490      1.0  0.95399  0.07694  0.73664  1.0000
  C   C491      1.0  0.89654  0.07625  0.73294  1.0000
  H   H833      1.0  0.49836  0.47806  0.80230  1.0000
  H   H834      1.0  0.94945  0.39065  0.73759  1.0000
  H   H835      1.0  0.88106  0.40197  0.72464  1.0000
  H   H836      1.0  0.87921  0.48466  0.75108  1.0000
  C   C492      1.0  0.90441  0.43066  0.67932  1.0000
  H   H837      1.0  0.51280  0.35899  0.90643  1.0000
  H   H838      1.0  0.86106  0.07836  0.76300  1.0000
  H   H839      1.0  0.51613  0.31864  0.87634  1.0000
  C   C493      1.0  0.50154  0.04788  0.83029  1.0000
  H   H840      1.0  0.96591  0.29327  0.86384  1.0000
  H   H841      1.0  0.90162  0.09486  0.71890  1.0000
  H   H842      1.0  0.87777  0.06159  0.72465  1.0000
  C   C494      1.0  0.97285  0.24475  0.99090  1.0000
  C   C495      1.0  0.89252  0.46363  0.74607  1.0000
  H   H843      1.0  0.52096  0.38233  0.77325  1.0000
  H   H844      1.0  0.58326  0.09087  0.77907  1.0000
  H   H845      1.0  0.51527  0.07624  0.78241  1.0000
  C   C496      1.0  0.51348  0.22715  0.95667  1.0000
  H   H846      1.0  0.94754  0.30612  0.89276  1.0000
  C   C497      1.0  0.96613  0.29162  0.88466  1.0000
  H   H847      1.0  0.93033  0.22266  0.97953  1.0000
  H   H848      1.0  0.59424  0.00118  0.80647  1.0000
  H   H849      1.0  0.93901  0.12063  0.75418  1.0000
  C   C498      1.0  0.53278  0.05583  0.74836  1.0000
  C   C499      1.0  0.90608  0.40396  0.71938  1.0000
  H   H850      1.0  0.53515  0.21982  0.94832  1.0000
  H   H851      1.0  0.54326  0.40721  0.73938  1.0000
  H   H852      1.0  0.92939  0.02909  0.67495  1.0000
  C   C500      1.0  0.54910  0.47447  0.79642  1.0000
  H   H853      1.0  0.94522  0.02557  0.76340  1.0000
  H   H854      1.0  0.51918  0.46627  0.82980  1.0000
  H   H855      1.0  0.57815  0.46798  0.73631  1.0000
  H   H856      1.0  0.53276  0.03318  0.73838  1.0000
  C   C501      1.0  0.52025  0.05241  0.77555  1.0000
  H   H857      1.0  0.50318  0.41452  0.73567  1.0000
  N   N35       1.0  0.53997  0.03519  0.79402  1.0000
  H   H858      1.0  0.96418  0.34750  0.95337  1.0000
  H   H859      1.0  0.49723  0.04062  0.77364  1.0000
  H   H860      1.0  0.95856  0.31332  0.93511  1.0000
  C   C502      1.0  0.56368  0.05658  0.80565  1.0000
  C   C503      1.0  0.50378  0.31326  0.93533  1.0000
  H   H861      1.0  0.94896  0.21166  0.93599  1.0000
  C   C504      1.0  0.51275  0.23662  0.98204  1.0000
  H   H862      1.0  0.95762  0.05567  0.68655  1.0000
  H   H863      1.0  0.96143  0.39928  0.69347  1.0000
  H   H864      1.0  0.91613  0.46728  0.75339  1.0000
  H   H865      1.0  0.58294  0.41763  0.76102  1.0000
  H   H866      1.0  0.49907  0.28868  0.94056  1.0000
  C   C505      1.0  0.50962  0.33100  0.96006  1.0000
  H   H867      1.0  0.95007  0.46856  0.70117  1.0000
  H   H868      1.0  0.55229  0.07760  0.81338  1.0000
  C   C506      1.0  0.88183  0.09175  0.75643  1.0000
  C   C507      1.0  0.52482  0.44860  0.76067  1.0000
  H   H869      1.0  0.56858  0.01399  0.76472  1.0000
  H   H870      1.0  0.92562  0.41473  0.75713  1.0000
  H   H871      1.0  0.51192  0.35639  0.95719  1.0000
  C   C508      1.0  0.53890  0.41865  0.79863  1.0000
  N   N36       1.0  0.54820  0.44483  0.78113  1.0000
  C   C509      1.0  0.96417  0.22350  0.94896  1.0000
  C   C510      1.0  0.89257  0.45968  0.71736  1.0000
  H   H872      1.0  0.51711  0.07106  0.73776  1.0000
  N   N37       1.0  0.91295  0.43473  0.70659  1.0000
  C   C511      1.0  0.97565  0.33193  0.93958  1.0000
  H   H873      1.0  0.91832  0.41222  0.67014  1.0000
  C   C512      1.0  0.96982  0.42361  0.69504  1.0000
  H   H874      1.0  0.53234  0.36901  0.80305  1.0000
  C   C513      1.0  0.53884  0.38553  0.78775  1.0000
  H   H875      1.0  0.53162  0.32292  0.96821  1.0000
  H   H876      1.0  0.90988  0.38414  0.70627  1.0000
  H   H877      1.0  0.86800  0.45585  0.71185  1.0000
  H   H878      1.0  0.97430  0.34710  0.86635  1.0000
  H   H879      1.0  0.95503  0.09296  0.77626  1.0000
  C   C514      1.0  0.89650  0.01481  0.76336  1.0000
  H   H880      1.0  0.91718  0.06655  0.68481  1.0000
  H   H881      1.0  0.99147  0.42279  0.70599  1.0000
  H   H882      1.0  0.55424  0.41866  0.81529  1.0000
  C   C515      1.0  0.52012  0.48113  0.81278  1.0000
  C   C516      1.0  0.92520  0.39615  0.74282  1.0000
  H   H883      1.0  0.52637  0.31332  0.92501  1.0000
  H   H884      1.0  0.89457  0.00663  0.78312  1.0000
  H   H885      1.0  0.55254  0.49511  0.78403  1.0000
  C   C517      1.0  0.93325  0.04761  0.68916  1.0000
  H   H886      1.0  0.50092  0.00684  0.80695  1.0000
  H   H887      1.0  0.87991  0.42230  0.67792  1.0000
  H   H888      1.0  0.51733  0.05998  0.84347  1.0000
  C   C518      1.0  0.95637  0.10235  0.75690  1.0000
  H   H889      1.0  0.50091  0.44733  0.76866  1.0000
  C   C519      1.0  0.99433  0.23214  0.94090  1.0000
  H   H890      1.0  0.82782  0.65412  0.03529  1.0000
  H   H891      1.0  0.96250  0.95942  0.17706  1.0000
  H   H892      1.0  0.98032  0.58726  0.25674  1.0000
  C   C520      1.0  0.52344  0.88479  0.08193  1.0000
  S   S148      1.0  0.95970  0.92480  0.22637  1.0000
  C   C521      1.0  0.49999  0.83214  0.04562  1.0000
  S   S149      1.0  0.96155  0.53365  0.18788  1.0000
  Fe  Fe74      1.0  0.55675  0.70003  0.13513  1.0000
  S   S150      1.0  0.58907  0.69820  0.10170  1.0000
  S   S151      1.0  0.53215  0.65280  0.14054  1.0000
  Fe  Fe75      1.0  0.57002  0.77052  0.14224  1.0000
  S   S152      1.0  0.60298  0.77172  0.10892  1.0000
  S   S153      1.0  0.57139  0.81578  0.16525  1.0000
  Fe  Fe76      1.0  0.56655  0.74235  0.08947  1.0000
  S   S154      1.0  0.55403  0.74938  0.04801  1.0000
  Fe  Fe77      1.0  0.62242  0.72744  0.12404  1.0000
  S   S155      1.0  0.67171  0.71266  0.13435  1.0000
  S   S156      1.0  0.53264  0.74330  0.12185  1.0000
  S   S157      1.0  0.59094  0.72720  0.15822  1.0000
  Fe  Fe78      1.0  0.92792  0.73124  0.09571  1.0000
  S   S158      1.0  0.94250  0.74210  0.13556  1.0000
  S   S159      1.0  0.96372  0.71761  0.06517  1.0000
  Fe  Fe79      1.0  0.85804  0.73285  0.11043  1.0000
  S   S160      1.0  0.86855  0.74312  0.15070  1.0000
  S   S161      1.0  0.81027  0.73490  0.09205  1.0000
  Fe  Fe80      1.0  0.90435  0.77753  0.13620  1.0000
  S   S162      1.0  0.89969  0.82901  0.14754  1.0000
  Fe  Fe81      1.0  0.90564  0.70671  0.14708  1.0000
  S   S163      1.0  0.90904  0.67168  0.17953  1.0000
  S   S164      1.0  0.89231  0.76863  0.09558  1.0000
  S   S165      1.0  0.89273  0.69429  0.10750  1.0000
  H   H893      1.0  0.54290  0.67027  0.02927  1.0000
  C   C522      1.0  0.54706  0.89903  0.19611  1.0000
  H   H894      1.0  0.69209  0.64817  0.17823  1.0000
  H   H895      1.0  0.71290  0.62250  0.15836  1.0000
  C   C523      1.0  0.54871  0.84765  0.17601  1.0000
  S   S166      1.0  0.53528  0.55288  0.22960  1.0000
  C   C524      1.0  0.52739  0.83273  0.06387  1.0000
  C   C525      1.0  0.92849  0.66603  0.01659  1.0000
  H   H896      1.0  0.97242  0.91164  0.15890  1.0000
  C   C526      1.0  0.51666  0.84887  0.17275  1.0000
  H   H897      1.0  0.90934  0.67903  0.05261  1.0000
  C   C527      1.0  0.89363  0.72729  0.02358  1.0000
  H   H898      1.0  0.88895  0.64919  0.03641  1.0000
  H   H899      1.0  0.49742  0.61723  0.08100  1.0000
  C   C528      1.0  0.71004  0.72056  0.12269  1.0000
  C   C529      1.0  0.71596  0.73616  0.10003  1.0000
  C   C530      1.0  0.74672  0.74048  0.09110  1.0000
  C   C531      1.0  0.77204  0.72971  0.10480  1.0000
  C   C532      1.0  0.76617  0.71469  0.12772  1.0000
  C   C533      1.0  0.73539  0.70998  0.13648  1.0000
  H   H900      1.0  0.69682  0.74436  0.08914  1.0000
  H   H901      1.0  0.75088  0.75210  0.07334  1.0000
  H   H902      1.0  0.78528  0.70611  0.13847  1.0000
  H   H903      1.0  0.73119  0.69789  0.15402  1.0000
  H   H904      1.0  0.58432  0.87557  0.09391  1.0000
  H   H905      1.0  0.77226  0.82587  0.10987  1.0000
  C   C534      1.0  0.51504  0.90029  0.19281  1.0000
  C   C535      1.0  0.80902  0.49791  0.29498  1.0000
  H   H906      1.0  0.94700  0.88708  0.12473  1.0000
  H   H907      1.0  0.51515  0.54873  0.17696  1.0000
  H   H908      1.0  0.54342  0.85347  0.12457  1.0000
  C   C536      1.0  0.94514  0.57129  0.18570  1.0000
  C   C537      1.0  0.93036  0.58564  0.20608  1.0000
  C   C538      1.0  0.91942  0.61622  0.20376  1.0000
  C   C539      1.0  0.92286  0.63287  0.18106  1.0000
  C   C540      1.0  0.93752  0.61840  0.16065  1.0000
  C   C541      1.0  0.94869  0.58792  0.16303  1.0000
  H   H909      1.0  0.92761  0.57336  0.22370  1.0000
  H   H910      1.0  0.90819  0.62714  0.21969  1.0000
  H   H911      1.0  0.94056  0.63087  0.14313  1.0000
  H   H912      1.0  0.54425  0.63331  0.04572  1.0000
  C   C542      1.0  0.51816  0.74852  0.03163  1.0000
  C   C543      1.0  0.94205  0.89835  0.20479  1.0000
  C   C544      1.0  0.95364  0.86809  0.20256  1.0000
  C   C545      1.0  0.94093  0.84648  0.18539  1.0000
  C   C546      1.0  0.91633  0.85482  0.17015  1.0000
  C   C547      1.0  0.90459  0.88505  0.17248  1.0000
  C   C548      1.0  0.91722  0.90659  0.18973  1.0000
  H   H913      1.0  0.89699  0.50497  0.11740  1.0000
  H   H914      1.0  0.95028  0.82341  0.18393  1.0000
  H   H915      1.0  0.88556  0.89187  0.16086  1.0000
  H   H916      1.0  0.90759  0.92947  0.19163  1.0000
  H   H917      1.0  0.54400  0.89088  0.06996  1.0000
  C   C549      1.0  0.53311  0.58031  0.20465  1.0000
  C   C550      1.0  0.54291  0.61115  0.20905  1.0000
  C   C551      1.0  0.54285  0.63361  0.18973  1.0000
  C   C552      1.0  0.53260  0.62557  0.16574  1.0000
  C   C553      1.0  0.52241  0.59484  0.16141  1.0000
  C   C554      1.0  0.52283  0.57228  0.18066  1.0000
  H   H918      1.0  0.53373  0.80830  0.06762  1.0000
  H   H919      1.0  0.55038  0.65719  0.19351  1.0000
  H   H920      1.0  0.68387  0.64563  0.14486  1.0000
  H   H921      1.0  0.81144  0.83995  0.10376  1.0000
  H   H922      1.0  0.83370  0.80112  0.13071  1.0000
  H   H923      1.0  0.80469  0.75484  0.16785  1.0000
  H   H924      1.0  0.77953  0.77068  0.19218  1.0000
  C   C555      1.0  0.75940  0.52718  0.32448  1.0000
  H   H925      1.0  0.97629  0.99475  0.16507  1.0000
  H   H926      1.0  0.79926  0.80281  0.09265  1.0000
  H   H927      1.0  0.56619  0.66624  0.05621  1.0000
  H   H928      1.0  0.49614  0.60987  0.04822  1.0000
  C   C556      1.0  0.83532  0.66767  0.05188  1.0000
  H   H929      1.0  0.93144  0.92493  0.12584  1.0000
  H   H930      1.0  0.52344  0.66253  0.08472  1.0000
  H   H931      1.0  0.93353  0.50519  0.08471  1.0000
  H   H932      1.0  0.65237  0.67678  0.18560  1.0000
  C   C557      1.0  0.51704  0.66935  0.06532  1.0000
  H   H933      1.0  0.72506  0.79347  0.16716  1.0000
  H   H934      1.0  0.80333  0.86628  0.14040  1.0000
  N   N38       1.0  0.63328  0.61474  0.17231  1.0000
  C   C558      1.0  0.61393  0.58523  0.17380  1.0000
  C   C559      1.0  0.62078  0.63414  0.15127  1.0000
  C   C560      1.0  0.63014  0.63165  0.19717  1.0000
  C   C561      1.0  0.66641  0.60574  0.16737  1.0000
  C   C562      1.0  0.61932  0.56415  0.19675  1.0000
  C   C563      1.0  0.61982  0.61855  0.12518  1.0000
  C   C564      1.0  0.63254  0.66743  0.19672  1.0000
  C   C565      1.0  0.68968  0.63240  0.16195  1.0000
  H   H935      1.0  0.58888  0.59067  0.17383  1.0000
  H   H936      1.0  0.61779  0.57038  0.15696  1.0000
  H   H937      1.0  0.63408  0.65618  0.14880  1.0000
  H   H938      1.0  0.59677  0.64138  0.15595  1.0000
  H   H939      1.0  0.60706  0.62681  0.20604  1.0000
  H   H940      1.0  0.64725  0.62316  0.21090  1.0000
  H   H941      1.0  0.67565  0.59290  0.18366  1.0000
  H   H942      1.0  0.66794  0.58936  0.15125  1.0000
  H   H943      1.0  0.61341  0.57559  0.21483  1.0000
  H   H944      1.0  0.60361  0.54351  0.19548  1.0000
  H   H945      1.0  0.64327  0.55545  0.19722  1.0000
  H   H946      1.0  0.61269  0.63591  0.11113  1.0000
  H   H947      1.0  0.64278  0.61014  0.11900  1.0000
  H   H948      1.0  0.60223  0.59952  0.12460  1.0000
  H   H949      1.0  0.63487  0.67623  0.21624  1.0000
  H   H950      1.0  0.61093  0.67722  0.18934  1.0000
  C   C566      1.0  0.52364  0.90711  0.10470  1.0000
  Fe  Fe82      1.0  0.50739  0.97684  0.22424  1.0000
  C   C567      1.0  0.80342  0.77056  0.18426  1.0000
  H   H951      1.0  0.84085  0.80277  0.17531  1.0000
  H   H952      1.0  0.96939  0.96626  0.10537  1.0000
  H   H953      1.0  0.82557  0.52194  0.32714  1.0000
  H   H954      1.0  0.81827  0.76037  0.19889  1.0000
  H   H955      1.0  0.91664  0.96045  0.15519  1.0000
  C   C568      1.0  0.81021  0.50134  0.32380  1.0000
  H   H956      1.0  0.55901  0.91816  0.20514  1.0000
  C   C569      1.0  0.96803  0.75788  0.02378  1.0000
  H   H957      1.0  0.75712  0.84361  0.15089  1.0000
  H   H958      1.0  0.51126  0.98169  0.32239  1.0000
  H   H959      1.0  0.79904  0.77959  0.13264  1.0000
  C   C570      1.0  0.80812  0.80366  0.13279  1.0000
  H   H960      1.0  0.75523  0.52018  0.30478  1.0000
  C   C571      1.0  0.81528  0.80372  0.17848  1.0000
  C   C572      1.0  0.74489  0.79552  0.15368  1.0000
  C   C573      1.0  0.85218  0.69825  0.04453  1.0000
  C   C574      1.0  0.54742  0.84230  0.10604  1.0000
  C   C575      1.0  0.95289  0.91210  0.12210  1.0000
  H   H961      1.0  0.51757  0.69517  0.06539  1.0000
  C   C576      1.0  0.97930  0.73161  0.03584  1.0000
  H   H962      1.0  0.83946  0.85114  0.14905  1.0000
  C   C577      1.0  0.58080  0.85044  0.09744  1.0000
  H   H963      1.0  0.95031  0.77147  0.03291  1.0000
  H   H964      1.0  0.79053  0.87245  0.18821  1.0000
  Fe  Fe83      1.0  0.95814  0.97775  0.23248  1.0000
  H   H965      1.0  0.82017  0.89669  0.17433  1.0000
  C   C578      1.0  0.90034  0.67227  0.03382  1.0000
  N   N39       1.0  0.80029  0.82027  0.15697  1.0000
  H   H966      1.0  0.81191  0.81650  0.19643  1.0000
  H   H967      1.0  0.55066  0.61771  0.22758  1.0000
  C   C579      1.0  0.81475  0.85239  0.15511  1.0000
  H   H968      1.0  0.73428  0.79967  0.13513  1.0000
  H   H969      1.0  0.91290  0.72789  0.00968  1.0000
  C   C580      1.0  0.81382  0.87233  0.17921  1.0000
  H   H970      1.0  0.59680  0.84416  0.11272  1.0000
  H   H971      1.0  0.50463  0.82951  0.16421  1.0000
  C   C581      1.0  0.90130  0.50039  0.13743  1.0000
  C   C582      1.0  0.87268  0.75484  0.01751  1.0000
  C   C583      1.0  0.76584  0.82334  0.16147  1.0000
  H   H972      1.0  0.58846  0.87233  0.19042  1.0000
  H   H973      1.0  0.85892  0.66067  0.00012  1.0000
  C   C584      1.0  0.54382  0.65885  0.04794  1.0000
  H   H974      1.0  0.71411  0.54848  0.32476  1.0000
  H   H975      1.0  0.76089  0.82831  0.18167  1.0000
  N   N40       1.0  0.87765  0.69594  0.02487  1.0000
  H   H976      1.0  0.93226  0.98173  0.12863  1.0000
  H   H977      1.0  0.49519  0.64937  0.01916  1.0000
  H   H978      1.0  0.86126  0.70871  0.06212  1.0000
  H   H979      1.0  0.51428  0.58834  0.14299  1.0000
  H   H980      1.0  0.98725  0.55770  0.27928  1.0000
  N   N41       1.0  0.52244  0.85060  0.08797  1.0000
  C   C585      1.0  0.79688  0.81930  0.10859  1.0000
  H   H981      1.0  0.97272  0.86131  0.21419  1.0000
  H   H982      1.0  0.58776  0.83693  0.08058  1.0000
  S   S167      1.0  0.49618  0.98376  0.26557  1.0000
  C   C586      1.0  0.93347  0.97874  0.14915  1.0000
  H   H983      1.0  0.90483  0.73273  0.04183  1.0000
  C   C587      1.0  0.50002  0.87505  0.18098  1.0000
  C   C588      1.0  0.96612  0.97211  0.15905  1.0000
  H   H984      1.0  0.75604  0.77272  0.15348  1.0000
  H   H985      1.0  0.84981  0.65329  0.06420  1.0000
  H   H986      1.0  0.88746  0.77547  0.01294  1.0000
  H   H987      1.0  0.83133  0.86464  0.19286  1.0000
  H   H988      1.0  0.96036  0.57727  0.14719  1.0000
  C   C589      1.0  0.97921  0.92100  0.14011  1.0000
  C   C590      1.0  0.56372  0.87292  0.18774  1.0000
  H   H989      1.0  0.77116  0.55033  0.32293  1.0000
  H   H990      1.0  0.54460  0.90472  0.11627  1.0000
  H   H991      1.0  0.54680  0.81696  0.11008  1.0000
  H   H992      1.0  0.50270  0.90439  0.11684  1.0000
  H   H993      1.0  0.95083  0.50405  0.13886  1.0000
  Fe  Fe84      1.0  0.52324  0.50097  0.23438  1.0000
  C   C591      1.0  0.86345  0.68618  0.00027  1.0000
  H   H994      1.0  0.54767  0.84229  0.05309  1.0000
  H   H995      1.0  0.83376  0.71418  0.03833  1.0000
  H   H996      1.0  0.81419  0.67322  0.06309  1.0000
  H   H997      1.0  0.94462  0.65076  0.02670  1.0000
  H   H998      1.0  0.52387  0.93139  0.09772  1.0000
  N   N42       1.0  0.98821  0.95493  0.14201  1.0000
  C   C592      1.0  0.99095  0.96911  0.11616  1.0000
  C   C593      1.0  0.51861  0.74669  0.00521  1.0000
  H   H999      1.0  0.80242  0.51991  0.28584  1.0000
  H   H1000     1.0  0.94196  0.68726  0.01176  1.0000
  H   H1001     1.0  0.85816  0.76121  0.03407  1.0000
  H   H1002     1.0  0.96022  0.91484  0.10215  1.0000
  C   C594      1.0  0.97938  0.76634  0.99963  1.0000
  H   H1003     1.0  0.50316  0.89112  0.07048  1.0000
  H   H1004     1.0  0.90068  0.52311  0.14735  1.0000
  H   H1005     1.0  0.50714  0.81996  0.02809  1.0000
  H   H1006     1.0  0.73954  0.99049  0.28761  1.0000
  H   H1007     1.0  0.85769  0.75012  0.00120  1.0000
  H   H1008     1.0  0.49748  0.79223  0.09353  1.0000
  H   H1009     1.0  0.70043  0.99219  0.32009  1.0000
  S   S168      1.0  0.55591  0.99614  0.22719  1.0000
  S   S169      1.0  0.57368  0.99528  0.30127  1.0000
  H   H1010     1.0  0.92158  0.65348  0.99931  1.0000
  Fe  Fe85      1.0  0.74933  0.85697  0.62163  1.0000
  C   C595      1.0  0.77381  0.96299  0.43001  1.0000
  S   S170      1.0  0.77038  0.80816  0.61884  1.0000
  Fe  Fe86      1.0  0.74227  0.91826  0.59062  1.0000
  S   S171      1.0  0.72897  0.94572  0.62508  1.0000
  S   S172      1.0  0.74143  0.93296  0.54884  1.0000
  Fe  Fe87      1.0  0.76691  0.91999  0.64486  1.0000
  C   C596      1.0  0.61365  0.61611  0.60817  1.0000
  Fe  Fe88      1.0  0.69831  0.90467  0.63536  1.0000
  N   N43       1.0  0.85243  0.84529  0.66289  1.0000
  S   S173      1.0  0.78255  0.89551  0.60966  1.0000
  S   S174      1.0  0.71047  0.87783  0.60016  1.0000
  Fe  Fe89      1.0  0.73007  0.61877  0.62548  1.0000
  S   S175      1.0  0.71566  0.66944  0.63241  1.0000
  Fe  Fe90      1.0  0.74381  0.55977  0.59326  1.0000
  S   S176      1.0  0.73753  0.52762  0.62646  1.0000
  S   S177      1.0  0.75629  0.54598  0.55251  1.0000
  Fe  Fe91      1.0  0.69559  0.55628  0.63628  1.0000
  H   H1011     1.0  0.61997  0.92281  0.59154  1.0000
  Fe  Fe92      1.0  0.76551  0.56376  0.64774  1.0000
  C   C597      1.0  0.78683  0.51861  0.36336  1.0000
  S   S178      1.0  0.70070  0.58664  0.60202  1.0000
  S   S179      1.0  0.77418  0.59467  0.61410  1.0000
  S   S180      1.0  0.73504  0.88068  0.65760  1.0000
  N   N44       1.0  0.77983  0.50471  0.33791  1.0000
  H   H1012     1.0  0.60148  0.95766  0.59948  1.0000
  H   H1013     1.0  0.76904  0.53269  0.50043  1.0000
  H   H1014     1.0  0.57544  0.50448  0.34872  1.0000
  H   H1015     1.0  0.84281  0.64015  0.64327  1.0000
  H   H1016     1.0  0.82249  0.95225  0.42624  1.0000
  H   H1017     1.0  0.83870  0.83187  0.62534  1.0000
  H   H1018     1.0  0.90474  0.54147  0.64611  1.0000
  H   H1019     1.0  0.50767  0.95891  0.36558  1.0000
  C   C598      1.0  0.86568  0.87370  0.62115  1.0000
  C   C599      1.0  0.73530  0.96706  0.53057  1.0000
  H   H1020     1.0  0.65461  0.63416  0.64067  1.0000
  C   C600      1.0  0.58339  0.93601  0.56659  1.0000
  H   H1021     1.0  0.81371  0.51370  0.39738  1.0000
  H   H1022     1.0  0.86596  0.97468  0.44663  1.0000
  C   C601      1.0  0.75423  0.76984  0.62204  1.0000
  C   C602      1.0  0.72459  0.76411  0.63212  1.0000
  C   C603      1.0  0.71328  0.73332  0.63500  1.0000
  C   C604      1.0  0.73121  0.70775  0.62765  1.0000
  C   C605      1.0  0.76081  0.71346  0.61746  1.0000
  C   C606      1.0  0.77228  0.74425  0.61488  1.0000
  H   H1023     1.0  0.71040  0.78340  0.63782  1.0000
  C   C607      1.0  0.65800  0.91253  0.55068  1.0000
  H   H1024     1.0  0.77480  0.69420  0.61144  1.0000
  H   H1025     1.0  0.79518  0.74828  0.60694  1.0000
  H   H1026     1.0  0.84651  0.94908  0.63747  1.0000
  H   H1027     1.0  0.61272  0.98769  0.34393  1.0000
  C   C608      1.0  0.64157  0.62723  0.65801  1.0000
  C   C609      1.0  0.62500  0.99411  0.56288  1.0000
  H   H1028     1.0  0.53452  0.50064  0.34549  1.0000
  H   H1029     1.0  0.76574  0.51876  0.37564  1.0000
  H   H1030     1.0  0.76934  0.94861  0.41307  1.0000
  H   H1031     1.0  0.57090  0.95685  0.56041  1.0000
  H   H1032     1.0  0.63164  0.94744  0.53190  1.0000
  C   C610      1.0  0.72755  0.99016  0.48889  1.0000
  H   H1033     1.0  0.83514  0.50403  0.36966  1.0000
  H   H1034     1.0  0.84818  0.54978  0.64219  1.0000
  C   C611      1.0  0.85710  0.94929  0.65576  1.0000
  H   H1035     1.0  0.80322  0.84711  0.65546  1.0000
  H   H1036     1.0  0.58089  0.52396  0.64486  1.0000
  C   C612      1.0  0.72712  0.53204  0.33651  1.0000
  H   H1037     1.0  0.82932  0.78610  0.64484  1.0000
  C   C613      1.0  0.88932  0.95450  0.65788  1.0000
  H   H1038     1.0  0.73168  0.94105  0.49610  1.0000
  C   C614      1.0  0.75709  0.51251  0.50809  1.0000
  H   H1039     1.0  0.84983  0.93661  0.47194  1.0000
  C   C615      1.0  0.81189  0.50228  0.37872  1.0000
  S   S181      1.0  0.64568  0.90817  0.64152  1.0000
  H   H1040     1.0  0.59009  0.92183  0.55008  1.0000
  C   C616      1.0  0.80825  0.97312  0.42982  1.0000
  H   H1041     1.0  0.57842  0.66620  0.63804  1.0000
  H   H1042     1.0  0.72837  0.54236  0.35555  1.0000
  C   C617      1.0  0.64880  0.94662  0.54725  1.0000
  C   C618      1.0  0.58949  0.91977  0.66464  1.0000
  H   H1043     1.0  0.75843  0.98327  0.42880  1.0000
  C   C619      1.0  0.59673  0.61127  0.63363  1.0000
  C   C620      1.0  0.73147  0.96396  0.50443  1.0000
  H   H1044     1.0  0.60082  0.60337  0.59333  1.0000
  H   H1045     1.0  0.81184  0.92342  0.46213  1.0000
  H   H1046     1.0  0.56664  0.92179  0.57792  1.0000
  H   H1047     1.0  0.86724  0.86912  0.60063  1.0000
  H   H1048     1.0  0.57971  0.90769  0.64872  1.0000
  H   H1049     1.0  0.91736  0.85273  0.65226  1.0000
  H   H1050     1.0  0.61522  0.64082  0.60254  1.0000
  C   C621      1.0  0.85883  0.84281  0.63501  1.0000
  C   C622      1.0  0.89051  0.54371  0.66290  1.0000
  H   H1051     1.0  0.59895  0.58634  0.63858  1.0000
  H   H1052     1.0  0.82120  0.88361  0.65945  1.0000
  C   C623      1.0  0.82463  0.93793  0.47584  1.0000
  H   H1053     1.0  0.69036  0.72933  0.64292  1.0000
  H   H1054     1.0  0.67010  0.94328  0.59584  1.0000
  H   H1055     1.0  0.75098  0.97851  0.33474  1.0000
  H   H1056     1.0  0.88806  0.88444  0.62668  1.0000
  H   H1057     1.0  0.90329  0.95808  0.64105  1.0000
  C   C624      1.0  0.74768  0.51258  0.53358  1.0000
  C   C625      1.0  0.61120  0.94462  0.58321  1.0000
  H   H1058     1.0  0.63840  0.89739  0.55691  1.0000
  C   C626      1.0  0.85837  0.54832  0.66060  1.0000
  S   S182      1.0  0.64580  0.53798  0.64227  1.0000
  C   C627      1.0  0.82307  0.65631  0.64291  1.0000
  H   H1059     1.0  0.79447  0.54335  0.36146  1.0000
  H   H1060     1.0  0.82021  0.92734  0.49463  1.0000
  H   H1061     1.0  0.67730  0.91056  0.56390  1.0000
  H   H1062     1.0  0.61877  0.67477  0.63570  1.0000
  H   H1063     1.0  0.84714  0.89075  0.62407  1.0000
  H   H1064     1.0  0.83153  0.68045  0.64557  1.0000
  H   H1065     1.0  0.57174  0.61454  0.62985  1.0000
  H   H1066     1.0  0.87855  0.82718  0.63100  1.0000
  H   H1067     1.0  0.77610  0.65737  0.65626  1.0000
  H   H1068     1.0  0.66654  0.90335  0.53238  1.0000
  H   H1069     1.0  0.63707  0.60605  0.60842  1.0000
  C   C628      1.0  0.81324  0.97166  0.47637  1.0000
  H   H1070     1.0  0.76716  0.94874  0.44659  1.0000
  H   H1071     1.0  0.72548  0.98495  0.36068  1.0000
  H   H1072     1.0  0.81329  0.65465  0.62376  1.0000
  H   H1073     1.0  0.64651  0.60221  0.66092  1.0000
  H   H1074     1.0  0.66985  0.95864  0.53956  1.0000
  N   N45       1.0  0.81910  0.99038  0.45280  1.0000
  N   N46       1.0  0.63703  0.96293  0.57051  1.0000
  H   H1075     1.0  0.78821  0.97082  0.48131  1.0000
  H   H1076     1.0  0.79370  0.62140  0.66023  1.0000
  H   H1077     1.0  0.71329  0.51016  0.33723  1.0000
  S   S183      1.0  0.72273  0.58945  0.66010  1.0000
  C   C629      1.0  0.66322  0.96639  0.58875  1.0000
  H   H1078     1.0  0.63808  0.97558  0.62449  1.0000
  H   H1079     1.0  0.72436  0.98724  0.46892  1.0000
  H   H1080     1.0  0.67747  0.98778  0.62394  1.0000
  H   H1081     1.0  0.68445  0.97605  0.57932  1.0000
  C   C630      1.0  0.65639  0.98628  0.61234  1.0000
  C   C631      1.0  0.79787  0.64681  0.66239  1.0000
  C   C632      1.0  0.58821  0.52862  0.66387  1.0000
  H   H1082     1.0  0.81154  0.98764  0.41273  1.0000
  H   H1083     1.0  0.82445  0.98292  0.49280  1.0000
  N   N47       1.0  0.60727  0.63178  0.65503  1.0000
  C   C633      1.0  0.60046  0.66508  0.64859  1.0000
  H   H1084     1.0  0.60735  0.99142  0.54800  1.0000
  C   C634      1.0  0.82791  0.79030  0.66539  1.0000
  H   H1085     1.0  0.60581  0.71122  0.66480  1.0000
  H   H1086     1.0  0.79936  0.72022  0.66310  1.0000
  H   H1087     1.0  0.73884  0.65141  0.68381  1.0000
  Fe  Fe93      1.0  0.97908  0.96506  0.71490  1.0000
  H   H1088     1.0  0.87212  0.86646  0.69619  1.0000
  S   S184      1.0  0.55760  0.96269  0.72871  1.0000
  S   S185      1.0  0.94413  0.96316  0.68286  1.0000
  S   S186      1.0  0.99212  0.57909  0.80484  1.0000
  C   C635      1.0  0.78762  0.71057  0.68014  1.0000
  S   S187      1.0  0.94454  0.53296  0.68817  1.0000
  S   S188      1.0  0.79874  0.55624  0.68055  1.0000
  H   H1089     1.0  0.89572  0.54292  0.72653  1.0000
  S   S189      1.0  0.54880  0.53056  0.73428  1.0000
  C   C636      1.0  0.57531  0.98743  0.79783  1.0000
  C   C637      1.0  0.62868  0.54176  0.69304  1.0000
  H   H1090     1.0  0.95010  0.88394  0.90101  1.0000
  C   C638      1.0  0.57532  0.53296  0.70840  1.0000
  H   H1091     1.0  0.84448  0.66205  0.73125  1.0000
  H   H1092     1.0  0.54060  0.74617  0.99523  1.0000
  H   H1093     1.0  0.65267  0.54733  0.69681  1.0000
  Fe  Fe94      1.0  0.50472  0.95845  0.73357  1.0000
  H   H1094     1.0  0.83907  0.55073  0.72261  1.0000
  C   C639      1.0  0.60670  0.54006  0.71295  1.0000
  H   H1095     1.0  0.87476  0.88994  0.66919  1.0000
  C   C640      1.0  0.59672  0.68806  0.67078  1.0000
  C   C641      1.0  0.90431  0.54147  0.68663  1.0000
  C   C642      1.0  0.88553  0.54446  0.70814  1.0000
  C   C643      1.0  0.85336  0.54881  0.70584  1.0000
  H   H1096     1.0  0.94032  0.89230  0.93288  1.0000
  C   C644      1.0  0.98694  0.87511  0.92837  1.0000
  C   C645      1.0  0.78012  0.64026  0.70617  1.0000
  S   S190      1.0  0.97078  0.96377  0.75669  1.0000
  H   H1097     1.0  0.83084  0.62202  0.73443  1.0000
  C   C646      1.0  0.90354  0.95546  0.68151  1.0000
  C   C647      1.0  0.88513  0.95089  0.70308  1.0000
  C   C648      1.0  0.85283  0.94619  0.70099  1.0000
  H   H1098     1.0  0.89571  0.95120  0.72135  1.0000
  H   H1099     1.0  0.98360  0.85749  0.87773  1.0000
  H   H1100     1.0  0.76495  0.70057  0.67489  1.0000
  Fe  Fe95      1.0  0.49583  0.52535  0.73492  1.0000
  H   H1101     1.0  0.54221  0.52177  0.67989  1.0000
  C   C649      1.0  0.58170  0.94708  0.70435  1.0000
  C   C650      1.0  0.56953  0.93146  0.68356  1.0000
  H   H1102     1.0  0.92562  0.87390  0.68023  1.0000
  C   C651      1.0  0.97701  0.80433  0.89941  1.0000
  S   S191      1.0  0.96741  0.51166  0.76013  1.0000
  H   H1103     1.0  0.98402  0.62654  0.84228  1.0000
  C   C652      1.0  0.61409  0.95083  0.70586  1.0000
  H   H1104     1.0  0.83329  0.69606  0.68878  1.0000
  H   H1105     1.0  0.68178  0.63839  0.68021  1.0000
  H   H1106     1.0  0.78598  0.87243  0.69427  1.0000
  H   H1107     1.0  0.80693  0.69349  0.71471  1.0000
  H   H1108     1.0  0.65886  0.94199  0.68855  1.0000
  H   H1109     1.0  0.54473  0.92837  0.68204  1.0000
  H   H1110     1.0  0.85482  0.64851  0.68432  1.0000
  H   H1111     1.0  0.62383  0.96287  0.72181  1.0000
  C   C653      1.0  0.83950  0.55058  0.68208  1.0000
  H   H1112     1.0  0.78262  0.73092  0.69227  1.0000
  C   C654      1.0  0.80934  0.68850  0.69425  1.0000
  Fe  Fe96      1.0  0.97844  0.52735  0.72074  1.0000
  H   H1113     1.0  0.86931  0.63031  0.72397  1.0000
  H   H1114     1.0  0.78553  0.64385  0.72632  1.0000
  H   H1115     1.0  0.52116  0.50561  0.81934  1.0000
  H   H1116     1.0  0.77861  0.61463  0.70336  1.0000
  C   C655      1.0  0.83508  0.63810  0.69522  1.0000
  H   H1117     1.0  0.97009  0.78639  0.99039  1.0000
  H   H1118     1.0  0.90711  0.69725  0.97789  1.0000
  H   H1119     1.0  0.74582  0.67714  0.71032  1.0000
  C   C656      1.0  0.59049  0.62053  0.67848  1.0000
  C   C657      1.0  0.83859  0.94533  0.67735  1.0000
  H   H1120     1.0  0.90101  0.99402  0.75164  1.0000
  C   C658      1.0  0.95283  0.87572  0.92056  1.0000
  H   H1121     1.0  0.98664  0.86827  0.94853  1.0000
  C   C659      1.0  0.65728  0.64548  0.67930  1.0000
  C   C660      1.0  0.61954  0.53591  0.66835  1.0000
  H   H1122     1.0  0.57184  0.69153  0.67535  1.0000
  H   H1123     1.0  0.58637  0.96971  0.78558  1.0000
  C   C661      1.0  0.80886  0.86108  0.69407  1.0000
  H   H1124     1.0  0.94134  0.85282  0.92324  1.0000
  H   H1125     1.0  0.98838  0.80065  0.88080  1.0000
  C   C662      1.0  0.63407  0.93899  0.68700  1.0000
  C   C663      1.0  0.56618  0.52740  0.68370  1.0000
  H   H1126     1.0  0.97078  0.78093  0.90687  1.0000
  C   C664      1.0  0.84509  0.63849  0.72293  1.0000
  N   N48       1.0  0.80517  0.65416  0.68939  1.0000
  H   H1127     1.0  0.83874  0.94319  0.71782  1.0000
  H   H1128     1.0  0.80522  0.83777  0.70242  1.0000
  H   H1129     1.0  0.95528  0.81697  0.89681  1.0000
  H   H1130     1.0  0.59761  0.59656  0.68308  1.0000
  H   H1131     1.0  0.91483  0.83387  0.68264  1.0000
  H   H1132     1.0  0.53592  0.99197  0.77389  1.0000
  C   C665      1.0  0.74729  0.65298  0.70329  1.0000
  H   H1133     1.0  0.73098  0.63879  0.71502  1.0000
  H   H1134     1.0  0.87815  0.67581  0.96187  1.0000
  H   H1135     1.0  0.56194  0.97430  0.81236  1.0000
  H   H1136     1.0  0.64687  0.64056  0.69803  1.0000
  H   H1137     1.0  0.65797  0.67072  0.67526  1.0000
  H   H1138     1.0  0.82400  0.87542  0.70621  1.0000
  C   C666      1.0  0.87636  0.86553  0.67556  1.0000
  C   C667      1.0  0.55484  0.61991  0.67731  1.0000
  H   H1139     1.0  0.60916  0.68211  0.68803  1.0000
  H   H1140     1.0  0.61405  0.54435  0.73199  1.0000
  H   H1141     1.0  0.54554  0.64178  0.66984  1.0000
  C   C668      1.0  0.88181  0.69456  0.97591  1.0000
  H   H1142     1.0  0.87248  0.71579  0.96719  1.0000
  H   H1143     1.0  0.59673  0.63420  0.69530  1.0000
  H   H1144     1.0  0.85194  0.81453  0.69513  1.0000
  H   H1145     1.0  0.98983  0.81696  0.93715  1.0000
  C   C669      1.0  0.85323  0.81333  0.67424  1.0000
  H   H1146     1.0  0.83393  0.61336  0.68931  1.0000
  S   S192      1.0  0.79765  0.94032  0.67593  1.0000
  C   C670      1.0  0.62187  0.92330  0.66624  1.0000
  H   H1147     1.0  0.54508  0.61645  0.69658  1.0000
  H   H1148     1.0  0.80424  0.79789  0.67053  1.0000
  C   C671      1.0  0.91030  0.85554  0.67220  1.0000
  H   H1149     1.0  0.83128  0.76764  0.67473  1.0000
  H   H1150     1.0  0.84040  0.69708  0.99826  1.0000
  C   C672      1.0  0.82107  0.85953  0.66668  1.0000
  H   H1151     1.0  0.87569  0.80216  0.66983  1.0000
  H   H1152     1.0  0.54638  0.59997  0.66594  1.0000
